@<TRIPOS>MOLECULE
Ligand.pdb
   58    61     1     0     0
SMALL
bcc


@<TRIPOS>ATOM
      1 C1         37.6610   40.8700   38.9280 ca        1 LIG     -0.113800
      2 C2         38.6270   41.6200   38.2250 ca        1 LIG     -0.116500
      3 C3         39.8420   41.9660   38.8250 ca        1 LIG     -0.061200
      4 C4         40.0520   41.5340   40.1200 ca        1 LIG     -0.144600
      5 C5         39.1040   40.8030   40.8100 ca        1 LIG     -0.139300
      6 C6         37.8940   40.4550   40.2430 ca        1 LIG     -0.060500
      7 H1         37.1580   39.8810   40.7970 ha        1 LIG      0.161500
      8 C7         39.6390   40.5360   42.1430 c         1 LIG      0.722700
      9 O1         39.0220   39.9640   43.0200 o         1 LIG     -0.560100
     10 N1         40.8960   41.0770   42.1760 n         1 LIG     -0.520500
     11 C8         41.2010   41.7150   41.0040 c         1 LIG      0.737900
     12 O2         42.2030   42.3310   40.6950 o         1 LIG     -0.612900
     13 C9         41.7620   41.0620   43.3430 c3        1 LIG      0.104000
     14 C10        42.9510   40.1290   43.1550 c3        1 LIG     -0.100700
     15 C11        44.1400   40.8330   42.4860 c3        1 LIG     -0.084300
     16 C12        45.4140   39.9790   42.4950 c3        1 LIG     -0.076300
     17 C13        46.5960   40.6930   41.8360 c3        1 LIG     -0.148500
     18 C14        47.2180   41.7910   42.6820 c         1 LIG      0.653600
     19 O3         46.5820   42.4720   43.4780 o         1 LIG     -0.620400
     20 N2         48.5620   41.9810   42.4170 n         1 LIG     -0.560600
     21 C15        49.2870   43.1480   42.9020 c3        1 LIG      0.092300
     22 C16        50.8090   43.1080   42.7300 c3        1 LIG     -0.032800
     23 C17        51.4920   41.9760   43.4460 cc        1 LIG     -0.151500
     24 C18        51.5850   41.8000   44.8680 ca        1 LIG     -0.096600
     25 C19        51.1530   42.5500   45.9810 ca        1 LIG     -0.057900
     26 C20        51.3780   42.0490   47.2690 ca        1 LIG     -0.055300
     27 C21        52.0270   40.8340   47.4690 ca        1 LIG     -0.094000
     28 C22        52.4650   40.0750   46.3810 ca        1 LIG     -0.144600
     29 C23        52.2280   40.5840   45.0990 ca        1 LIG     -0.038000
     30 N3         52.5230   40.0440   43.8710 na        1 LIG     -0.175100
     31 C24        52.0760   40.8620   42.8650 cd        1 LIG     -0.038100
     32 C25        52.2130   40.4750   41.4400 c3        1 LIG     -0.053700
     33 H2         52.1360   39.3940   41.3100 hc        1 LIG      0.059800
     34 H3         51.4360   40.9350   40.8270 hc        1 LIG      0.060200
     35 H4         53.1820   40.8050   41.0590 hc        1 LIG      0.055800
     36 H5         52.9700   39.1480   43.7400 hn        1 LIG      0.317200
     37 H6         52.9510   39.1170   46.5320 ha        1 LIG      0.135200
     38 H7         52.1910   40.4570   48.4760 ha        1 LIG      0.142300
     39 Br1        50.7700   43.0310   48.7680 br        1 LIG     -0.101600
     40 H8         50.6390   43.4950   45.8380 ha        1 LIG      0.147000
     41 H9         51.0280   43.0100   41.6590 hc        1 LIG      0.053100
     42 H10        51.2540   44.0580   43.0360 hc        1 LIG      0.056800
     43 H11        49.0530   43.2400   43.9690 h1        1 LIG      0.039900
     44 H12        48.8630   44.0210   42.3920 h1        1 LIG      0.079800
     45 H13        48.9430   41.5170   41.6040 hn        1 LIG      0.313700
     46 H14        47.3590   39.9670   41.5470 hc        1 LIG      0.075400
     47 H15        46.2430   41.1780   40.9170 hc        1 LIG      0.052000
     48 H16        45.6910   39.7490   43.5280 hc        1 LIG      0.067800
     49 H17        45.2240   39.0170   42.0070 hc        1 LIG      0.046700
     50 H18        44.3220   41.7840   42.9990 hc        1 LIG      0.047300
     51 H19        43.8930   41.0950   41.4560 hc        1 LIG      0.039700
     52 H20        42.6500   39.2360   42.5990 hc        1 LIG      0.062500
     53 H21        43.2340   39.7560   44.1340 hc        1 LIG      0.057200
     54 H22        42.1190   42.0830   43.5160 h1        1 LIG      0.069100
     55 H23        41.1750   40.7390   44.2070 h1        1 LIG      0.060000
     56 H24        40.5940   42.5430   38.3000 ha        1 LIG      0.156100
     57 H25        38.4210   41.9310   37.2020 ha        1 LIG      0.146200
     58 H26        36.7230   40.6130   38.4390 ha        1 LIG      0.146600
@<TRIPOS>BOND
     1    1    2 ar  
     2    1    6 ar  
     3    1   58 1   
     4    2    3 ar  
     5    2   57 1   
     6    3    4 ar  
     7    3   56 1   
     8    4    5 ar  
     9    4   11 1   
    10    5    6 ar  
    11    5    8 1   
    12    6    7 1   
    13    8    9 2   
    14    8   10 1   
    15   10   11 1   
    16   10   13 1   
    17   11   12 2   
    18   13   14 1   
    19   13   54 1   
    20   13   55 1   
    21   14   15 1   
    22   14   52 1   
    23   14   53 1   
    24   15   16 1   
    25   15   50 1   
    26   15   51 1   
    27   16   17 1   
    28   16   48 1   
    29   16   49 1   
    30   17   18 1   
    31   17   46 1   
    32   17   47 1   
    33   18   19 2   
    34   18   20 1   
    35   20   21 1   
    36   20   45 1   
    37   21   22 1   
    38   21   43 1   
    39   21   44 1   
    40   22   23 1   
    41   22   41 1   
    42   22   42 1   
    43   23   24 1   
    44   23   31 2   
    45   24   25 ar  
    46   24   29 ar  
    47   25   26 ar  
    48   25   40 1   
    49   26   27 ar  
    50   26   39 1   
    51   27   28 ar  
    52   27   38 1   
    53   28   29 ar  
    54   28   37 1   
    55   29   30 1   
    56   30   31 1   
    57   30   36 1   
    58   31   32 1   
    59   32   33 1   
    60   32   34 1   
    61   32   35 1   
@<TRIPOS>SUBSTRUCTURE
     1 LIG         1 TEMP              0 ****  ****    0 ROOT
