@<TRIPOS>MOLECULE
Ligand.pdb
 58 61 0 0 0
SMALL
GASTEIGER
Energy = 0

@<TRIPOS>ATOM
      1  C1        37.6610   40.8700   38.9280 C.ar   -1  LIG-1      -0.0610
      2  C2        38.6270   41.6200   38.2250 C.ar   -1  LIG-1      -0.0610
      3  C3        39.8420   41.9660   38.8250 C.ar   -1  LIG-1      -0.0489
      4  C4        40.0520   41.5340   40.1200 C.ar   -1  LIG-1       0.0494
      5  C5        39.1040   40.8030   40.8100 C.ar   -1  LIG-1       0.0494
      6  C6        37.8940   40.4550   40.2430 C.ar   -1  LIG-1      -0.0489
      7  H1        37.1580   39.8810   40.7970 H      -1  LIG-1       0.0625
      8  C7        39.6390   40.5360   42.1430 C.2    -1  LIG-1       0.2538
      9  O1        39.0220   39.9640   43.0200 O.2    -1  LIG-1      -0.2695
     10  N1        40.8960   41.0770   42.1760 N.am   -1  LIG-1      -0.2341
     11  C8        41.2010   41.7150   41.0040 C.2    -1  LIG-1       0.2538
     12  O2        42.2030   42.3310   40.6950 O.2    -1  LIG-1      -0.2695
     13  C9        41.7620   41.0620   43.3430 C.3    -1  LIG-1       0.0230
     14  C10       42.9510   40.1290   43.1550 C.3    -1  LIG-1      -0.0366
     15  C11       44.1400   40.8330   42.4860 C.3    -1  LIG-1      -0.0512
     16  C12       45.4140   39.9790   42.4950 C.3    -1  LIG-1      -0.0447
     17  C13       46.5960   40.6930   41.8360 C.3    -1  LIG-1       0.0240
     18  C14       47.2180   41.7910   42.6820 C.2    -1  LIG-1       0.2130
     19  O3        46.5820   42.4720   43.4780 O.2    -1  LIG-1      -0.2758
     20  N2        48.5620   41.9810   42.4170 N.am   -1  LIG-1      -0.3150
     21  C15       49.2870   43.1480   42.9020 C.3    -1  LIG-1       0.0156
     22  C16       50.8090   43.1080   42.7300 C.3    -1  LIG-1      -0.0098
     23  C17       51.4920   41.9760   43.4460 C.ar   -1  LIG-1      -0.0179
     24  C18       51.5850   41.8000   44.8680 C.ar   -1  LIG-1       0.0042
     25  C19       51.1530   42.5500   45.9810 C.ar   -1  LIG-1      -0.0383
     26  C20       51.3780   42.0490   47.2690 C.ar   -1  LIG-1       0.0186
     27  C21       52.0270   40.8340   47.4690 C.ar   -1  LIG-1      -0.0458
     28  C22       52.4650   40.0750   46.3810 C.ar   -1  LIG-1      -0.0367
     29  C23       52.2280   40.5840   45.0990 C.ar   -1  LIG-1       0.0470
     30  N3        52.5230   40.0440   43.8710 N.ar   -1  LIG-1      -0.3579
     31  C24       52.0760   40.8620   42.8650 C.ar   -1  LIG-1       0.0171
     32  C25       52.2130   40.4750   41.4400 C.3    -1  LIG-1      -0.0242
     33  H2        52.1360   39.3940   41.3100 H      -1  LIG-1       0.0292
     34  H3        51.4360   40.9350   40.8270 H      -1  LIG-1       0.0292
     35  H4        53.1820   40.8050   41.0590 H      -1  LIG-1       0.0292
     36  H5        52.9700   39.1480   43.7400 H      -1  LIG-1       0.1656
     37  H6        52.9510   39.1170   46.5320 H      -1  LIG-1       0.0639
     38  H7        52.1910   40.4570   48.4760 H      -1  LIG-1       0.0629
     39 Br1        50.7700   43.0310   48.7680 Br     -1  LIG-1      -0.0503
     40  H8        50.6390   43.4950   45.8380 H      -1  LIG-1       0.0635
     41  H9        51.0280   43.0100   41.6590 H      -1  LIG-1       0.0329
     42  H10       51.2540   44.0580   43.0360 H      -1  LIG-1       0.0329
     43  H11       49.0530   43.2400   43.9690 H      -1  LIG-1       0.0465
     44  H12       48.8630   44.0210   42.3920 H      -1  LIG-1       0.0465
     45  H13       48.9430   41.5170   41.6040 H      -1  LIG-1       0.1487
     46  H14       47.3590   39.9670   41.5470 H      -1  LIG-1       0.0358
     47  H15       46.2430   41.1780   40.9170 H      -1  LIG-1       0.0358
     48  H16       45.6910   39.7490   43.5280 H      -1  LIG-1       0.0270
     49  H17       45.2240   39.0170   42.0070 H      -1  LIG-1       0.0270
     50  H18       44.3220   41.7840   42.9990 H      -1  LIG-1       0.0266
     51  H19       43.8930   41.0950   41.4560 H      -1  LIG-1       0.0266
     52  H20       42.6500   39.2360   42.5990 H      -1  LIG-1       0.0280
     53  H21       43.2340   39.7560   44.1340 H      -1  LIG-1       0.0280
     54  H22       42.1190   42.0830   43.5160 H      -1  LIG-1       0.0470
     55  H23       41.1750   40.7390   44.2070 H      -1  LIG-1       0.0470
     56  H24       40.5940   42.5430   38.3000 H      -1  LIG-1       0.0625
     57  H25       38.4210   41.9310   37.2020 H      -1  LIG-1       0.0618
     58  H26       36.7230   40.6130   38.4390 H      -1  LIG-1       0.0618
@<TRIPOS>BOND
     1    57     2    1
     2     2     3   ar
     3     2     1   ar
     4    56     3    1
     5    58     1    1
     6     3     4   ar
     7     1     6   ar
     8     4     5   ar
     9     4    11    1
    10     6     7    1
    11     6     5   ar
    12    12    11    2
    13     5     8    1
    14    34    32    1
    15    47    17    1
    16    11    10   am
    17    35    32    1
    18    33    32    1
    19    32    31    1
    20    51    15    1
    21    46    17    1
    22    45    20    1
    23    41    22    1
    24    17    16    1
    25    17    18    1
    26    49    16    1
    27     8    10   am
    28     8     9    2
    29    10    13    1
    30    44    21    1
    31    20    18   am
    32    20    21    1
    33    15    16    1
    34    15    50    1
    35    15    14    1
    36    16    48    1
    37    52    14    1
    38    18    19    2
    39    22    21    1
    40    22    42    1
    41    22    23    1
    42    31    23   ar
    43    31    30   ar
    44    21    43    1
    45    14    13    1
    46    14    53    1
    47    13    54    1
    48    13    55    1
    49    23    24   ar
    50    36    30    1
    51    30    29   ar
    52    24    29   ar
    53    24    25   ar
    54    29    28   ar
    55    40    25    1
    56    25    26   ar
    57    28    37    1
    58    28    27   ar
    59    26    27   ar
    60    26    39    1
    61    27    38    1
