PMC1IJY_out_4.pdb_27143_ChemDiv_5607-0.pdb
 OpenBabel06131016173D

 43 45  0  0  0  0  0  0  0  0999 V2000
   64.8470   49.6350   97.7480 C   0  0  0  0  0
   64.3430   49.2470   97.0140 C   0  0  0  0  0
   63.7960   48.4940   97.1700 C   0  0  0  0  0
   63.7310   48.1100   98.0350 N   0  0  0  0  0
   63.1760   47.3420   98.2040 C   0  0  0  0  0
   63.1130   46.9190   99.1870 O   0  0  0  0  0
   64.2350   48.4980   98.7690 C   0  0  0  0  0
   64.7920   49.2600   98.6220 C   0  0  0  0  0
   62.6220   46.9350   97.3440 C   0  0  0  0  0
   62.3810   45.9000   97.3130 O   0  0  0  0  0
   61.4470   45.4670   97.0200 C   0  0  0  0  0
   61.2760   45.1860   95.9480 C   0  0  0  0  0
   60.3020   44.7390   95.6620 C   0  0  0  0  0
   59.4930   44.5650   96.4210 C   0  0  0  0  0
   58.5350   44.1260   96.1460 Cl  0  0  0  0  0
   59.6680   44.8380   97.4450 C   0  0  0  0  0
   60.6290   45.2800   97.7320 C   0  0  0  0  0
   65.4020   50.3970   97.5930 N   0  0  0  0  0
   66.2760   50.2810   97.3420 C   0  0  0  0  0
   66.8110   51.0170   97.1920 C   0  0  0  0  0
   66.4710   51.8570   97.2940 O   0  0  0  0  0
   67.6560   50.9050   96.9490 C   0  0  0  0  0
   65.5970   51.9730   97.5460 C   0  0  0  0  0
   65.0630   51.2490   97.6950 C   0  0  0  0  0
   65.2410   52.8170   97.6530 C   0  0  0  0  0
   64.4100   49.6840   96.0050 H   0  0  0  0  0
   63.2250   48.0550   96.3360 H   0  0  0  0  0
   64.1640   48.0570   99.7760 H   0  0  0  0  0
   65.3640   49.7000   99.4540 H   0  0  0  0  0
   61.6600   47.5340   97.2180 H   0  0  0  0  0
   63.3740   47.0390   96.4940 H   0  0  0  0  0
   62.0610   45.3510   95.1930 H   0  0  0  0  0
   60.1250   44.4600   94.6110 H   0  0  0  0  0
   58.8860   44.6750   98.2030 H   0  0  0  0  0
   60.7840   45.5510   98.7880 H   0  0  0  0  0
   66.6860   49.2660   97.2200 H   0  0  0  0  0
   68.1510   51.9230   96.8120 H   0  0  0  0  0
   67.7120   50.3050   95.9810 H   0  0  0  0  0
   68.2070   50.3270   97.7630 H   0  0  0  0  0
   64.0130   51.3920   97.9970 H   0  0  0  0  0
   66.0400   53.5980   97.4280 H   0  0  0  0  0
   64.8490   52.9480   98.7150 H   0  0  0  0  0
   64.3710   52.9510   96.9280 H   0  0  0  0  0
  1  2  2  0  0  0
  1 18  1  0  0  0
  1  8  1  0  0  0
  2  3  1  0  0  0
  2 26  1  0  0  0
  3  4  2  0  0  0
  3 27  1  0  0  0
  4  5  1  0  0  0
  4  7  1  0  0  0
  5  9  1  0  0  0
  5  6  2  0  0  0
  7  8  2  0  0  0
  7 28  1  0  0  0
  8 29  1  0  0  0
  9 10  1  0  0  0
  9 30  1  0  0  0
  9 31  1  0  0  0
 10 11  1  0  0  0
 11 12  2  0  0  0
 11 17  1  0  0  0
 12 13  1  0  0  0
 12 32  1  0  0  0
 13 14  2  0  0  0
 13 33  1  0  0  0
 14 15  1  0  0  0
 14 16  1  0  0  0
 16 17  2  0  0  0
 16 34  1  0  0  0
 17 35  1  0  0  0
 18 19  2  0  0  0
 18 24  1  0  0  0
 19 20  1  0  0  0
 19 36  1  0  0  0
 20 22  1  0  0  0
 20 21  2  0  0  0
 21 23  1  0  0  0
 22 37  1  0  0  0
 22 38  1  0  0  0
 22 39  1  0  0  0
 23 25  1  0  0  0
 23 24  2  0  0  0
 24 40  1  0  0  0
 25 41  1  0  0  0
 25 42  1  0  0  0
 25 43  1  0  0  0
M  CHG  1   6  -1
M  END
>  <COMPND>
    ligand_BC.pdb 

>  <AUTHOR>
    GENERATED BY OPEN BABEL 2.2.1

>  <MASTER>
        0    0    0    0    0    0    0    0   43    0   43    0

$$$$
PMC1IJY_out_4.pdb_27141_ChemDiv_5607-0.pdb
 OpenBabel06131016173D

 45 47  0  0  0  0  0  0  0  0999 V2000
   60.3830   45.2320   96.8180 N   0  0  0  0  0
   59.8270   44.9510   97.5460 C   0  0  0  0  0
   59.2720   44.0360   97.4850 O   0  0  0  0  0
   60.4380   44.6780   96.0240 C   0  0  0  0  0
   60.9840   44.9410   95.2910 C   0  0  0  0  0
   61.4750   45.7500   95.3470 C   0  0  0  0  0
   61.4200   46.3050   96.1410 C   0  0  0  0  0
   60.8770   46.0340   96.8580 C   0  0  0  0  0
   59.7910   45.6040   98.4270 C   0  0  0  0  0
   59.9640   45.2030   99.3900 O   0  0  0  0  0
   60.1950   45.7470  100.2770 C   0  0  0  0  0
   60.4530   46.8330  100.2110 C   0  0  0  0  0
   60.6890   47.3790  101.1380 C   0  0  0  0  0
   60.6760   46.8720  102.1360 C   0  0  0  0  0
   60.4290   45.8340  102.1890 C   0  0  0  0  0
   60.9080   47.4070  103.0510 C   0  0  0  0  0
   60.1930   45.2870  101.2700 C   0  0  0  0  0
   62.0240   46.0190   94.6170 N   0  0  0  0  0
   62.8900   45.7470   94.5770 C   0  0  0  0  0
   63.5040   45.9480   93.9190 C   0  0  0  0  0
   63.4070   46.4400   93.1870 C   0  0  0  0  0
   62.6650   46.9000   92.8580 C   0  0  0  0  0
   61.8370   46.9130   93.2920 C   0  0  0  0  0
   61.5490   46.5380   94.0490 C   0  0  0  0  0
   59.8650   43.7390   95.9710 H   0  0  0  0  0
   61.0450   44.3130   94.3880 H   0  0  0  0  0
   61.9900   47.2460   96.2010 H   0  0  0  0  0
   60.8160   46.6630   97.7600 H   0  0  0  0  0
   58.7860   46.1420   98.4360 H   0  0  0  0  0
   60.7020   46.2720   98.2730 H   0  0  0  0  0
   60.4710   47.3470   99.2370 H   0  0  0  0  0
   60.9440   48.4490  101.0820 H   0  0  0  0  0
   60.4120   45.3170  103.1620 H   0  0  0  0  0
   61.1460   48.4950  102.8060 H   0  0  0  0  0
   61.7920   46.9190  103.5800 H   0  0  0  0  0
   60.0060   47.3680  103.7470 H   0  0  0  0  0
   59.9400   44.2180  101.3490 H   0  0  0  0  0
   63.3710   46.0050   95.5780 H   0  0  0  0  0
   62.6940   44.6660   94.2740 H   0  0  0  0  0
   64.5060   45.5130   94.0630 H   0  0  0  0  0
   64.3120   46.5210   92.5640 H   0  0  0  0  0
   62.4910   46.5610   91.7830 H   0  0  0  0  0
   63.0010   47.9750   93.0320 H   0  0  0  0  0
   61.0690   47.5050   92.7690 H   0  0  0  0  0
   60.4990   46.7280   94.3210 H   0  0  0  0  0
  1  4  2  0  0  0
  1  8  1  0  0  0
  1  2  1  0  0  0
  2  3  2  0  0  0
  2  9  1  0  0  0
  4  5  1  0  0  0
  4 25  1  0  0  0
  5  6  2  0  0  0
  5 26  1  0  0  0
  6 18  1  0  0  0
  6  7  1  0  0  0
  7  8  2  0  0  0
  7 27  1  0  0  0
  8 28  1  0  0  0
  9 10  1  0  0  0
  9 29  1  0  0  0
  9 30  1  0  0  0
 10 11  1  0  0  0
 11 12  2  0  0  0
 11 17  1  0  0  0
 12 13  1  0  0  0
 12 31  1  0  0  0
 13 14  2  0  0  0
 13 32  1  0  0  0
 14 15  1  0  0  0
 14 16  1  0  0  0
 15 17  2  0  0  0
 15 33  1  0  0  0
 16 34  1  0  0  0
 16 35  1  0  0  0
 16 36  1  0  0  0
 17 37  1  0  0  0
 18 24  1  0  0  0
 18 19  1  0  0  0
 19 20  1  0  0  0
 19 38  1  0  0  0
 19 39  1  0  0  0
 20 21  2  0  0  0
 20 40  1  0  0  0
 21 22  1  0  0  0
 21 41  1  0  0  0
 22 23  1  0  0  0
 22 42  1  0  0  0
 22 43  1  0  0  0
 23 24  2  0  0  0
 23 44  1  0  0  0
 24 45  1  0  0  0
M  CHG  1   3  -1
M  END
>  <COMPND>
    ligand_BC.pdb 

>  <AUTHOR>
    GENERATED BY OPEN BABEL 2.2.1

>  <MASTER>
        0    0    0    0    0    0    0    0   45    0   45    0

$$$$
PMC1IJY_out_4.pdb_27143_ChemDiv_5607-0.pdb
 OpenBabel06131016173D

 43 45  0  0  0  0  0  0  0  0999 V2000
   64.8470   49.6350   97.7480 C   0  0  0  0  0
   64.3430   49.2470   97.0140 C   0  0  0  0  0
   63.7960   48.4940   97.1700 C   0  0  0  0  0
   63.7310   48.1100   98.0350 N   0  0  0  0  0
   63.1760   47.3420   98.2040 C   0  0  0  0  0
   63.1130   46.9190   99.1870 O   0  0  0  0  0
   64.2350   48.4980   98.7690 C   0  0  0  0  0
   64.7920   49.2600   98.6220 C   0  0  0  0  0
   62.6220   46.9350   97.3440 C   0  0  0  0  0
   62.3810   45.9000   97.3130 O   0  0  0  0  0
   61.4470   45.4670   97.0200 C   0  0  0  0  0
   61.2760   45.1860   95.9480 C   0  0  0  0  0
   60.3020   44.7390   95.6620 C   0  0  0  0  0
   59.4930   44.5650   96.4210 C   0  0  0  0  0
   58.5350   44.1260   96.1460 Cl  0  0  0  0  0
   59.6680   44.8380   97.4450 C   0  0  0  0  0
   60.6290   45.2800   97.7320 C   0  0  0  0  0
   65.4020   50.3970   97.5930 N   0  0  0  0  0
   66.2760   50.2810   97.3420 C   0  0  0  0  0
   66.8110   51.0170   97.1920 C   0  0  0  0  0
   66.4710   51.8570   97.2940 O   0  0  0  0  0
   67.6560   50.9050   96.9490 C   0  0  0  0  0
   65.5970   51.9730   97.5460 C   0  0  0  0  0
   65.0630   51.2490   97.6950 C   0  0  0  0  0
   65.2410   52.8170   97.6530 C   0  0  0  0  0
   64.4100   49.6840   96.0050 H   0  0  0  0  0
   63.2250   48.0550   96.3360 H   0  0  0  0  0
   64.1640   48.0570   99.7760 H   0  0  0  0  0
   65.3640   49.7000   99.4540 H   0  0  0  0  0
   61.6600   47.5340   97.2180 H   0  0  0  0  0
   63.3740   47.0390   96.4940 H   0  0  0  0  0
   62.0610   45.3510   95.1930 H   0  0  0  0  0
   60.1250   44.4600   94.6110 H   0  0  0  0  0
   58.8860   44.6750   98.2030 H   0  0  0  0  0
   60.7840   45.5510   98.7880 H   0  0  0  0  0
   66.6860   49.2660   97.2200 H   0  0  0  0  0
   68.1510   51.9230   96.8120 H   0  0  0  0  0
   67.7120   50.3050   95.9810 H   0  0  0  0  0
   68.2070   50.3270   97.7630 H   0  0  0  0  0
   64.0130   51.3920   97.9970 H   0  0  0  0  0
   66.0400   53.5980   97.4280 H   0  0  0  0  0
   64.8490   52.9480   98.7150 H   0  0  0  0  0
   64.3710   52.9510   96.9280 H   0  0  0  0  0
  1  2  2  0  0  0
  1 18  1  0  0  0
  1  8  1  0  0  0
  2  3  1  0  0  0
  2 26  1  0  0  0
  3  4  2  0  0  0
  3 27  1  0  0  0
  4  5  1  0  0  0
  4  7  1  0  0  0
  5  9  1  0  0  0
  5  6  2  0  0  0
  7  8  2  0  0  0
  7 28  1  0  0  0
  8 29  1  0  0  0
  9 10  1  0  0  0
  9 30  1  0  0  0
  9 31  1  0  0  0
 10 11  1  0  0  0
 11 12  2  0  0  0
 11 17  1  0  0  0
 12 13  1  0  0  0
 12 32  1  0  0  0
 13 14  2  0  0  0
 13 33  1  0  0  0
 14 15  1  0  0  0
 14 16  1  0  0  0
 16 17  2  0  0  0
 16 34  1  0  0  0
 17 35  1  0  0  0
 18 19  2  0  0  0
 18 24  1  0  0  0
 19 20  1  0  0  0
 19 36  1  0  0  0
 20 22  1  0  0  0
 20 21  2  0  0  0
 21 23  1  0  0  0
 22 37  1  0  0  0
 22 38  1  0  0  0
 22 39  1  0  0  0
 23 25  1  0  0  0
 23 24  2  0  0  0
 24 40  1  0  0  0
 25 41  1  0  0  0
 25 42  1  0  0  0
 25 43  1  0  0  0
M  CHG  1   6  -1
M  END
>  <COMPND>
    ligand_BC.pdb 

>  <AUTHOR>
    GENERATED BY OPEN BABEL 2.2.1

>  <MASTER>
        0    0    0    0    0    0    0    0   43    0   43    0

$$$$
PMC1IJY_out_4.pdb_27141_ChemDiv_5607-0.pdb
 OpenBabel06131016173D

 45 47  0  0  0  0  0  0  0  0999 V2000
   60.3830   45.2320   96.8180 N   0  0  0  0  0
   59.8270   44.9510   97.5460 C   0  0  0  0  0
   59.2720   44.0360   97.4850 O   0  0  0  0  0
   60.4380   44.6780   96.0240 C   0  0  0  0  0
   60.9840   44.9410   95.2910 C   0  0  0  0  0
   61.4750   45.7500   95.3470 C   0  0  0  0  0
   61.4200   46.3050   96.1410 C   0  0  0  0  0
   60.8770   46.0340   96.8580 C   0  0  0  0  0
   59.7910   45.6040   98.4270 C   0  0  0  0  0
   59.9640   45.2030   99.3900 O   0  0  0  0  0
   60.1950   45.7470  100.2770 C   0  0  0  0  0
   60.4530   46.8330  100.2110 C   0  0  0  0  0
   60.6890   47.3790  101.1380 C   0  0  0  0  0
   60.6760   46.8720  102.1360 C   0  0  0  0  0
   60.4290   45.8340  102.1890 C   0  0  0  0  0
   60.9080   47.4070  103.0510 C   0  0  0  0  0
   60.1930   45.2870  101.2700 C   0  0  0  0  0
   62.0240   46.0190   94.6170 N   0  0  0  0  0
   62.8900   45.7470   94.5770 C   0  0  0  0  0
   63.5040   45.9480   93.9190 C   0  0  0  0  0
   63.4070   46.4400   93.1870 C   0  0  0  0  0
   62.6650   46.9000   92.8580 C   0  0  0  0  0
   61.8370   46.9130   93.2920 C   0  0  0  0  0
   61.5490   46.5380   94.0490 C   0  0  0  0  0
   59.8650   43.7390   95.9710 H   0  0  0  0  0
   61.0450   44.3130   94.3880 H   0  0  0  0  0
   61.9900   47.2460   96.2010 H   0  0  0  0  0
   60.8160   46.6630   97.7600 H   0  0  0  0  0
   58.7860   46.1420   98.4360 H   0  0  0  0  0
   60.7020   46.2720   98.2730 H   0  0  0  0  0
   60.4710   47.3470   99.2370 H   0  0  0  0  0
   60.9440   48.4490  101.0820 H   0  0  0  0  0
   60.4120   45.3170  103.1620 H   0  0  0  0  0
   61.1460   48.4950  102.8060 H   0  0  0  0  0
   61.7920   46.9190  103.5800 H   0  0  0  0  0
   60.0060   47.3680  103.7470 H   0  0  0  0  0
   59.9400   44.2180  101.3490 H   0  0  0  0  0
   63.3710   46.0050   95.5780 H   0  0  0  0  0
   62.6940   44.6660   94.2740 H   0  0  0  0  0
   64.5060   45.5130   94.0630 H   0  0  0  0  0
   64.3120   46.5210   92.5640 H   0  0  0  0  0
   62.4910   46.5610   91.7830 H   0  0  0  0  0
   63.0010   47.9750   93.0320 H   0  0  0  0  0
   61.0690   47.5050   92.7690 H   0  0  0  0  0
   60.4990   46.7280   94.3210 H   0  0  0  0  0
  1  4  2  0  0  0
  1  8  1  0  0  0
  1  2  1  0  0  0
  2  3  2  0  0  0
  2  9  1  0  0  0
  4  5  1  0  0  0
  4 25  1  0  0  0
  5  6  2  0  0  0
  5 26  1  0  0  0
  6 18  1  0  0  0
  6  7  1  0  0  0
  7  8  2  0  0  0
  7 27  1  0  0  0
  8 28  1  0  0  0
  9 10  1  0  0  0
  9 29  1  0  0  0
  9 30  1  0  0  0
 10 11  1  0  0  0
 11 12  2  0  0  0
 11 17  1  0  0  0
 12 13  1  0  0  0
 12 31  1  0  0  0
 13 14  2  0  0  0
 13 32  1  0  0  0
 14 15  1  0  0  0
 14 16  1  0  0  0
 15 17  2  0  0  0
 15 33  1  0  0  0
 16 34  1  0  0  0
 16 35  1  0  0  0
 16 36  1  0  0  0
 17 37  1  0  0  0
 18 24  1  0  0  0
 18 19  1  0  0  0
 19 20  1  0  0  0
 19 38  1  0  0  0
 19 39  1  0  0  0
 20 21  2  0  0  0
 20 40  1  0  0  0
 21 22  1  0  0  0
 21 41  1  0  0  0
 22 23  1  0  0  0
 22 42  1  0  0  0
 22 43  1  0  0  0
 23 24  2  0  0  0
 23 44  1  0  0  0
 24 45  1  0  0  0
M  CHG  1   3  -1
M  END
>  <COMPND>
    ligand_BC.pdb 

>  <AUTHOR>
    GENERATED BY OPEN BABEL 2.2.1

>  <MASTER>
        0    0    0    0    0    0    0    0   45    0   45    0

$$$$
PMC1IJY_out_4.pdb_27143_ChemDiv_5607-0.pdb
 OpenBabel06131016173D

 43 45  0  0  0  0  0  0  0  0999 V2000
   64.8470   49.6350   97.7480 C   0  0  0  0  0
   64.3430   49.2470   97.0140 C   0  0  0  0  0
   63.7960   48.4940   97.1700 C   0  0  0  0  0
   63.7310   48.1100   98.0350 N   0  0  0  0  0
   63.1760   47.3420   98.2040 C   0  0  0  0  0
   63.1130   46.9190   99.1870 O   0  0  0  0  0
   64.2350   48.4980   98.7690 C   0  0  0  0  0
   64.7920   49.2600   98.6220 C   0  0  0  0  0
   62.6220   46.9350   97.3440 C   0  0  0  0  0
   62.3810   45.9000   97.3130 O   0  0  0  0  0
   61.4470   45.4670   97.0200 C   0  0  0  0  0
   61.2760   45.1860   95.9480 C   0  0  0  0  0
   60.3020   44.7390   95.6620 C   0  0  0  0  0
   59.4930   44.5650   96.4210 C   0  0  0  0  0
   58.5350   44.1260   96.1460 Cl  0  0  0  0  0
   59.6680   44.8380   97.4450 C   0  0  0  0  0
   60.6290   45.2800   97.7320 C   0  0  0  0  0
   65.4020   50.3970   97.5930 N   0  0  0  0  0
   66.2760   50.2810   97.3420 C   0  0  0  0  0
   66.8110   51.0170   97.1920 C   0  0  0  0  0
   66.4710   51.8570   97.2940 O   0  0  0  0  0
   67.6560   50.9050   96.9490 C   0  0  0  0  0
   65.5970   51.9730   97.5460 C   0  0  0  0  0
   65.0630   51.2490   97.6950 C   0  0  0  0  0
   65.2410   52.8170   97.6530 C   0  0  0  0  0
   64.4100   49.6840   96.0050 H   0  0  0  0  0
   63.2250   48.0550   96.3360 H   0  0  0  0  0
   64.1640   48.0570   99.7760 H   0  0  0  0  0
   65.3640   49.7000   99.4540 H   0  0  0  0  0
   61.6600   47.5340   97.2180 H   0  0  0  0  0
   63.3740   47.0390   96.4940 H   0  0  0  0  0
   62.0610   45.3510   95.1930 H   0  0  0  0  0
   60.1250   44.4600   94.6110 H   0  0  0  0  0
   58.8860   44.6750   98.2030 H   0  0  0  0  0
   60.7840   45.5510   98.7880 H   0  0  0  0  0
   66.6860   49.2660   97.2200 H   0  0  0  0  0
   68.1510   51.9230   96.8120 H   0  0  0  0  0
   67.7120   50.3050   95.9810 H   0  0  0  0  0
   68.2070   50.3270   97.7630 H   0  0  0  0  0
   64.0130   51.3920   97.9970 H   0  0  0  0  0
   66.0400   53.5980   97.4280 H   0  0  0  0  0
   64.8490   52.9480   98.7150 H   0  0  0  0  0
   64.3710   52.9510   96.9280 H   0  0  0  0  0
  1  2  2  0  0  0
  1 18  1  0  0  0
  1  8  1  0  0  0
  2  3  1  0  0  0
  2 26  1  0  0  0
  3  4  2  0  0  0
  3 27  1  0  0  0
  4  5  1  0  0  0
  4  7  1  0  0  0
  5  9  1  0  0  0
  5  6  2  0  0  0
  7  8  2  0  0  0
  7 28  1  0  0  0
  8 29  1  0  0  0
  9 10  1  0  0  0
  9 30  1  0  0  0
  9 31  1  0  0  0
 10 11  1  0  0  0
 11 12  2  0  0  0
 11 17  1  0  0  0
 12 13  1  0  0  0
 12 32  1  0  0  0
 13 14  2  0  0  0
 13 33  1  0  0  0
 14 15  1  0  0  0
 14 16  1  0  0  0
 16 17  2  0  0  0
 16 34  1  0  0  0
 17 35  1  0  0  0
 18 19  2  0  0  0
 18 24  1  0  0  0
 19 20  1  0  0  0
 19 36  1  0  0  0
 20 22  1  0  0  0
 20 21  2  0  0  0
 21 23  1  0  0  0
 22 37  1  0  0  0
 22 38  1  0  0  0
 22 39  1  0  0  0
 23 25  1  0  0  0
 23 24  2  0  0  0
 24 40  1  0  0  0
 25 41  1  0  0  0
 25 42  1  0  0  0
 25 43  1  0  0  0
M  CHG  1   6  -1
M  END
>  <COMPND>
    ligand_BC.pdb 

>  <AUTHOR>
    GENERATED BY OPEN BABEL 2.2.1

>  <MASTER>
        0    0    0    0    0    0    0    0   43    0   43    0

$$$$
PMC1IJY_out_4.pdb_27139_ChemDiv_5607-0.pdb
 OpenBabel06131016173D

 43 45  0  0  0  0  0  0  0  0999 V2000
   64.6790   49.5680   97.7040 C   0  0  0  0  0
   64.1140   49.2370   96.9040 C   0  0  0  0  0
   63.5080   48.4420   97.0200 C   0  0  0  0  0
   63.4400   47.9590   97.9080 N   0  0  0  0  0
   62.8280   47.1550   98.0280 C   0  0  0  0  0
   62.7580   46.5460   99.1910 O   0  0  0  0  0
   64.0050   48.2910   98.7090 C   0  0  0  0  0
   64.6230   49.0970   98.6000 C   0  0  0  0  0
   62.4900   46.9800   97.4980 C   0  0  0  0  0
   62.3880   45.9810   97.3300 O   0  0  0  0  0
   61.8500   45.6600   96.5830 C   0  0  0  0  0
   62.2680   45.5270   95.6610 C   0  0  0  0  0
   61.6990   45.1990   94.9130 C   0  0  0  0  0
   60.7240   44.9970   95.0480 C   0  0  0  0  0
   60.3090   45.1250   95.9470 C   0  0  0  0  0
   60.8610   45.4640   96.7540 C   0  0  0  0  0
   65.2950   50.3710   97.5990 N   0  0  0  0  0
   66.2200   50.2450   97.3190 C   0  0  0  0  0
   66.8180   51.0250   97.2170 C   0  0  0  0  0
   66.4720   51.9250   97.3990 O   0  0  0  0  0
   67.7070   50.9050   96.9480 C   0  0  0  0  0
   65.5460   52.0500   97.6790 C   0  0  0  0  0
   64.9460   51.2790   97.7830 C   0  0  0  0  0
   65.1850   52.9480   97.8650 C   0  0  0  0  0
   64.1750   49.7510   95.9320 H   0  0  0  0  0
   62.9080   48.0910   96.1660 H   0  0  0  0  0
   63.9400   47.7750   99.6800 H   0  0  0  0  0
   65.2250   49.4520   99.4510 H   0  0  0  0  0
   61.4550   47.4560   97.5440 H   0  0  0  0  0
   63.1150   47.3560   96.6220 H   0  0  0  0  0
   63.3350   45.7440   95.4960 H   0  0  0  0  0
   62.1470   45.0550   93.9170 H   0  0  0  0  0
   60.1140   44.6350   94.2050 H   0  0  0  0  0
   59.2390   44.9000   96.0830 H   0  0  0  0  0
   60.4060   45.6070   97.7470 H   0  0  0  0  0
   66.6000   49.2310   97.1160 H   0  0  0  0  0
   67.9100   49.7950   96.7890 H   0  0  0  0  0
   68.4170   51.3270   97.7330 H   0  0  0  0  0
   67.8810   51.4620   95.9690 H   0  0  0  0  0
   63.9010   51.4230   98.1000 H   0  0  0  0  0
   66.0000   53.7280   97.6990 H   0  0  0  0  0
   64.7970   53.0040   98.9360 H   0  0  0  0  0
   64.3170   53.1570   97.1560 H   0  0  0  0  0
  1  2  2  0  0  0
  1 17  1  0  0  0
  1  8  1  0  0  0
  2  3  1  0  0  0
  2 25  1  0  0  0
  3  4  2  0  0  0
  3 26  1  0  0  0
  4  5  1  0  0  0
  4  7  1  0  0  0
  5  9  1  0  0  0
  5  6  2  0  0  0
  7  8  2  0  0  0
  7 27  1  0  0  0
  8 28  1  0  0  0
  9 10  1  0  0  0
  9 29  1  0  0  0
  9 30  1  0  0  0
 10 11  1  0  0  0
 11 12  2  0  0  0
 11 16  1  0  0  0
 12 13  1  0  0  0
 12 31  1  0  0  0
 13 14  2  0  0  0
 13 32  1  0  0  0
 14 15  1  0  0  0
 14 33  1  0  0  0
 15 16  2  0  0  0
 15 34  1  0  0  0
 16 35  1  0  0  0
 17 18  2  0  0  0
 17 23  1  0  0  0
 18 19  1  0  0  0
 18 36  1  0  0  0
 19 21  1  0  0  0
 19 20  2  0  0  0
 20 22  1  0  0  0
 21 37  1  0  0  0
 21 38  1  0  0  0
 21 39  1  0  0  0
 22 23  2  0  0  0
 22 24  1  0  0  0
 23 40  1  0  0  0
 24 41  1  0  0  0
 24 42  1  0  0  0
 24 43  1  0  0  0
M  CHG  1   6  -1
M  END
>  <COMPND>
    ligand_BC.pdb 

>  <AUTHOR>
    GENERATED BY OPEN BABEL 2.2.1

>  <MASTER>
        0    0    0    0    0    0    0    0   43    0   43    0

$$$$
PMC1IJY_out_4.pdb_27141_ChemDiv_5607-0.pdb
 OpenBabel06131016173D

 45 47  0  0  0  0  0  0  0  0999 V2000
   60.3830   45.2320   96.8180 N   0  0  0  0  0
   59.8270   44.9510   97.5460 C   0  0  0  0  0
   59.2720   44.0360   97.4850 O   0  0  0  0  0
   60.4380   44.6780   96.0240 C   0  0  0  0  0
   60.9840   44.9410   95.2910 C   0  0  0  0  0
   61.4750   45.7500   95.3470 C   0  0  0  0  0
   61.4200   46.3050   96.1410 C   0  0  0  0  0
   60.8770   46.0340   96.8580 C   0  0  0  0  0
   59.7910   45.6040   98.4270 C   0  0  0  0  0
   59.9640   45.2030   99.3900 O   0  0  0  0  0
   60.1950   45.7470  100.2770 C   0  0  0  0  0
   60.4530   46.8330  100.2110 C   0  0  0  0  0
   60.6890   47.3790  101.1380 C   0  0  0  0  0
   60.6760   46.8720  102.1360 C   0  0  0  0  0
   60.4290   45.8340  102.1890 C   0  0  0  0  0
   60.9080   47.4070  103.0510 C   0  0  0  0  0
   60.1930   45.2870  101.2700 C   0  0  0  0  0
   62.0240   46.0190   94.6170 N   0  0  0  0  0
   62.8900   45.7470   94.5770 C   0  0  0  0  0
   63.5040   45.9480   93.9190 C   0  0  0  0  0
   63.4070   46.4400   93.1870 C   0  0  0  0  0
   62.6650   46.9000   92.8580 C   0  0  0  0  0
   61.8370   46.9130   93.2920 C   0  0  0  0  0
   61.5490   46.5380   94.0490 C   0  0  0  0  0
   59.8650   43.7390   95.9710 H   0  0  0  0  0
   61.0450   44.3130   94.3880 H   0  0  0  0  0
   61.9900   47.2460   96.2010 H   0  0  0  0  0
   60.8160   46.6630   97.7600 H   0  0  0  0  0
   58.7860   46.1420   98.4360 H   0  0  0  0  0
   60.7020   46.2720   98.2730 H   0  0  0  0  0
   60.4710   47.3470   99.2370 H   0  0  0  0  0
   60.9440   48.4490  101.0820 H   0  0  0  0  0
   60.4120   45.3170  103.1620 H   0  0  0  0  0
   61.1460   48.4950  102.8060 H   0  0  0  0  0
   61.7920   46.9190  103.5800 H   0  0  0  0  0
   60.0060   47.3680  103.7470 H   0  0  0  0  0
   59.9400   44.2180  101.3490 H   0  0  0  0  0
   63.3710   46.0050   95.5780 H   0  0  0  0  0
   62.6940   44.6660   94.2740 H   0  0  0  0  0
   64.5060   45.5130   94.0630 H   0  0  0  0  0
   64.3120   46.5210   92.5640 H   0  0  0  0  0
   62.4910   46.5610   91.7830 H   0  0  0  0  0
   63.0010   47.9750   93.0320 H   0  0  0  0  0
   61.0690   47.5050   92.7690 H   0  0  0  0  0
   60.4990   46.7280   94.3210 H   0  0  0  0  0
  1  4  2  0  0  0
  1  8  1  0  0  0
  1  2  1  0  0  0
  2  3  2  0  0  0
  2  9  1  0  0  0
  4  5  1  0  0  0
  4 25  1  0  0  0
  5  6  2  0  0  0
  5 26  1  0  0  0
  6 18  1  0  0  0
  6  7  1  0  0  0
  7  8  2  0  0  0
  7 27  1  0  0  0
  8 28  1  0  0  0
  9 10  1  0  0  0
  9 29  1  0  0  0
  9 30  1  0  0  0
 10 11  1  0  0  0
 11 12  2  0  0  0
 11 17  1  0  0  0
 12 13  1  0  0  0
 12 31  1  0  0  0
 13 14  2  0  0  0
 13 32  1  0  0  0
 14 15  1  0  0  0
 14 16  1  0  0  0
 15 17  2  0  0  0
 15 33  1  0  0  0
 16 34  1  0  0  0
 16 35  1  0  0  0
 16 36  1  0  0  0
 17 37  1  0  0  0
 18 24  1  0  0  0
 18 19  1  0  0  0
 19 20  1  0  0  0
 19 38  1  0  0  0
 19 39  1  0  0  0
 20 21  2  0  0  0
 20 40  1  0  0  0
 21 22  1  0  0  0
 21 41  1  0  0  0
 22 23  1  0  0  0
 22 42  1  0  0  0
 22 43  1  0  0  0
 23 24  2  0  0  0
 23 44  1  0  0  0
 24 45  1  0  0  0
M  CHG  1   3  -1
M  END
>  <COMPND>
    ligand_BC.pdb 

>  <AUTHOR>
    GENERATED BY OPEN BABEL 2.2.1

>  <MASTER>
        0    0    0    0    0    0    0    0   45    0   45    0

$$$$
PMC1IJY_out_4.pdb_27139_ChemDiv_5607-0.pdb
 OpenBabel06131016173D

 43 45  0  0  0  0  0  0  0  0999 V2000
   64.6790   49.5680   97.7040 C   0  0  0  0  0
   64.1140   49.2370   96.9040 C   0  0  0  0  0
   63.5080   48.4420   97.0200 C   0  0  0  0  0
   63.4400   47.9590   97.9080 N   0  0  0  0  0
   62.8280   47.1550   98.0280 C   0  0  0  0  0
   62.7580   46.5460   99.1910 O   0  0  0  0  0
   64.0050   48.2910   98.7090 C   0  0  0  0  0
   64.6230   49.0970   98.6000 C   0  0  0  0  0
   62.4900   46.9800   97.4980 C   0  0  0  0  0
   62.3880   45.9810   97.3300 O   0  0  0  0  0
   61.8500   45.6600   96.5830 C   0  0  0  0  0
   62.2680   45.5270   95.6610 C   0  0  0  0  0
   61.6990   45.1990   94.9130 C   0  0  0  0  0
   60.7240   44.9970   95.0480 C   0  0  0  0  0
   60.3090   45.1250   95.9470 C   0  0  0  0  0
   60.8610   45.4640   96.7540 C   0  0  0  0  0
   65.2950   50.3710   97.5990 N   0  0  0  0  0
   66.2200   50.2450   97.3190 C   0  0  0  0  0
   66.8180   51.0250   97.2170 C   0  0  0  0  0
   66.4720   51.9250   97.3990 O   0  0  0  0  0
   67.7070   50.9050   96.9480 C   0  0  0  0  0
   65.5460   52.0500   97.6790 C   0  0  0  0  0
   64.9460   51.2790   97.7830 C   0  0  0  0  0
   65.1850   52.9480   97.8650 C   0  0  0  0  0
   64.1750   49.7510   95.9320 H   0  0  0  0  0
   62.9080   48.0910   96.1660 H   0  0  0  0  0
   63.9400   47.7750   99.6800 H   0  0  0  0  0
   65.2250   49.4520   99.4510 H   0  0  0  0  0
   61.4550   47.4560   97.5440 H   0  0  0  0  0
   63.1150   47.3560   96.6220 H   0  0  0  0  0
   63.3350   45.7440   95.4960 H   0  0  0  0  0
   62.1470   45.0550   93.9170 H   0  0  0  0  0
   60.1140   44.6350   94.2050 H   0  0  0  0  0
   59.2390   44.9000   96.0830 H   0  0  0  0  0
   60.4060   45.6070   97.7470 H   0  0  0  0  0
   66.6000   49.2310   97.1160 H   0  0  0  0  0
   67.9100   49.7950   96.7890 H   0  0  0  0  0
   68.4170   51.3270   97.7330 H   0  0  0  0  0
   67.8810   51.4620   95.9690 H   0  0  0  0  0
   63.9010   51.4230   98.1000 H   0  0  0  0  0
   66.0000   53.7280   97.6990 H   0  0  0  0  0
   64.7970   53.0040   98.9360 H   0  0  0  0  0
   64.3170   53.1570   97.1560 H   0  0  0  0  0
  1  2  2  0  0  0
  1 17  1  0  0  0
  1  8  1  0  0  0
  2  3  1  0  0  0
  2 25  1  0  0  0
  3  4  2  0  0  0
  3 26  1  0  0  0
  4  5  1  0  0  0
  4  7  1  0  0  0
  5  9  1  0  0  0
  5  6  2  0  0  0
  7  8  2  0  0  0
  7 27  1  0  0  0
  8 28  1  0  0  0
  9 10  1  0  0  0
  9 29  1  0  0  0
  9 30  1  0  0  0
 10 11  1  0  0  0
 11 12  2  0  0  0
 11 16  1  0  0  0
 12 13  1  0  0  0
 12 31  1  0  0  0
 13 14  2  0  0  0
 13 32  1  0  0  0
 14 15  1  0  0  0
 14 33  1  0  0  0
 15 16  2  0  0  0
 15 34  1  0  0  0
 16 35  1  0  0  0
 17 18  2  0  0  0
 17 23  1  0  0  0
 18 19  1  0  0  0
 18 36  1  0  0  0
 19 21  1  0  0  0
 19 20  2  0  0  0
 20 22  1  0  0  0
 21 37  1  0  0  0
 21 38  1  0  0  0
 21 39  1  0  0  0
 22 23  2  0  0  0
 22 24  1  0  0  0
 23 40  1  0  0  0
 24 41  1  0  0  0
 24 42  1  0  0  0
 24 43  1  0  0  0
M  CHG  1   6  -1
M  END
>  <COMPND>
    ligand_BC.pdb 

>  <AUTHOR>
    GENERATED BY OPEN BABEL 2.2.1

>  <MASTER>
        0    0    0    0    0    0    0    0   43    0   43    0

$$$$
PMC1IJY_out_4.pdb_24516_ChemDiv_8015-1.pdb
 OpenBabel06131016433D

 63 69  0  0  0  0  0  0  0  0999 V2000
   62.1640   49.3140   96.8550 C   0  0  0  0  0
   62.0560   48.8230   97.6760 O   0  0  0  0  0
   61.8290   47.8830   97.6500 C   0  0  0  0  0
   61.7120   47.4390   96.8030 C   0  0  0  0  0
   61.8220   47.9350   95.9790 C   0  0  0  0  0
   62.0480   48.8700   96.0080 C   0  0  0  0  0
   62.1560   49.3610   95.1870 C   0  0  0  0  0
   62.4990   50.7410   96.0620 C   0  0  0  0  0
   62.3900   50.2490   96.8830 C   0  0  0  0  0
   61.5950   46.9940   95.9530 C   0  0  0  0  0
   61.4780   46.5540   95.1100 C   0  0  0  0  0
   61.8140   47.9840   94.3150 C   0  0  0  0  0
   61.9300   48.4250   95.1570 C   0  0  0  0  0
   61.4860   46.5040   96.7750 C   0  0  0  0  0
   61.3760   46.0090   97.5980 C   0  0  0  0  0
   61.4930   46.4520   98.4450 C   0  0  0  0  0
   61.7200   47.3920   98.4710 C   0  0  0  0  0
   62.2810   49.7560   97.7010 C   0  0  0  0  0
   63.1500   49.7850   98.1160 C   0  0  0  0  0
   63.2660   50.2280   98.9630 C   0  0  0  0  0
   62.5150   50.6440   99.3970 C   0  0  0  0  0
   61.6460   50.6160   98.9830 C   0  0  0  0  0
   61.5300   50.1730   98.1370 C   0  0  0  0  0
   63.9020   49.3670   97.6810 O   0  0  0  0  0
   64.3980   48.6740   98.1370 C   0  0  0  0  0
   64.0250   47.7910   98.2210 O   0  0  0  0  0
   65.2700   48.8680   98.5080 C   0  0  0  0  0
   62.6320   51.0890  100.2480 O   0  0  0  0  0
   62.8640   52.0210  100.2730 C   0  0  0  0  0
   63.7620   52.3070  100.0650 O   0  0  0  0  0
   62.1940   52.6780  100.5070 C   0  0  0  0  0
   61.3840   45.9590   99.2630 O   0  0  0  0  0
   60.5430   45.9740   99.7270 C   0  0  0  0  0
   59.7810   45.5170   99.3560 O   0  0  0  0  0
   60.4570   46.4450  100.5650 C   0  0  0  0  0
   62.0880   48.9530   97.6790 H   0  0  0  0  0
   61.4410   50.1850   94.8560 H   0  0  0  0  0
   62.9820   50.0050   94.7370 H   0  0  0  0  0
   62.6530   51.8310   96.0900 H   0  0  0  0  0
   62.4700   50.2130   95.0960 H   0  0  0  0  0
   62.1320   45.6210   95.0740 H   0  0  0  0  0
   61.7480   47.2590   94.2560 H   0  0  0  0  0
   60.3850   46.2500   94.9940 H   0  0  0  0  0
   60.9330   48.4490   93.7600 H   0  0  0  0  0
   61.6360   46.8690   94.4740 H   0  0  0  0  0
   62.7600   48.1120   93.6910 H   0  0  0  0  0
   61.2180   45.3960   96.7440 H   0  0  0  0  0
   61.1170   44.9390   97.5670 H   0  0  0  0  0
   61.8540   47.9000   99.4390 H   0  0  0  0  0
   62.3210   49.0100   98.2260 H   0  0  0  0  0
   62.9190   50.6550   97.4170 H   0  0  0  0  0
   64.2600   50.2590   99.4360 H   0  0  0  0  0
   60.7850   51.0910   99.4780 H   0  0  0  0  0
   60.5350   50.1420   97.6650 H   0  0  0  0  0
   65.5350   49.9590   98.3080 H   0  0  0  0  0
   66.0560   48.1810   98.0500 H   0  0  0  0  0
   65.2470   48.6890   99.6340 H   0  0  0  0  0
   62.6570   53.7190  100.4820 H   0  0  0  0  0
   61.7710   52.4590  101.5430 H   0  0  0  0  0
   61.3410   52.6290   99.7520 H   0  0  0  0  0
   61.4570   46.9190  100.8400 H   0  0  0  0  0
   60.1200   45.7300  101.3870 H   0  0  0  0  0
   59.6720   47.2640  100.4560 H   0  0  0  0  0
  1  6  1  0  0  0
  1  9  1  0  0  0
  1  2  1  0  0  0
  1 18  1  0  0  0
  2 18  1  0  0  0
  3  4  1  0  0  0
  3 17  2  0  0  0
  3 36  1  0  0  0
  4 10  1  0  0  0
  4  5  1  0  0  0
  4 14  1  0  0  0
  5 13  1  0  0  0
  5 10  1  0  0  0
  5  6  1  0  0  0
  6 13  1  0  0  0
  6  7  1  0  0  0
  7 13  1  0  0  0
  7 37  1  0  0  0
  7 38  1  0  0  0
  8  9  2  0  0  0
  8 39  1  0  0  0
  8 40  1  0  0  0
  9 18  1  0  0  0
 10 11  1  0  0  0
 10 14  1  0  0  0
 11 41  1  0  0  0
 11 42  1  0  0  0
 11 43  1  0  0  0
 12 13  1  0  0  0
 12 44  1  0  0  0
 12 45  1  0  0  0
 12 46  1  0  0  0
 14 15  1  0  0  0
 14 47  1  0  0  0
 15 16  2  0  0  0
 15 48  1  0  0  0
 16 17  1  0  0  0
 16 32  1  0  0  0
 17 49  1  0  0  0
 18 23  1  0  0  0
 19 24  1  0  0  0
 19 20  1  0  0  0
 19 50  1  0  0  0
 19 51  1  0  0  0
 20 21  2  0  0  0
 20 52  1  0  0  0
 21 22  1  0  0  0
 21 28  1  0  0  0
 22 23  2  0  0  0
 22 53  1  0  0  0
 23 54  1  0  0  0
 24 25  1  0  0  0
 25 26  2  0  0  0
 25 27  1  0  0  0
 27 55  1  0  0  0
 27 56  1  0  0  0
 27 57  1  0  0  0
 28 29  1  0  0  0
 29 30  2  0  0  0
 29 31  1  0  0  0
 31 58  1  0  0  0
 31 59  1  0  0  0
 31 60  1  0  0  0
 32 33  1  0  0  0
 33 34  2  0  0  0
 33 35  1  0  0  0
 35 61  1  0  0  0
 35 62  1  0  0  0
 35 63  1  0  0  0
M  CHG  3  26  -1  30  -1  34  -1
M  END
>  <COMPND>
    ligand_BC.pdb 

>  <AUTHOR>
    GENERATED BY OPEN BABEL 2.2.1

>  <MASTER>
        0    0    0    0    0    0    0    0   63    0   63    0

$$$$
PMC1IJY_out_4.pdb_24172_ChemDiv_E981-2.pdb
 OpenBabel06131016433D

 61 65  0  0  0  0  0  0  0  0999 V2000
   63.8120   49.7390   97.5240 C   0  0  0  0  0
   64.4670   50.3090   98.0230 N   0  0  0  0  0
   64.2230   50.2600   98.9980 N   0  0  0  0  0
   63.4260   49.6650   99.0920 C   0  0  0  0  0
   63.1690   49.3410   98.1840 C   0  0  0  0  0
   62.4400   48.7410   97.8730 C   0  0  0  0  0
   62.3530   48.5370   96.9050 C   0  0  0  0  0
   62.9960   48.9350   96.2450 C   0  0  0  0  0
   63.7240   49.5350   96.5550 N   0  0  0  0  0
   62.9700   49.4380   99.9500 C   0  0  0  0  0
   61.8050   48.3480   98.5260 C   0  0  0  0  0
   61.9290   47.4160   98.8510 N   0  0  0  0  0
   61.0350   48.8810   98.8640 O   0  0  0  0  0
   61.2930   47.0130   99.5090 C   0  0  0  0  0
   61.4440   47.1400  100.4730 C   0  0  0  0  0
   60.8170   46.7430  101.1370 C   0  0  0  0  0
   60.0340   46.2150  100.8120 C   0  0  0  0  0
   59.8850   46.0900   99.8520 C   0  0  0  0  0
   60.5280   46.4970   99.1710 C   0  0  0  0  0
   60.9770   46.8770  102.1130 O   0  0  0  0  0
   60.5580   47.6660  102.5800 C   0  0  0  0  0
   60.8210   47.8860  103.5370 C   0  0  0  0  0
   60.3700   46.3650   98.1930 O   0  0  0  0  0
   60.6510   45.5070   97.7420 C   0  0  0  0  0
   60.3230   45.3140   96.7990 C   0  0  0  0  0
   62.9020   48.7260   95.2670 C   0  0  0  0  0
   62.5610   48.9780   94.3530 C   0  0  0  0  0
   63.0760   48.1170   94.4830 C   0  0  0  0  0
   65.2230   50.8320   97.6360 C   0  0  0  0  0
   66.1340   50.4220   97.5640 C   0  0  0  0  0
   66.8800   50.9520   97.1770 C   0  0  0  0  0
   66.7280   51.8920   96.8590 C   0  0  0  0  0
   65.8020   52.2920   96.9390 C   0  0  0  0  0
   67.4690   52.4150   96.4760 C   0  0  0  0  0
   65.0530   51.7600   97.3270 C   0  0  0  0  0
   61.5480   47.8720   96.5540 H   0  0  0  0  0
   62.0930   48.7400   99.7420 H   0  0  0  0  0
   62.6050   50.3870  100.4660 H   0  0  0  0  0
   63.7100   48.9140  100.6410 H   0  0  0  0  0
   62.7640   46.8300   98.4870 H   0  0  0  0  0
   62.3110   47.7240  100.8190 H   0  0  0  0  0
   59.3340   45.7710  101.5370 H   0  0  0  0  0
   59.0180   45.5060   99.5050 H   0  0  0  0  0
   59.8170   48.2890  102.0540 H   0  0  0  0  0
   61.5620   47.2630  104.0620 H   0  0  0  0  0
   60.3650   48.7480  104.0490 H   0  0  0  0  0
   61.3040   44.7900   98.2640 H   0  0  0  0  0
   59.6700   46.0370   96.2840 H   0  0  0  0  0
   60.6200   44.3820   96.2920 H   0  0  0  0  0
   63.0150   48.9540   96.3780 H   0  0  0  0  0
   61.4530   49.0090   94.0860 H   0  0  0  0  0
   62.6660   49.8880   93.6740 H   0  0  0  0  0
   64.1150   47.9380   94.0490 H   0  0  0  0  0
   62.8820   47.0170   94.2560 H   0  0  0  0  0
   66.3080   49.3910   97.9110 H   0  0  0  0  0
   67.8830   50.5040   97.0960 H   0  0  0  0  0
   65.6200   53.3220   96.5950 H   0  0  0  0  0
   67.0910   53.4490   96.1790 H   0  0  0  0  0
   67.9040   51.8780   95.5690 H   0  0  0  0  0
   68.2920   52.5270   97.2570 H   0  0  0  0  0
   64.0460   52.1980   97.4120 H   0  0  0  0  0
  1  9  2  0  0  0
  1  2  1  0  0  0
  1  5  1  0  0  0
  2 29  1  0  0  0
  2  3  1  0  0  0
  3  4  2  0  0  0
  4  5  1  0  0  0
  4 10  1  0  0  0
  5  6  2  0  0  0
  6  7  1  0  0  0
  6 11  1  0  0  0
  7  8  2  0  0  0
  7 36  1  0  0  0
  8 26  1  0  0  0
  8  9  1  0  0  0
 10 37  1  0  0  0
 10 38  1  0  0  0
 10 39  1  0  0  0
 11 12  1  0  0  0
 11 13  2  0  0  0
 12 14  1  0  0  0
 12 40  1  0  0  0
 14 19  2  0  0  0
 14 15  1  0  0  0
 15 16  2  0  0  0
 15 41  1  0  0  0
 16 17  1  0  0  0
 16 20  1  0  0  0
 17 18  2  0  0  0
 17 42  1  0  0  0
 18 19  1  0  0  0
 18 43  1  0  0  0
 19 23  1  0  0  0
 20 21  1  0  0  0
 21 22  2  0  0  0
 21 44  1  0  0  0
 22 45  1  0  0  0
 22 46  1  0  0  0
 23 24  1  0  0  0
 24 25  2  0  0  0
 24 47  1  0  0  0
 25 48  1  0  0  0
 25 49  1  0  0  0
 26 27  1  0  0  0
 26 28  1  0  0  0
 26 50  1  0  0  0
 27 28  1  0  0  0
 27 51  1  0  0  0
 27 52  1  0  0  0
 28 53  1  0  0  0
 28 54  1  0  0  0
 29 35  2  0  0  0
 29 30  1  0  0  0
 30 31  2  0  0  0
 30 55  1  0  0  0
 31 32  1  0  0  0
 31 56  1  0  0  0
 32 34  1  0  0  0
 32 33  2  0  0  0
 33 35  1  0  0  0
 33 57  1  0  0  0
 34 58  1  0  0  0
 34 59  1  0  0  0
 34 60  1  0  0  0
 35 61  1  0  0  0
M  CHG  1  13  -1
M  END
>  <COMPND>
    ligand_BC.pdb 

>  <AUTHOR>
    GENERATED BY OPEN BABEL 2.2.1

>  <MASTER>
        0    0    0    0    0    0    0    0   61    0   61    0

$$$$
PMC1IJY_out_4.pdb_24516_ChemDiv_8015-1.pdb
 OpenBabel06131016433D

 63 69  0  0  0  0  0  0  0  0999 V2000
   62.1640   49.3140   96.8550 C   0  0  0  0  0
   62.0560   48.8230   97.6760 O   0  0  0  0  0
   61.8290   47.8830   97.6500 C   0  0  0  0  0
   61.7120   47.4390   96.8030 C   0  0  0  0  0
   61.8220   47.9350   95.9790 C   0  0  0  0  0
   62.0480   48.8700   96.0080 C   0  0  0  0  0
   62.1560   49.3610   95.1870 C   0  0  0  0  0
   62.4990   50.7410   96.0620 C   0  0  0  0  0
   62.3900   50.2490   96.8830 C   0  0  0  0  0
   61.5950   46.9940   95.9530 C   0  0  0  0  0
   61.4780   46.5540   95.1100 C   0  0  0  0  0
   61.8140   47.9840   94.3150 C   0  0  0  0  0
   61.9300   48.4250   95.1570 C   0  0  0  0  0
   61.4860   46.5040   96.7750 C   0  0  0  0  0
   61.3760   46.0090   97.5980 C   0  0  0  0  0
   61.4930   46.4520   98.4450 C   0  0  0  0  0
   61.7200   47.3920   98.4710 C   0  0  0  0  0
   62.2810   49.7560   97.7010 C   0  0  0  0  0
   63.1500   49.7850   98.1160 C   0  0  0  0  0
   63.2660   50.2280   98.9630 C   0  0  0  0  0
   62.5150   50.6440   99.3970 C   0  0  0  0  0
   61.6460   50.6160   98.9830 C   0  0  0  0  0
   61.5300   50.1730   98.1370 C   0  0  0  0  0
   63.9020   49.3670   97.6810 O   0  0  0  0  0
   64.3980   48.6740   98.1370 C   0  0  0  0  0
   64.0250   47.7910   98.2210 O   0  0  0  0  0
   65.2700   48.8680   98.5080 C   0  0  0  0  0
   62.6320   51.0890  100.2480 O   0  0  0  0  0
   62.8640   52.0210  100.2730 C   0  0  0  0  0
   63.7620   52.3070  100.0650 O   0  0  0  0  0
   62.1940   52.6780  100.5070 C   0  0  0  0  0
   61.3840   45.9590   99.2630 O   0  0  0  0  0
   60.5430   45.9740   99.7270 C   0  0  0  0  0
   59.7810   45.5170   99.3560 O   0  0  0  0  0
   60.4570   46.4450  100.5650 C   0  0  0  0  0
   62.0880   48.9530   97.6790 H   0  0  0  0  0
   61.4410   50.1850   94.8560 H   0  0  0  0  0
   62.9820   50.0050   94.7370 H   0  0  0  0  0
   62.6530   51.8310   96.0900 H   0  0  0  0  0
   62.4700   50.2130   95.0960 H   0  0  0  0  0
   62.1320   45.6210   95.0740 H   0  0  0  0  0
   61.7480   47.2590   94.2560 H   0  0  0  0  0
   60.3850   46.2500   94.9940 H   0  0  0  0  0
   60.9330   48.4490   93.7600 H   0  0  0  0  0
   61.6360   46.8690   94.4740 H   0  0  0  0  0
   62.7600   48.1120   93.6910 H   0  0  0  0  0
   61.2180   45.3960   96.7440 H   0  0  0  0  0
   61.1170   44.9390   97.5670 H   0  0  0  0  0
   61.8540   47.9000   99.4390 H   0  0  0  0  0
   62.3210   49.0100   98.2260 H   0  0  0  0  0
   62.9190   50.6550   97.4170 H   0  0  0  0  0
   64.2600   50.2590   99.4360 H   0  0  0  0  0
   60.7850   51.0910   99.4780 H   0  0  0  0  0
   60.5350   50.1420   97.6650 H   0  0  0  0  0
   65.5350   49.9590   98.3080 H   0  0  0  0  0
   66.0560   48.1810   98.0500 H   0  0  0  0  0
   65.2470   48.6890   99.6340 H   0  0  0  0  0
   62.6570   53.7190  100.4820 H   0  0  0  0  0
   61.7710   52.4590  101.5430 H   0  0  0  0  0
   61.3410   52.6290   99.7520 H   0  0  0  0  0
   61.4570   46.9190  100.8400 H   0  0  0  0  0
   60.1200   45.7300  101.3870 H   0  0  0  0  0
   59.6720   47.2640  100.4560 H   0  0  0  0  0
  1  6  1  0  0  0
  1  9  1  0  0  0
  1  2  1  0  0  0
  1 18  1  0  0  0
  2 18  1  0  0  0
  3  4  1  0  0  0
  3 17  2  0  0  0
  3 36  1  0  0  0
  4 10  1  0  0  0
  4  5  1  0  0  0
  4 14  1  0  0  0
  5 13  1  0  0  0
  5 10  1  0  0  0
  5  6  1  0  0  0
  6 13  1  0  0  0
  6  7  1  0  0  0
  7 13  1  0  0  0
  7 37  1  0  0  0
  7 38  1  0  0  0
  8  9  2  0  0  0
  8 39  1  0  0  0
  8 40  1  0  0  0
  9 18  1  0  0  0
 10 11  1  0  0  0
 10 14  1  0  0  0
 11 41  1  0  0  0
 11 42  1  0  0  0
 11 43  1  0  0  0
 12 13  1  0  0  0
 12 44  1  0  0  0
 12 45  1  0  0  0
 12 46  1  0  0  0
 14 15  1  0  0  0
 14 47  1  0  0  0
 15 16  2  0  0  0
 15 48  1  0  0  0
 16 17  1  0  0  0
 16 32  1  0  0  0
 17 49  1  0  0  0
 18 23  1  0  0  0
 19 24  1  0  0  0
 19 20  1  0  0  0
 19 50  1  0  0  0
 19 51  1  0  0  0
 20 21  2  0  0  0
 20 52  1  0  0  0
 21 22  1  0  0  0
 21 28  1  0  0  0
 22 23  2  0  0  0
 22 53  1  0  0  0
 23 54  1  0  0  0
 24 25  1  0  0  0
 25 26  2  0  0  0
 25 27  1  0  0  0
 27 55  1  0  0  0
 27 56  1  0  0  0
 27 57  1  0  0  0
 28 29  1  0  0  0
 29 30  2  0  0  0
 29 31  1  0  0  0
 31 58  1  0  0  0
 31 59  1  0  0  0
 31 60  1  0  0  0
 32 33  1  0  0  0
 33 34  2  0  0  0
 33 35  1  0  0  0
 35 61  1  0  0  0
 35 62  1  0  0  0
 35 63  1  0  0  0
M  CHG  3  26  -1  30  -1  34  -1
M  END
>  <COMPND>
    ligand_BC.pdb 

>  <AUTHOR>
    GENERATED BY OPEN BABEL 2.2.1

>  <MASTER>
        0    0    0    0    0    0    0    0   63    0   63    0

$$$$
PMC1IJY_out_4.pdb_24172_ChemDiv_E981-2.pdb
 OpenBabel06131016433D

 61 65  0  0  0  0  0  0  0  0999 V2000
   63.8120   49.7390   97.5240 C   0  0  0  0  0
   64.4670   50.3090   98.0230 N   0  0  0  0  0
   64.2230   50.2600   98.9980 N   0  0  0  0  0
   63.4260   49.6650   99.0920 C   0  0  0  0  0
   63.1690   49.3410   98.1840 C   0  0  0  0  0
   62.4400   48.7410   97.8730 C   0  0  0  0  0
   62.3530   48.5370   96.9050 C   0  0  0  0  0
   62.9960   48.9350   96.2450 C   0  0  0  0  0
   63.7240   49.5350   96.5550 N   0  0  0  0  0
   62.9700   49.4380   99.9500 C   0  0  0  0  0
   61.8050   48.3480   98.5260 C   0  0  0  0  0
   61.9290   47.4160   98.8510 N   0  0  0  0  0
   61.0350   48.8810   98.8640 O   0  0  0  0  0
   61.2930   47.0130   99.5090 C   0  0  0  0  0
   61.4440   47.1400  100.4730 C   0  0  0  0  0
   60.8170   46.7430  101.1370 C   0  0  0  0  0
   60.0340   46.2150  100.8120 C   0  0  0  0  0
   59.8850   46.0900   99.8520 C   0  0  0  0  0
   60.5280   46.4970   99.1710 C   0  0  0  0  0
   60.9770   46.8770  102.1130 O   0  0  0  0  0
   60.5580   47.6660  102.5800 C   0  0  0  0  0
   60.8210   47.8860  103.5370 C   0  0  0  0  0
   60.3700   46.3650   98.1930 O   0  0  0  0  0
   60.6510   45.5070   97.7420 C   0  0  0  0  0
   60.3230   45.3140   96.7990 C   0  0  0  0  0
   62.9020   48.7260   95.2670 C   0  0  0  0  0
   62.5610   48.9780   94.3530 C   0  0  0  0  0
   63.0760   48.1170   94.4830 C   0  0  0  0  0
   65.2230   50.8320   97.6360 C   0  0  0  0  0
   66.1340   50.4220   97.5640 C   0  0  0  0  0
   66.8800   50.9520   97.1770 C   0  0  0  0  0
   66.7280   51.8920   96.8590 C   0  0  0  0  0
   65.8020   52.2920   96.9390 C   0  0  0  0  0
   67.4690   52.4150   96.4760 C   0  0  0  0  0
   65.0530   51.7600   97.3270 C   0  0  0  0  0
   61.5480   47.8720   96.5540 H   0  0  0  0  0
   62.0930   48.7400   99.7420 H   0  0  0  0  0
   62.6050   50.3870  100.4660 H   0  0  0  0  0
   63.7100   48.9140  100.6410 H   0  0  0  0  0
   62.7640   46.8300   98.4870 H   0  0  0  0  0
   62.3110   47.7240  100.8190 H   0  0  0  0  0
   59.3340   45.7710  101.5370 H   0  0  0  0  0
   59.0180   45.5060   99.5050 H   0  0  0  0  0
   59.8170   48.2890  102.0540 H   0  0  0  0  0
   61.5620   47.2630  104.0620 H   0  0  0  0  0
   60.3650   48.7480  104.0490 H   0  0  0  0  0
   61.3040   44.7900   98.2640 H   0  0  0  0  0
   59.6700   46.0370   96.2840 H   0  0  0  0  0
   60.6200   44.3820   96.2920 H   0  0  0  0  0
   63.0150   48.9540   96.3780 H   0  0  0  0  0
   61.4530   49.0090   94.0860 H   0  0  0  0  0
   62.6660   49.8880   93.6740 H   0  0  0  0  0
   64.1150   47.9380   94.0490 H   0  0  0  0  0
   62.8820   47.0170   94.2560 H   0  0  0  0  0
   66.3080   49.3910   97.9110 H   0  0  0  0  0
   67.8830   50.5040   97.0960 H   0  0  0  0  0
   65.6200   53.3220   96.5950 H   0  0  0  0  0
   67.0910   53.4490   96.1790 H   0  0  0  0  0
   67.9040   51.8780   95.5690 H   0  0  0  0  0
   68.2920   52.5270   97.2570 H   0  0  0  0  0
   64.0460   52.1980   97.4120 H   0  0  0  0  0
  1  9  2  0  0  0
  1  2  1  0  0  0
  1  5  1  0  0  0
  2 29  1  0  0  0
  2  3  1  0  0  0
  3  4  2  0  0  0
  4  5  1  0  0  0
  4 10  1  0  0  0
  5  6  2  0  0  0
  6  7  1  0  0  0
  6 11  1  0  0  0
  7  8  2  0  0  0
  7 36  1  0  0  0
  8 26  1  0  0  0
  8  9  1  0  0  0
 10 37  1  0  0  0
 10 38  1  0  0  0
 10 39  1  0  0  0
 11 12  1  0  0  0
 11 13  2  0  0  0
 12 14  1  0  0  0
 12 40  1  0  0  0
 14 19  2  0  0  0
 14 15  1  0  0  0
 15 16  2  0  0  0
 15 41  1  0  0  0
 16 17  1  0  0  0
 16 20  1  0  0  0
 17 18  2  0  0  0
 17 42  1  0  0  0
 18 19  1  0  0  0
 18 43  1  0  0  0
 19 23  1  0  0  0
 20 21  1  0  0  0
 21 22  2  0  0  0
 21 44  1  0  0  0
 22 45  1  0  0  0
 22 46  1  0  0  0
 23 24  1  0  0  0
 24 25  2  0  0  0
 24 47  1  0  0  0
 25 48  1  0  0  0
 25 49  1  0  0  0
 26 27  1  0  0  0
 26 28  1  0  0  0
 26 50  1  0  0  0
 27 28  1  0  0  0
 27 51  1  0  0  0
 27 52  1  0  0  0
 28 53  1  0  0  0
 28 54  1  0  0  0
 29 35  2  0  0  0
 29 30  1  0  0  0
 30 31  2  0  0  0
 30 55  1  0  0  0
 31 32  1  0  0  0
 31 56  1  0  0  0
 32 34  1  0  0  0
 32 33  2  0  0  0
 33 35  1  0  0  0
 33 57  1  0  0  0
 34 58  1  0  0  0
 34 59  1  0  0  0
 34 60  1  0  0  0
 35 61  1  0  0  0
M  CHG  1  13  -1
M  END
>  <COMPND>
    ligand_BC.pdb 

>  <AUTHOR>
    GENERATED BY OPEN BABEL 2.2.1

>  <MASTER>
        0    0    0    0    0    0    0    0   61    0   61    0

$$$$
PMC1IJY_out_4.pdb_24288_ChemDiv_K284-6.pdb
 OpenBabel06131016433D

 66 68  0  0  0  0  0  0  0  0999 V2000
   62.5480   47.3600   98.1240 N   0  0  0  0  0
   63.0210   48.1630   97.7740 C   0  0  0  0  0
   63.2140   48.2410   96.7920 N   0  0  0  0  0
   62.9310   47.5160   96.1680 C   0  0  0  0  0
   62.4570   46.7130   96.5180 C   0  0  0  0  0
   62.2640   46.6320   97.4930 C   0  0  0  0  0
   61.7910   45.8280   97.8430 O   0  0  0  0  0
   62.1750   45.9880   95.8950 C   0  0  0  0  0
   62.3680   46.0710   94.9250 C   0  0  0  0  0
   62.8420   46.8740   94.5750 C   0  0  0  0  0
   63.1240   47.5980   95.1940 C   0  0  0  0  0
   62.3550   47.2800   99.1030 C   0  0  0  0  0
   61.4510   47.4940   99.4620 C   0  0  0  0  0
   61.2710   47.4670  100.4430 C   0  0  0  0  0
   60.9280   46.6320  100.8570 C   0  0  0  0  0
   60.7470   46.6030  101.8410 C   0  0  0  0  0
   60.9130   47.4160  102.4060 C   0  0  0  0  0
   61.2590   48.2520  101.9820 C   0  0  0  0  0
   61.4370   48.2800  101.0080 C   0  0  0  0  0
   60.3970   45.7530  102.2640 O   0  0  0  0  0
   59.4150   45.5460  102.2150 C   0  0  0  0  0
   60.7320   47.3890  103.4000 O   0  0  0  0  0
   61.4790   47.1920  104.0290 C   0  0  0  0  0
   63.3100   48.8990   98.3970 S   0  0  0  0  0
   62.8120   49.7650   98.4270 C   0  0  0  0  0
   63.1580   50.5240   98.9730 C   0  0  0  0  0
   63.8360   51.1460   98.5910 O   0  0  0  0  0
   62.8240   50.6580   99.9030 N   0  0  0  0  0
   63.1700   51.4200  100.4560 C   0  0  0  0  0
   62.7360   51.6440  101.3250 C   0  0  0  0  0
   63.2520   52.1290  102.0260 O   0  0  0  0  0
   62.7640   52.6160  102.7550 C   0  0  0  0  0
   61.9690   49.8750   97.9110 C   0  0  0  0  0
   61.9860   50.3200   97.0110 C   0  0  0  0  0
   62.0840   45.3400   94.2850 O   0  0  0  0  0
   62.6330   44.5130   94.1920 C   0  0  0  0  0
   63.0390   46.9590   93.5790 O   0  0  0  0  0
   62.4330   47.5000   92.9960 C   0  0  0  0  0
   61.6520   45.0990   96.2810 H   0  0  0  0  0
   63.6470   48.4860   94.8060 H   0  0  0  0  0
   63.1510   46.9520   99.7900 H   0  0  0  0  0
   60.6400   47.7640   98.7670 H   0  0  0  0  0
   60.7470   45.7410  100.2350 H   0  0  0  0  0
   61.4430   49.1450  102.6000 H   0  0  0  0  0
   61.8170   49.2040  100.5440 H   0  0  0  0  0
   59.2080   44.5560  102.7420 H   0  0  0  0  0
   59.0770   45.4930  101.1280 H   0  0  0  0  0
   58.8310   46.3760  102.7340 H   0  0  0  0  0
   61.0880   47.2040  105.1000 H   0  0  0  0  0
   62.3130   47.9600  103.9050 H   0  0  0  0  0
   61.9030   46.1600  103.7960 H   0  0  0  0  0
   64.0300   52.0100  100.1030 H   0  0  0  0  0
   62.3230   50.6840  101.7800 H   0  0  0  0  0
   61.9530   52.4130  101.0190 H   0  0  0  0  0
   63.5180   53.1050  103.4560 H   0  0  0  0  0
   62.0970   51.8950  103.3330 H   0  0  0  0  0
   62.1050   53.4230  102.2910 H   0  0  0  0  0
   61.0170   49.5090   98.3270 H   0  0  0  0  0
   62.9380   50.6860   96.5960 H   0  0  0  0  0
   61.0520   50.4420   96.4390 H   0  0  0  0  0
   62.1490   43.8190   93.4290 H   0  0  0  0  0
   62.7280   43.9870   95.1990 H   0  0  0  0  0
   63.6770   44.7950   93.8330 H   0  0  0  0  0
   62.8160   47.4750   91.9230 H   0  0  0  0  0
   62.3800   48.5750   93.3720 H   0  0  0  0  0
   61.3840   47.0550   93.0300 H   0  0  0  0  0
  1  6  1  0  0  0
  1  2  1  0  0  0
  1 12  1  0  0  0
  2  3  2  0  0  0
  2 24  1  0  0  0
  3  4  1  0  0  0
  4 11  2  0  0  0
  4  5  1  0  0  0
  5  8  2  0  0  0
  5  6  1  0  0  0
  6  7  2  0  0  0
  8  9  1  0  0  0
  8 39  1  0  0  0
  9 35  1  0  0  0
  9 10  2  0  0  0
 10 37  1  0  0  0
 10 11  1  0  0  0
 11 40  1  0  0  0
 12 13  2  0  0  0
 12 41  1  0  0  0
 13 14  1  0  0  0
 13 42  1  0  0  0
 14 15  2  0  0  0
 14 19  1  0  0  0
 15 16  1  0  0  0
 15 43  1  0  0  0
 16 20  1  0  0  0
 16 17  2  0  0  0
 17 18  1  0  0  0
 17 22  1  0  0  0
 18 19  2  0  0  0
 18 44  1  0  0  0
 19 45  1  0  0  0
 20 21  1  0  0  0
 21 46  1  0  0  0
 21 47  1  0  0  0
 21 48  1  0  0  0
 22 23  1  0  0  0
 23 49  1  0  0  0
 23 50  1  0  0  0
 23 51  1  0  0  0
 24 25  2  0  0  0
 25 33  1  0  0  0
 25 26  1  0  0  0
 26 27  2  0  0  0
 26 28  1  0  0  0
 28 29  2  0  0  0
 29 30  1  0  0  0
 29 52  1  0  0  0
 30 31  1  0  0  0
 30 53  1  0  0  0
 30 54  1  0  0  0
 31 32  1  0  0  0
 32 55  1  0  0  0
 32 56  1  0  0  0
 32 57  1  0  0  0
 33 34  2  0  0  0
 33 58  1  0  0  0
 34 59  1  0  0  0
 34 60  1  0  0  0
 35 36  1  0  0  0
 36 61  1  0  0  0
 36 62  1  0  0  0
 36 63  1  0  0  0
 37 38  1  0  0  0
 38 64  1  0  0  0
 38 65  1  0  0  0
 38 66  1  0  0  0
M  CHG  2   7  -1  27  -1
M  END
>  <COMPND>
    ligand_BC.pdb 

>  <AUTHOR>
    GENERATED BY OPEN BABEL 2.2.1

>  <MASTER>
        0    0    0    0    0    0    0    0   66    0   66    0

$$$$
PMC1IJY_out_4.pdb_24288_ChemDiv_K284-6.pdb
 OpenBabel06131016433D

 69 71  0  0  0  0  0  0  0  0999 V2000
   62.6470   49.1080   98.7970 N   0  0  0  0  0
   62.6270   48.3100   98.2010 C   0  0  0  0  0
   62.1590   47.4730   98.5010 N   0  0  0  0  0
   61.7160   47.4420   99.3950 C   0  0  0  0  0
   61.7370   48.2390   99.9910 C   0  0  0  0  0
   62.2000   49.0720   99.6960 C   0  0  0  0  0
   62.2210   49.8700  100.2920 O   0  0  0  0  0
   61.2950   48.2080  100.8830 C   0  0  0  0  0
   60.8340   47.3780  101.1740 C   0  0  0  0  0
   60.8130   46.5800  100.5780 C   0  0  0  0  0
   61.2540   46.6100   99.6890 C   0  0  0  0  0
   63.1130   49.9420   98.5000 C   0  0  0  0  0
   64.0370   50.1460   98.8100 C   0  0  0  0  0
   64.5030   50.9770   98.5140 C   0  0  0  0  0
   65.0810   50.9560   97.7070 C   0  0  0  0  0
   65.5490   51.7890   97.4090 C   0  0  0  0  0
   65.4330   52.6420   97.9250 C   0  0  0  0  0
   64.8490   52.6560   98.7360 C   0  0  0  0  0
   64.3860   51.8300   99.0300 C   0  0  0  0  0
   66.1390   51.7690   96.5870 O   0  0  0  0  0
   67.0960   51.4720   96.6730 C   0  0  0  0  0
   65.9050   53.4850   97.6260 O   0  0  0  0  0
   65.4380   54.1150   97.0110 C   0  0  0  0  0
   63.0710   48.3340   97.2980 S   0  0  0  0  0
   62.5270   48.4460   96.4660 C   0  0  0  0  0
   62.4290   47.6880   95.8270 C   0  0  0  0  0
   63.1450   47.5010   95.1600 O   0  0  0  0  0
   61.6120   47.1170   95.8570 N   0  0  0  0  0
   61.5090   46.3530   95.2150 C   0  0  0  0  0
   60.8300   45.6440   95.3880 C   0  0  0  0  0
   60.3530   45.2170   94.6240 O   0  0  0  0  0
   59.6330   44.5430   94.8020 C   0  0  0  0  0
   62.0830   49.3140   96.2730 C   0  0  0  0  0
   62.4870   49.9470   95.6060 C   0  0  0  0  0
   60.3820   47.3380  102.0790 O   0  0  0  0  0
   60.9100   47.1170  102.8950 C   0  0  0  0  0
   60.3410   45.7300  100.8780 O   0  0  0  0  0
   59.3700   45.6030  100.6750 C   0  0  0  0  0
   61.3170   49.0900  101.5430 H   0  0  0  0  0
   61.2320   45.7270   99.0310 H   0  0  0  0  0
   62.5980   50.6420   97.8230 H   0  0  0  0  0
   64.5510   49.4460   99.4880 H   0  0  0  0  0
   65.2070   50.0190   97.1420 H   0  0  0  0  0
   64.7200   53.5910   99.3040 H   0  0  0  0  0
   63.7430   51.8480   99.9240 H   0  0  0  0  0
   67.6010   51.5140   95.6520 H   0  0  0  0  0
   67.1440   50.4140   97.0940 H   0  0  0  0  0
   67.6420   52.1700   97.3900 H   0  0  0  0  0
   66.1190   55.0010   96.7850 H   0  0  0  0  0
   64.4640   54.4760   97.4810 H   0  0  0  0  0
   65.1910   53.5750   96.0380 H   0  0  0  0  0
   62.8830   48.3040   97.5390 H   0  0  0  0  0
   60.8360   47.3220   96.5830 H   0  0  0  0  0
   61.3270   46.7800   94.1740 H   0  0  0  0  0
   62.4900   45.7890   95.3480 H   0  0  0  0  0
   61.3160   44.8240   96.0140 H   0  0  0  0  0
   59.9960   46.2230   95.9070 H   0  0  0  0  0
   59.2080   44.1700   93.8120 H   0  0  0  0  0
   58.8070   45.0060   95.4360 H   0  0  0  0  0
   60.0770   43.6630   95.3750 H   0  0  0  0  0
   61.1480   49.5820   96.7900 H   0  0  0  0  0
   63.4220   49.6790   95.0890 H   0  0  0  0  0
   61.9950   50.9090   95.3920 H   0  0  0  0  0
   60.2240   47.1230  103.8050 H   0  0  0  0  0
   61.7560   47.8690  103.0340 H   0  0  0  0  0
   61.3670   46.0790  102.7760 H   0  0  0  0  0
   59.0230   44.5980  101.0880 H   0  0  0  0  0
   59.1930   45.6500   99.5500 H   0  0  0  0  0
   58.7710   46.4380  101.1690 H   0  0  0  0  0
  1  2  1  0  0  0
  1 12  1  0  0  0
  1  6  1  0  0  0
  2 24  1  0  0  0
  2  3  2  0  0  0
  3  4  1  0  0  0
  4 11  2  0  0  0
  4  5  1  0  0  0
  5  6  1  0  0  0
  5  8  2  0  0  0
  6  7  2  0  0  0
  8  9  1  0  0  0
  8 39  1  0  0  0
  9 10  2  0  0  0
  9 35  1  0  0  0
 10 11  1  0  0  0
 10 37  1  0  0  0
 11 40  1  0  0  0
 12 13  2  0  0  0
 12 41  1  0  0  0
 13 14  1  0  0  0
 13 42  1  0  0  0
 14 15  2  0  0  0
 14 19  1  0  0  0
 15 16  1  0  0  0
 15 43  1  0  0  0
 16 20  1  0  0  0
 16 17  2  0  0  0
 17 22  1  0  0  0
 17 18  1  0  0  0
 18 19  2  0  0  0
 18 44  1  0  0  0
 19 45  1  0  0  0
 20 21  1  0  0  0
 21 46  1  0  0  0
 21 47  1  0  0  0
 21 48  1  0  0  0
 22 23  1  0  0  0
 23 49  1  0  0  0
 23 50  1  0  0  0
 23 51  1  0  0  0
 24 25  1  0  0  0
 25 26  1  0  0  0
 25 33  1  0  0  0
 25 52  1  0  0  0
 26 27  2  0  0  0
 26 28  1  0  0  0
 28 29  1  0  0  0
 28 53  1  0  0  0
 29 30  1  0  0  0
 29 54  1  0  0  0
 29 55  1  0  0  0
 30 31  1  0  0  0
 30 56  1  0  0  0
 30 57  1  0  0  0
 31 32  1  0  0  0
 32 58  1  0  0  0
 32 59  1  0  0  0
 32 60  1  0  0  0
 33 34  2  0  0  0
 33 61  1  0  0  0
 34 62  1  0  0  0
 34 63  1  0  0  0
 35 36  1  0  0  0
 36 64  1  0  0  0
 36 65  1  0  0  0
 36 66  1  0  0  0
 37 38  1  0  0  0
 38 67  1  0  0  0
 38 68  1  0  0  0
 38 69  1  0  0  0
M  CHG  2   7  -1  27  -1
M  END
>  <COMPND>
    ligand_BC.pdb 

>  <AUTHOR>
    GENERATED BY OPEN BABEL 2.2.1

>  <MASTER>
        0    0    0    0    0    0    0    0   69    0   69    0

$$$$
PMC1IJY_out_4.pdb_24172_ChemDiv_E981-2.pdb
 OpenBabel06131016433D

 61 65  0  0  0  0  0  0  0  0999 V2000
   63.8120   49.7390   97.5240 C   0  0  0  0  0
   64.4670   50.3090   98.0230 N   0  0  0  0  0
   64.2230   50.2600   98.9980 N   0  0  0  0  0
   63.4260   49.6650   99.0920 C   0  0  0  0  0
   63.1690   49.3410   98.1840 C   0  0  0  0  0
   62.4400   48.7410   97.8730 C   0  0  0  0  0
   62.3530   48.5370   96.9050 C   0  0  0  0  0
   62.9960   48.9350   96.2450 C   0  0  0  0  0
   63.7240   49.5350   96.5550 N   0  0  0  0  0
   62.9700   49.4380   99.9500 C   0  0  0  0  0
   61.8050   48.3480   98.5260 C   0  0  0  0  0
   61.9290   47.4160   98.8510 N   0  0  0  0  0
   61.0350   48.8810   98.8640 O   0  0  0  0  0
   61.2930   47.0130   99.5090 C   0  0  0  0  0
   61.4440   47.1400  100.4730 C   0  0  0  0  0
   60.8170   46.7430  101.1370 C   0  0  0  0  0
   60.0340   46.2150  100.8120 C   0  0  0  0  0
   59.8850   46.0900   99.8520 C   0  0  0  0  0
   60.5280   46.4970   99.1710 C   0  0  0  0  0
   60.9770   46.8770  102.1130 O   0  0  0  0  0
   60.5580   47.6660  102.5800 C   0  0  0  0  0
   60.8210   47.8860  103.5370 C   0  0  0  0  0
   60.3700   46.3650   98.1930 O   0  0  0  0  0
   60.6510   45.5070   97.7420 C   0  0  0  0  0
   60.3230   45.3140   96.7990 C   0  0  0  0  0
   62.9020   48.7260   95.2670 C   0  0  0  0  0
   62.5610   48.9780   94.3530 C   0  0  0  0  0
   63.0760   48.1170   94.4830 C   0  0  0  0  0
   65.2230   50.8320   97.6360 C   0  0  0  0  0
   66.1340   50.4220   97.5640 C   0  0  0  0  0
   66.8800   50.9520   97.1770 C   0  0  0  0  0
   66.7280   51.8920   96.8590 C   0  0  0  0  0
   65.8020   52.2920   96.9390 C   0  0  0  0  0
   67.4690   52.4150   96.4760 C   0  0  0  0  0
   65.0530   51.7600   97.3270 C   0  0  0  0  0
   61.5480   47.8720   96.5540 H   0  0  0  0  0
   62.0930   48.7400   99.7420 H   0  0  0  0  0
   62.6050   50.3870  100.4660 H   0  0  0  0  0
   63.7100   48.9140  100.6410 H   0  0  0  0  0
   62.7640   46.8300   98.4870 H   0  0  0  0  0
   62.3110   47.7240  100.8190 H   0  0  0  0  0
   59.3340   45.7710  101.5370 H   0  0  0  0  0
   59.0180   45.5060   99.5050 H   0  0  0  0  0
   59.8170   48.2890  102.0540 H   0  0  0  0  0
   61.5620   47.2630  104.0620 H   0  0  0  0  0
   60.3650   48.7480  104.0490 H   0  0  0  0  0
   61.3040   44.7900   98.2640 H   0  0  0  0  0
   59.6700   46.0370   96.2840 H   0  0  0  0  0
   60.6200   44.3820   96.2920 H   0  0  0  0  0
   63.0150   48.9540   96.3780 H   0  0  0  0  0
   61.4530   49.0090   94.0860 H   0  0  0  0  0
   62.6660   49.8880   93.6740 H   0  0  0  0  0
   64.1150   47.9380   94.0490 H   0  0  0  0  0
   62.8820   47.0170   94.2560 H   0  0  0  0  0
   66.3080   49.3910   97.9110 H   0  0  0  0  0
   67.8830   50.5040   97.0960 H   0  0  0  0  0
   65.6200   53.3220   96.5950 H   0  0  0  0  0
   67.0910   53.4490   96.1790 H   0  0  0  0  0
   67.9040   51.8780   95.5690 H   0  0  0  0  0
   68.2920   52.5270   97.2570 H   0  0  0  0  0
   64.0460   52.1980   97.4120 H   0  0  0  0  0
  1  9  2  0  0  0
  1  2  1  0  0  0
  1  5  1  0  0  0
  2 29  1  0  0  0
  2  3  1  0  0  0
  3  4  2  0  0  0
  4  5  1  0  0  0
  4 10  1  0  0  0
  5  6  2  0  0  0
  6  7  1  0  0  0
  6 11  1  0  0  0
  7  8  2  0  0  0
  7 36  1  0  0  0
  8 26  1  0  0  0
  8  9  1  0  0  0
 10 37  1  0  0  0
 10 38  1  0  0  0
 10 39  1  0  0  0
 11 12  1  0  0  0
 11 13  2  0  0  0
 12 14  1  0  0  0
 12 40  1  0  0  0
 14 19  2  0  0  0
 14 15  1  0  0  0
 15 16  2  0  0  0
 15 41  1  0  0  0
 16 17  1  0  0  0
 16 20  1  0  0  0
 17 18  2  0  0  0
 17 42  1  0  0  0
 18 19  1  0  0  0
 18 43  1  0  0  0
 19 23  1  0  0  0
 20 21  1  0  0  0
 21 22  2  0  0  0
 21 44  1  0  0  0
 22 45  1  0  0  0
 22 46  1  0  0  0
 23 24  1  0  0  0
 24 25  2  0  0  0
 24 47  1  0  0  0
 25 48  1  0  0  0
 25 49  1  0  0  0
 26 27  1  0  0  0
 26 28  1  0  0  0
 26 50  1  0  0  0
 27 28  1  0  0  0
 27 51  1  0  0  0
 27 52  1  0  0  0
 28 53  1  0  0  0
 28 54  1  0  0  0
 29 35  2  0  0  0
 29 30  1  0  0  0
 30 31  2  0  0  0
 30 55  1  0  0  0
 31 32  1  0  0  0
 31 56  1  0  0  0
 32 34  1  0  0  0
 32 33  2  0  0  0
 33 35  1  0  0  0
 33 57  1  0  0  0
 34 58  1  0  0  0
 34 59  1  0  0  0
 34 60  1  0  0  0
 35 61  1  0  0  0
M  CHG  1  13  -1
M  END
>  <COMPND>
    ligand_BC.pdb 

>  <AUTHOR>
    GENERATED BY OPEN BABEL 2.2.1

>  <MASTER>
        0    0    0    0    0    0    0    0   61    0   61    0

$$$$
PMC1IJY_out_4.pdb_24516_ChemDiv_8015-1.pdb
 OpenBabel06131016433D

 63 69  0  0  0  0  0  0  0  0999 V2000
   62.1640   49.3140   96.8550 C   0  0  0  0  0
   62.0560   48.8230   97.6760 O   0  0  0  0  0
   61.8290   47.8830   97.6500 C   0  0  0  0  0
   61.7120   47.4390   96.8030 C   0  0  0  0  0
   61.8220   47.9350   95.9790 C   0  0  0  0  0
   62.0480   48.8700   96.0080 C   0  0  0  0  0
   62.1560   49.3610   95.1870 C   0  0  0  0  0
   62.4990   50.7410   96.0620 C   0  0  0  0  0
   62.3900   50.2490   96.8830 C   0  0  0  0  0
   61.5950   46.9940   95.9530 C   0  0  0  0  0
   61.4780   46.5540   95.1100 C   0  0  0  0  0
   61.8140   47.9840   94.3150 C   0  0  0  0  0
   61.9300   48.4250   95.1570 C   0  0  0  0  0
   61.4860   46.5040   96.7750 C   0  0  0  0  0
   61.3760   46.0090   97.5980 C   0  0  0  0  0
   61.4930   46.4520   98.4450 C   0  0  0  0  0
   61.7200   47.3920   98.4710 C   0  0  0  0  0
   62.2810   49.7560   97.7010 C   0  0  0  0  0
   63.1500   49.7850   98.1160 C   0  0  0  0  0
   63.2660   50.2280   98.9630 C   0  0  0  0  0
   62.5150   50.6440   99.3970 C   0  0  0  0  0
   61.6460   50.6160   98.9830 C   0  0  0  0  0
   61.5300   50.1730   98.1370 C   0  0  0  0  0
   63.9020   49.3670   97.6810 O   0  0  0  0  0
   64.3980   48.6740   98.1370 C   0  0  0  0  0
   64.0250   47.7910   98.2210 O   0  0  0  0  0
   65.2700   48.8680   98.5080 C   0  0  0  0  0
   62.6320   51.0890  100.2480 O   0  0  0  0  0
   62.8640   52.0210  100.2730 C   0  0  0  0  0
   63.7620   52.3070  100.0650 O   0  0  0  0  0
   62.1940   52.6780  100.5070 C   0  0  0  0  0
   61.3840   45.9590   99.2630 O   0  0  0  0  0
   60.5430   45.9740   99.7270 C   0  0  0  0  0
   59.7810   45.5170   99.3560 O   0  0  0  0  0
   60.4570   46.4450  100.5650 C   0  0  0  0  0
   62.0880   48.9530   97.6790 H   0  0  0  0  0
   61.4410   50.1850   94.8560 H   0  0  0  0  0
   62.9820   50.0050   94.7370 H   0  0  0  0  0
   62.6530   51.8310   96.0900 H   0  0  0  0  0
   62.4700   50.2130   95.0960 H   0  0  0  0  0
   62.1320   45.6210   95.0740 H   0  0  0  0  0
   61.7480   47.2590   94.2560 H   0  0  0  0  0
   60.3850   46.2500   94.9940 H   0  0  0  0  0
   60.9330   48.4490   93.7600 H   0  0  0  0  0
   61.6360   46.8690   94.4740 H   0  0  0  0  0
   62.7600   48.1120   93.6910 H   0  0  0  0  0
   61.2180   45.3960   96.7440 H   0  0  0  0  0
   61.1170   44.9390   97.5670 H   0  0  0  0  0
   61.8540   47.9000   99.4390 H   0  0  0  0  0
   62.3210   49.0100   98.2260 H   0  0  0  0  0
   62.9190   50.6550   97.4170 H   0  0  0  0  0
   64.2600   50.2590   99.4360 H   0  0  0  0  0
   60.7850   51.0910   99.4780 H   0  0  0  0  0
   60.5350   50.1420   97.6650 H   0  0  0  0  0
   65.5350   49.9590   98.3080 H   0  0  0  0  0
   66.0560   48.1810   98.0500 H   0  0  0  0  0
   65.2470   48.6890   99.6340 H   0  0  0  0  0
   62.6570   53.7190  100.4820 H   0  0  0  0  0
   61.7710   52.4590  101.5430 H   0  0  0  0  0
   61.3410   52.6290   99.7520 H   0  0  0  0  0
   61.4570   46.9190  100.8400 H   0  0  0  0  0
   60.1200   45.7300  101.3870 H   0  0  0  0  0
   59.6720   47.2640  100.4560 H   0  0  0  0  0
  1  6  1  0  0  0
  1  9  1  0  0  0
  1  2  1  0  0  0
  1 18  1  0  0  0
  2 18  1  0  0  0
  3  4  1  0  0  0
  3 17  2  0  0  0
  3 36  1  0  0  0
  4 10  1  0  0  0
  4  5  1  0  0  0
  4 14  1  0  0  0
  5 13  1  0  0  0
  5 10  1  0  0  0
  5  6  1  0  0  0
  6 13  1  0  0  0
  6  7  1  0  0  0
  7 13  1  0  0  0
  7 37  1  0  0  0
  7 38  1  0  0  0
  8  9  2  0  0  0
  8 39  1  0  0  0
  8 40  1  0  0  0
  9 18  1  0  0  0
 10 11  1  0  0  0
 10 14  1  0  0  0
 11 41  1  0  0  0
 11 42  1  0  0  0
 11 43  1  0  0  0
 12 13  1  0  0  0
 12 44  1  0  0  0
 12 45  1  0  0  0
 12 46  1  0  0  0
 14 15  1  0  0  0
 14 47  1  0  0  0
 15 16  2  0  0  0
 15 48  1  0  0  0
 16 17  1  0  0  0
 16 32  1  0  0  0
 17 49  1  0  0  0
 18 23  1  0  0  0
 19 24  1  0  0  0
 19 20  1  0  0  0
 19 50  1  0  0  0
 19 51  1  0  0  0
 20 21  2  0  0  0
 20 52  1  0  0  0
 21 22  1  0  0  0
 21 28  1  0  0  0
 22 23  2  0  0  0
 22 53  1  0  0  0
 23 54  1  0  0  0
 24 25  1  0  0  0
 25 26  2  0  0  0
 25 27  1  0  0  0
 27 55  1  0  0  0
 27 56  1  0  0  0
 27 57  1  0  0  0
 28 29  1  0  0  0
 29 30  2  0  0  0
 29 31  1  0  0  0
 31 58  1  0  0  0
 31 59  1  0  0  0
 31 60  1  0  0  0
 32 33  1  0  0  0
 33 34  2  0  0  0
 33 35  1  0  0  0
 35 61  1  0  0  0
 35 62  1  0  0  0
 35 63  1  0  0  0
M  CHG  3  26  -1  30  -1  34  -1
M  END
>  <COMPND>
    ligand_BC.pdb 

>  <AUTHOR>
    GENERATED BY OPEN BABEL 2.2.1

>  <MASTER>
        0    0    0    0    0    0    0    0   63    0   63    0

$$$$
PMC1IJY_out_4.pdb_24172_ChemDiv_E981-2.pdb
 OpenBabel06131016433D

 61 65  0  0  0  0  0  0  0  0999 V2000
   63.8120   49.7390   97.5240 C   0  0  0  0  0
   64.4670   50.3090   98.0230 N   0  0  0  0  0
   64.2230   50.2600   98.9980 N   0  0  0  0  0
   63.4260   49.6650   99.0920 C   0  0  0  0  0
   63.1690   49.3410   98.1840 C   0  0  0  0  0
   62.4400   48.7410   97.8730 C   0  0  0  0  0
   62.3530   48.5370   96.9050 C   0  0  0  0  0
   62.9960   48.9350   96.2450 C   0  0  0  0  0
   63.7240   49.5350   96.5550 N   0  0  0  0  0
   62.9700   49.4380   99.9500 C   0  0  0  0  0
   61.8050   48.3480   98.5260 C   0  0  0  0  0
   61.9290   47.4160   98.8510 N   0  0  0  0  0
   61.0350   48.8810   98.8640 O   0  0  0  0  0
   61.2930   47.0130   99.5090 C   0  0  0  0  0
   61.4440   47.1400  100.4730 C   0  0  0  0  0
   60.8170   46.7430  101.1370 C   0  0  0  0  0
   60.0340   46.2150  100.8120 C   0  0  0  0  0
   59.8850   46.0900   99.8520 C   0  0  0  0  0
   60.5280   46.4970   99.1710 C   0  0  0  0  0
   60.9770   46.8770  102.1130 O   0  0  0  0  0
   60.5580   47.6660  102.5800 C   0  0  0  0  0
   60.8210   47.8860  103.5370 C   0  0  0  0  0
   60.3700   46.3650   98.1930 O   0  0  0  0  0
   60.6510   45.5070   97.7420 C   0  0  0  0  0
   60.3230   45.3140   96.7990 C   0  0  0  0  0
   62.9020   48.7260   95.2670 C   0  0  0  0  0
   62.5610   48.9780   94.3530 C   0  0  0  0  0
   63.0760   48.1170   94.4830 C   0  0  0  0  0
   65.2230   50.8320   97.6360 C   0  0  0  0  0
   66.1340   50.4220   97.5640 C   0  0  0  0  0
   66.8800   50.9520   97.1770 C   0  0  0  0  0
   66.7280   51.8920   96.8590 C   0  0  0  0  0
   65.8020   52.2920   96.9390 C   0  0  0  0  0
   67.4690   52.4150   96.4760 C   0  0  0  0  0
   65.0530   51.7600   97.3270 C   0  0  0  0  0
   61.5480   47.8720   96.5540 H   0  0  0  0  0
   62.0930   48.7400   99.7420 H   0  0  0  0  0
   62.6050   50.3870  100.4660 H   0  0  0  0  0
   63.7100   48.9140  100.6410 H   0  0  0  0  0
   62.7640   46.8300   98.4870 H   0  0  0  0  0
   62.3110   47.7240  100.8190 H   0  0  0  0  0
   59.3340   45.7710  101.5370 H   0  0  0  0  0
   59.0180   45.5060   99.5050 H   0  0  0  0  0
   59.8170   48.2890  102.0540 H   0  0  0  0  0
   61.5620   47.2630  104.0620 H   0  0  0  0  0
   60.3650   48.7480  104.0490 H   0  0  0  0  0
   61.3040   44.7900   98.2640 H   0  0  0  0  0
   59.6700   46.0370   96.2840 H   0  0  0  0  0
   60.6200   44.3820   96.2920 H   0  0  0  0  0
   63.0150   48.9540   96.3780 H   0  0  0  0  0
   61.4530   49.0090   94.0860 H   0  0  0  0  0
   62.6660   49.8880   93.6740 H   0  0  0  0  0
   64.1150   47.9380   94.0490 H   0  0  0  0  0
   62.8820   47.0170   94.2560 H   0  0  0  0  0
   66.3080   49.3910   97.9110 H   0  0  0  0  0
   67.8830   50.5040   97.0960 H   0  0  0  0  0
   65.6200   53.3220   96.5950 H   0  0  0  0  0
   67.0910   53.4490   96.1790 H   0  0  0  0  0
   67.9040   51.8780   95.5690 H   0  0  0  0  0
   68.2920   52.5270   97.2570 H   0  0  0  0  0
   64.0460   52.1980   97.4120 H   0  0  0  0  0
  1  9  2  0  0  0
  1  2  1  0  0  0
  1  5  1  0  0  0
  2 29  1  0  0  0
  2  3  1  0  0  0
  3  4  2  0  0  0
  4  5  1  0  0  0
  4 10  1  0  0  0
  5  6  2  0  0  0
  6  7  1  0  0  0
  6 11  1  0  0  0
  7  8  2  0  0  0
  7 36  1  0  0  0
  8 26  1  0  0  0
  8  9  1  0  0  0
 10 37  1  0  0  0
 10 38  1  0  0  0
 10 39  1  0  0  0
 11 12  1  0  0  0
 11 13  2  0  0  0
 12 14  1  0  0  0
 12 40  1  0  0  0
 14 19  2  0  0  0
 14 15  1  0  0  0
 15 16  2  0  0  0
 15 41  1  0  0  0
 16 17  1  0  0  0
 16 20  1  0  0  0
 17 18  2  0  0  0
 17 42  1  0  0  0
 18 19  1  0  0  0
 18 43  1  0  0  0
 19 23  1  0  0  0
 20 21  1  0  0  0
 21 22  2  0  0  0
 21 44  1  0  0  0
 22 45  1  0  0  0
 22 46  1  0  0  0
 23 24  1  0  0  0
 24 25  2  0  0  0
 24 47  1  0  0  0
 25 48  1  0  0  0
 25 49  1  0  0  0
 26 27  1  0  0  0
 26 28  1  0  0  0
 26 50  1  0  0  0
 27 28  1  0  0  0
 27 51  1  0  0  0
 27 52  1  0  0  0
 28 53  1  0  0  0
 28 54  1  0  0  0
 29 35  2  0  0  0
 29 30  1  0  0  0
 30 31  2  0  0  0
 30 55  1  0  0  0
 31 32  1  0  0  0
 31 56  1  0  0  0
 32 34  1  0  0  0
 32 33  2  0  0  0
 33 35  1  0  0  0
 33 57  1  0  0  0
 34 58  1  0  0  0
 34 59  1  0  0  0
 34 60  1  0  0  0
 35 61  1  0  0  0
M  CHG  1  13  -1
M  END
>  <COMPND>
    ligand_BC.pdb 

>  <AUTHOR>
    GENERATED BY OPEN BABEL 2.2.1

>  <MASTER>
        0    0    0    0    0    0    0    0   61    0   61    0

$$$$
PMC1IJY_out_4.pdb_24917_ChemDiv_4802-0.pdb
 OpenBabel06131016433D

 59 63  0  0  0  0  0  0  0  0999 V2000
   64.6300   50.9810   97.7050 C   0  0  0  0  0
   65.4410   51.2730   97.4100 N   0  0  0  0  0
   65.6940   51.9520   96.7020 C   0  0  0  0  0
   66.5280   52.0110   96.6510 C   0  0  0  0  0
   64.8950   52.4500   96.1710 O   0  0  0  0  0
   66.9660   51.4190   97.2770 C   0  0  0  0  0
   67.1970   52.6120   96.0310 C   0  0  0  0  0
   66.3160   50.9850   97.7220 C   0  0  0  0  0
   68.0650   51.3960   97.3150 C   0  0  0  0  0
   66.3530   50.2640   98.4780 O   0  0  0  0  0
   68.5560   51.9030   96.7910 C   0  0  0  0  0
   68.1580   52.6130   96.0420 C   0  0  0  0  0
   64.0680   50.2810   97.2650 C   0  0  0  0  0
   63.3400   50.4740   96.6190 N   0  0  0  0  0
   64.3740   49.3520   97.5940 O   0  0  0  0  0
   62.8090   49.7140   96.2100 C   0  0  0  0  0
   63.1130   49.2020   95.3540 C   0  0  0  0  0
   62.5160   48.4600   95.0250 C   0  0  0  0  0
   61.7030   48.2090   95.4470 C   0  0  0  0  0
   61.4410   48.6910   96.2320 C   0  0  0  0  0
   61.9350   49.4090   96.6240 C   0  0  0  0  0
   61.1610   47.4330   95.0290 S   0  0  0  0  0
   60.6270   46.6850   94.6190 O   0  0  0  0  0
   60.4710   48.1090   94.6930 O   0  0  0  0  0
   61.8520   46.7880   95.3700 N   0  0  0  0  0
   62.4120   46.2770   94.7090 C   0  0  0  0  0
   63.0870   45.6460   95.0470 N   0  0  0  0  0
   62.2350   46.4530   93.7840 N   0  0  0  0  0
   63.6220   45.1600   94.3390 C   0  0  0  0  0
   63.5080   45.2790   93.4000 C   0  0  0  0  0
   62.7630   45.9740   93.1170 C   0  0  0  0  0
   64.0240   51.2370   98.5360 C   0  0  0  0  0
   63.9190   52.2140   98.7740 C   0  0  0  0  0
   64.6120   52.6290   99.3490 C   0  0  0  0  0
   64.5120   53.6260   99.5970 C   0  0  0  0  0
   63.7370   54.1850   99.2740 C   0  0  0  0  0
   63.0480   53.7560   98.6970 C   0  0  0  0  0
   63.1550   52.7090   98.4380 C   0  0  0  0  0
   65.6190   51.5420   97.6230 H   0  0  0  0  0
   66.7160   53.2940   95.3120 H   0  0  0  0  0
   68.5630   50.7200   98.0280 H   0  0  0  0  0
   69.6510   51.8250   96.8880 H   0  0  0  0  0
   68.7850   53.2420   95.3900 H   0  0  0  0  0
   63.1130   51.4980   96.3510 H   0  0  0  0  0
   64.0470   49.4610   94.8310 H   0  0  0  0  0
   62.8240   47.9080   94.1230 H   0  0  0  0  0
   60.4990   48.3950   96.7200 H   0  0  0  0  0
   61.5530   49.9070   97.5290 H   0  0  0  0  0
   61.9920   46.6450   96.4340 H   0  0  0  0  0
   64.3890   44.4440   94.6760 H   0  0  0  0  0
   64.1110   44.7300   92.6600 H   0  0  0  0  0
   62.5790   46.1610   92.0470 H   0  0  0  0  0
   64.4050   50.6770   99.4530 H   0  0  0  0  0
   62.9770   50.9330   98.2030 H   0  0  0  0  0
   65.4680   52.0400   99.7140 H   0  0  0  0  0
   65.2770   54.0950  100.2360 H   0  0  0  0  0
   63.6550   55.2470   99.5540 H   0  0  0  0  0
   62.1890   54.3380   98.3270 H   0  0  0  0  0
   62.4060   52.2130   97.8010 H   0  0  0  0  0
  1 13  1  0  0  0
  1  2  1  0  0  0
  1 32  1  0  0  0
  1 39  1  0  0  0
  2  3  1  0  0  0
  2  8  1  0  0  0
  3  5  2  0  0  0
  3  4  1  0  0  0
  4  7  2  0  0  0
  4  6  1  0  0  0
  6  9  2  0  0  0
  6  8  1  0  0  0
  7 12  1  0  0  0
  7 40  1  0  0  0
  8 10  2  0  0  0
  9 11  1  0  0  0
  9 41  1  0  0  0
 11 12  2  0  0  0
 11 42  1  0  0  0
 12 43  1  0  0  0
 13 14  1  0  0  0
 13 15  2  0  0  0
 14 16  1  0  0  0
 14 44  1  0  0  0
 16 17  2  0  0  0
 16 21  1  0  0  0
 17 18  1  0  0  0
 17 45  1  0  0  0
 18 19  2  0  0  0
 18 46  1  0  0  0
 19 22  1  0  0  0
 19 20  1  0  0  0
 20 21  2  0  0  0
 20 47  1  0  0  0
 21 48  1  0  0  0
 22 23  2  0  0  0
 22 24  2  0  0  0
 22 25  1  0  0  0
 25 26  1  0  0  0
 25 49  1  0  0  0
 26 28  2  0  0  0
 26 27  1  0  0  0
 27 29  2  0  0  0
 28 31  1  0  0  0
 29 30  1  0  0  0
 29 50  1  0  0  0
 30 31  2  0  0  0
 30 51  1  0  0  0
 31 52  1  0  0  0
 32 33  1  0  0  0
 32 53  1  0  0  0
 32 54  1  0  0  0
 33 38  2  0  0  0
 33 34  1  0  0  0
 34 35  2  0  0  0
 34 55  1  0  0  0
 35 36  1  0  0  0
 35 56  1  0  0  0
 36 37  2  0  0  0
 36 57  1  0  0  0
 37 38  1  0  0  0
 37 58  1  0  0  0
 38 59  1  0  0  0
M  CHG  5   5  -1  10  -1  15  -1  23  -1  24  -1
M  END
>  <COMPND>
    ligand_BC.pdb 

>  <AUTHOR>
    GENERATED BY OPEN BABEL 2.2.1

>  <MASTER>
        0    0    0    0    0    0    0    0   59    0   59    0

$$$$
PMC1IJY_out_4.pdb_24288_ChemDiv_K284-6.pdb
 OpenBabel06131016433D

 69 71  0  0  0  0  0  0  0  0999 V2000
   62.6470   49.1080   98.7970 N   0  0  0  0  0
   62.6270   48.3100   98.2010 C   0  0  0  0  0
   62.1590   47.4730   98.5010 N   0  0  0  0  0
   61.7160   47.4420   99.3950 C   0  0  0  0  0
   61.7370   48.2390   99.9910 C   0  0  0  0  0
   62.2000   49.0720   99.6960 C   0  0  0  0  0
   62.2210   49.8700  100.2920 O   0  0  0  0  0
   61.2950   48.2080  100.8830 C   0  0  0  0  0
   60.8340   47.3780  101.1740 C   0  0  0  0  0
   60.8130   46.5800  100.5780 C   0  0  0  0  0
   61.2540   46.6100   99.6890 C   0  0  0  0  0
   63.1130   49.9420   98.5000 C   0  0  0  0  0
   64.0370   50.1460   98.8100 C   0  0  0  0  0
   64.5030   50.9770   98.5140 C   0  0  0  0  0
   65.0810   50.9560   97.7070 C   0  0  0  0  0
   65.5490   51.7890   97.4090 C   0  0  0  0  0
   65.4330   52.6420   97.9250 C   0  0  0  0  0
   64.8490   52.6560   98.7360 C   0  0  0  0  0
   64.3860   51.8300   99.0300 C   0  0  0  0  0
   66.1390   51.7690   96.5870 O   0  0  0  0  0
   67.0960   51.4720   96.6730 C   0  0  0  0  0
   65.9050   53.4850   97.6260 O   0  0  0  0  0
   65.4380   54.1150   97.0110 C   0  0  0  0  0
   63.0710   48.3340   97.2980 S   0  0  0  0  0
   62.5270   48.4460   96.4660 C   0  0  0  0  0
   62.4290   47.6880   95.8270 C   0  0  0  0  0
   63.1450   47.5010   95.1600 O   0  0  0  0  0
   61.6120   47.1170   95.8570 N   0  0  0  0  0
   61.5090   46.3530   95.2150 C   0  0  0  0  0
   60.8300   45.6440   95.3880 C   0  0  0  0  0
   60.3530   45.2170   94.6240 O   0  0  0  0  0
   59.6330   44.5430   94.8020 C   0  0  0  0  0
   62.0830   49.3140   96.2730 C   0  0  0  0  0
   62.4870   49.9470   95.6060 C   0  0  0  0  0
   60.3820   47.3380  102.0790 O   0  0  0  0  0
   60.9100   47.1170  102.8950 C   0  0  0  0  0
   60.3410   45.7300  100.8780 O   0  0  0  0  0
   59.3700   45.6030  100.6750 C   0  0  0  0  0
   61.3170   49.0900  101.5430 H   0  0  0  0  0
   61.2320   45.7270   99.0310 H   0  0  0  0  0
   62.5980   50.6420   97.8230 H   0  0  0  0  0
   64.5510   49.4460   99.4880 H   0  0  0  0  0
   65.2070   50.0190   97.1420 H   0  0  0  0  0
   64.7200   53.5910   99.3040 H   0  0  0  0  0
   63.7430   51.8480   99.9240 H   0  0  0  0  0
   67.6010   51.5140   95.6520 H   0  0  0  0  0
   67.1440   50.4140   97.0940 H   0  0  0  0  0
   67.6420   52.1700   97.3900 H   0  0  0  0  0
   66.1190   55.0010   96.7850 H   0  0  0  0  0
   64.4640   54.4760   97.4810 H   0  0  0  0  0
   65.1910   53.5750   96.0380 H   0  0  0  0  0
   62.8830   48.3040   97.5390 H   0  0  0  0  0
   60.8360   47.3220   96.5830 H   0  0  0  0  0
   61.3270   46.7800   94.1740 H   0  0  0  0  0
   62.4900   45.7890   95.3480 H   0  0  0  0  0
   61.3160   44.8240   96.0140 H   0  0  0  0  0
   59.9960   46.2230   95.9070 H   0  0  0  0  0
   59.2080   44.1700   93.8120 H   0  0  0  0  0
   58.8070   45.0060   95.4360 H   0  0  0  0  0
   60.0770   43.6630   95.3750 H   0  0  0  0  0
   61.1480   49.5820   96.7900 H   0  0  0  0  0
   63.4220   49.6790   95.0890 H   0  0  0  0  0
   61.9950   50.9090   95.3920 H   0  0  0  0  0
   60.2240   47.1230  103.8050 H   0  0  0  0  0
   61.7560   47.8690  103.0340 H   0  0  0  0  0
   61.3670   46.0790  102.7760 H   0  0  0  0  0
   59.0230   44.5980  101.0880 H   0  0  0  0  0
   59.1930   45.6500   99.5500 H   0  0  0  0  0
   58.7710   46.4380  101.1690 H   0  0  0  0  0
  1  2  1  0  0  0
  1 12  1  0  0  0
  1  6  1  0  0  0
  2 24  1  0  0  0
  2  3  2  0  0  0
  3  4  1  0  0  0
  4 11  2  0  0  0
  4  5  1  0  0  0
  5  6  1  0  0  0
  5  8  2  0  0  0
  6  7  2  0  0  0
  8  9  1  0  0  0
  8 39  1  0  0  0
  9 10  2  0  0  0
  9 35  1  0  0  0
 10 11  1  0  0  0
 10 37  1  0  0  0
 11 40  1  0  0  0
 12 13  2  0  0  0
 12 41  1  0  0  0
 13 14  1  0  0  0
 13 42  1  0  0  0
 14 15  2  0  0  0
 14 19  1  0  0  0
 15 16  1  0  0  0
 15 43  1  0  0  0
 16 20  1  0  0  0
 16 17  2  0  0  0
 17 22  1  0  0  0
 17 18  1  0  0  0
 18 19  2  0  0  0
 18 44  1  0  0  0
 19 45  1  0  0  0
 20 21  1  0  0  0
 21 46  1  0  0  0
 21 47  1  0  0  0
 21 48  1  0  0  0
 22 23  1  0  0  0
 23 49  1  0  0  0
 23 50  1  0  0  0
 23 51  1  0  0  0
 24 25  1  0  0  0
 25 26  1  0  0  0
 25 33  1  0  0  0
 25 52  1  0  0  0
 26 27  2  0  0  0
 26 28  1  0  0  0
 28 29  1  0  0  0
 28 53  1  0  0  0
 29 30  1  0  0  0
 29 54  1  0  0  0
 29 55  1  0  0  0
 30 31  1  0  0  0
 30 56  1  0  0  0
 30 57  1  0  0  0
 31 32  1  0  0  0
 32 58  1  0  0  0
 32 59  1  0  0  0
 32 60  1  0  0  0
 33 34  2  0  0  0
 33 61  1  0  0  0
 34 62  1  0  0  0
 34 63  1  0  0  0
 35 36  1  0  0  0
 36 64  1  0  0  0
 36 65  1  0  0  0
 36 66  1  0  0  0
 37 38  1  0  0  0
 38 67  1  0  0  0
 38 68  1  0  0  0
 38 69  1  0  0  0
M  CHG  2   7  -1  27  -1
M  END
>  <COMPND>
    ligand_BC.pdb 

>  <AUTHOR>
    GENERATED BY OPEN BABEL 2.2.1

>  <MASTER>
        0    0    0    0    0    0    0    0   69    0   69    0

$$$$
PMC1IJY_out_4.pdb_24516_ChemDiv_8015-1.pdb
 OpenBabel06131016433D

 63 69  0  0  0  0  0  0  0  0999 V2000
   62.1640   49.3140   96.8550 C   0  0  0  0  0
   62.0560   48.8230   97.6760 O   0  0  0  0  0
   61.8290   47.8830   97.6500 C   0  0  0  0  0
   61.7120   47.4390   96.8030 C   0  0  0  0  0
   61.8220   47.9350   95.9790 C   0  0  0  0  0
   62.0480   48.8700   96.0080 C   0  0  0  0  0
   62.1560   49.3610   95.1870 C   0  0  0  0  0
   62.4990   50.7410   96.0620 C   0  0  0  0  0
   62.3900   50.2490   96.8830 C   0  0  0  0  0
   61.5950   46.9940   95.9530 C   0  0  0  0  0
   61.4780   46.5540   95.1100 C   0  0  0  0  0
   61.8140   47.9840   94.3150 C   0  0  0  0  0
   61.9300   48.4250   95.1570 C   0  0  0  0  0
   61.4860   46.5040   96.7750 C   0  0  0  0  0
   61.3760   46.0090   97.5980 C   0  0  0  0  0
   61.4930   46.4520   98.4450 C   0  0  0  0  0
   61.7200   47.3920   98.4710 C   0  0  0  0  0
   62.2810   49.7560   97.7010 C   0  0  0  0  0
   63.1500   49.7850   98.1160 C   0  0  0  0  0
   63.2660   50.2280   98.9630 C   0  0  0  0  0
   62.5150   50.6440   99.3970 C   0  0  0  0  0
   61.6460   50.6160   98.9830 C   0  0  0  0  0
   61.5300   50.1730   98.1370 C   0  0  0  0  0
   63.9020   49.3670   97.6810 O   0  0  0  0  0
   64.3980   48.6740   98.1370 C   0  0  0  0  0
   64.0250   47.7910   98.2210 O   0  0  0  0  0
   65.2700   48.8680   98.5080 C   0  0  0  0  0
   62.6320   51.0890  100.2480 O   0  0  0  0  0
   62.8640   52.0210  100.2730 C   0  0  0  0  0
   63.7620   52.3070  100.0650 O   0  0  0  0  0
   62.1940   52.6780  100.5070 C   0  0  0  0  0
   61.3840   45.9590   99.2630 O   0  0  0  0  0
   60.5430   45.9740   99.7270 C   0  0  0  0  0
   59.7810   45.5170   99.3560 O   0  0  0  0  0
   60.4570   46.4450  100.5650 C   0  0  0  0  0
   62.0880   48.9530   97.6790 H   0  0  0  0  0
   61.4410   50.1850   94.8560 H   0  0  0  0  0
   62.9820   50.0050   94.7370 H   0  0  0  0  0
   62.6530   51.8310   96.0900 H   0  0  0  0  0
   62.4700   50.2130   95.0960 H   0  0  0  0  0
   62.1320   45.6210   95.0740 H   0  0  0  0  0
   61.7480   47.2590   94.2560 H   0  0  0  0  0
   60.3850   46.2500   94.9940 H   0  0  0  0  0
   60.9330   48.4490   93.7600 H   0  0  0  0  0
   61.6360   46.8690   94.4740 H   0  0  0  0  0
   62.7600   48.1120   93.6910 H   0  0  0  0  0
   61.2180   45.3960   96.7440 H   0  0  0  0  0
   61.1170   44.9390   97.5670 H   0  0  0  0  0
   61.8540   47.9000   99.4390 H   0  0  0  0  0
   62.3210   49.0100   98.2260 H   0  0  0  0  0
   62.9190   50.6550   97.4170 H   0  0  0  0  0
   64.2600   50.2590   99.4360 H   0  0  0  0  0
   60.7850   51.0910   99.4780 H   0  0  0  0  0
   60.5350   50.1420   97.6650 H   0  0  0  0  0
   65.5350   49.9590   98.3080 H   0  0  0  0  0
   66.0560   48.1810   98.0500 H   0  0  0  0  0
   65.2470   48.6890   99.6340 H   0  0  0  0  0
   62.6570   53.7190  100.4820 H   0  0  0  0  0
   61.7710   52.4590  101.5430 H   0  0  0  0  0
   61.3410   52.6290   99.7520 H   0  0  0  0  0
   61.4570   46.9190  100.8400 H   0  0  0  0  0
   60.1200   45.7300  101.3870 H   0  0  0  0  0
   59.6720   47.2640  100.4560 H   0  0  0  0  0
  1  6  1  0  0  0
  1  9  1  0  0  0
  1  2  1  0  0  0
  1 18  1  0  0  0
  2 18  1  0  0  0
  3  4  1  0  0  0
  3 17  2  0  0  0
  3 36  1  0  0  0
  4 10  1  0  0  0
  4  5  1  0  0  0
  4 14  1  0  0  0
  5 13  1  0  0  0
  5 10  1  0  0  0
  5  6  1  0  0  0
  6 13  1  0  0  0
  6  7  1  0  0  0
  7 13  1  0  0  0
  7 37  1  0  0  0
  7 38  1  0  0  0
  8  9  2  0  0  0
  8 39  1  0  0  0
  8 40  1  0  0  0
  9 18  1  0  0  0
 10 11  1  0  0  0
 10 14  1  0  0  0
 11 41  1  0  0  0
 11 42  1  0  0  0
 11 43  1  0  0  0
 12 13  1  0  0  0
 12 44  1  0  0  0
 12 45  1  0  0  0
 12 46  1  0  0  0
 14 15  1  0  0  0
 14 47  1  0  0  0
 15 16  2  0  0  0
 15 48  1  0  0  0
 16 17  1  0  0  0
 16 32  1  0  0  0
 17 49  1  0  0  0
 18 23  1  0  0  0
 19 24  1  0  0  0
 19 20  1  0  0  0
 19 50  1  0  0  0
 19 51  1  0  0  0
 20 21  2  0  0  0
 20 52  1  0  0  0
 21 22  1  0  0  0
 21 28  1  0  0  0
 22 23  2  0  0  0
 22 53  1  0  0  0
 23 54  1  0  0  0
 24 25  1  0  0  0
 25 26  2  0  0  0
 25 27  1  0  0  0
 27 55  1  0  0  0
 27 56  1  0  0  0
 27 57  1  0  0  0
 28 29  1  0  0  0
 29 30  2  0  0  0
 29 31  1  0  0  0
 31 58  1  0  0  0
 31 59  1  0  0  0
 31 60  1  0  0  0
 32 33  1  0  0  0
 33 34  2  0  0  0
 33 35  1  0  0  0
 35 61  1  0  0  0
 35 62  1  0  0  0
 35 63  1  0  0  0
M  CHG  3  26  -1  30  -1  34  -1
M  END
>  <COMPND>
    ligand_BC.pdb 

>  <AUTHOR>
    GENERATED BY OPEN BABEL 2.2.1

>  <MASTER>
        0    0    0    0    0    0    0    0   63    0   63    0

$$$$
PMC1IJY_out_4.pdb_24917_ChemDiv_4802-0.pdb
 OpenBabel06131016433D

 59 63  0  0  0  0  0  0  0  0999 V2000
   64.6300   50.9810   97.7050 C   0  0  0  0  0
   65.4410   51.2730   97.4100 N   0  0  0  0  0
   65.6940   51.9520   96.7020 C   0  0  0  0  0
   66.5280   52.0110   96.6510 C   0  0  0  0  0
   64.8950   52.4500   96.1710 O   0  0  0  0  0
   66.9660   51.4190   97.2770 C   0  0  0  0  0
   67.1970   52.6120   96.0310 C   0  0  0  0  0
   66.3160   50.9850   97.7220 C   0  0  0  0  0
   68.0650   51.3960   97.3150 C   0  0  0  0  0
   66.3530   50.2640   98.4780 O   0  0  0  0  0
   68.5560   51.9030   96.7910 C   0  0  0  0  0
   68.1580   52.6130   96.0420 C   0  0  0  0  0
   64.0680   50.2810   97.2650 C   0  0  0  0  0
   63.3400   50.4740   96.6190 N   0  0  0  0  0
   64.3740   49.3520   97.5940 O   0  0  0  0  0
   62.8090   49.7140   96.2100 C   0  0  0  0  0
   63.1130   49.2020   95.3540 C   0  0  0  0  0
   62.5160   48.4600   95.0250 C   0  0  0  0  0
   61.7030   48.2090   95.4470 C   0  0  0  0  0
   61.4410   48.6910   96.2320 C   0  0  0  0  0
   61.9350   49.4090   96.6240 C   0  0  0  0  0
   61.1610   47.4330   95.0290 S   0  0  0  0  0
   60.6270   46.6850   94.6190 O   0  0  0  0  0
   60.4710   48.1090   94.6930 O   0  0  0  0  0
   61.8520   46.7880   95.3700 N   0  0  0  0  0
   62.4120   46.2770   94.7090 C   0  0  0  0  0
   63.0870   45.6460   95.0470 N   0  0  0  0  0
   62.2350   46.4530   93.7840 N   0  0  0  0  0
   63.6220   45.1600   94.3390 C   0  0  0  0  0
   63.5080   45.2790   93.4000 C   0  0  0  0  0
   62.7630   45.9740   93.1170 C   0  0  0  0  0
   64.0240   51.2370   98.5360 C   0  0  0  0  0
   63.9190   52.2140   98.7740 C   0  0  0  0  0
   64.6120   52.6290   99.3490 C   0  0  0  0  0
   64.5120   53.6260   99.5970 C   0  0  0  0  0
   63.7370   54.1850   99.2740 C   0  0  0  0  0
   63.0480   53.7560   98.6970 C   0  0  0  0  0
   63.1550   52.7090   98.4380 C   0  0  0  0  0
   65.6190   51.5420   97.6230 H   0  0  0  0  0
   66.7160   53.2940   95.3120 H   0  0  0  0  0
   68.5630   50.7200   98.0280 H   0  0  0  0  0
   69.6510   51.8250   96.8880 H   0  0  0  0  0
   68.7850   53.2420   95.3900 H   0  0  0  0  0
   63.1130   51.4980   96.3510 H   0  0  0  0  0
   64.0470   49.4610   94.8310 H   0  0  0  0  0
   62.8240   47.9080   94.1230 H   0  0  0  0  0
   60.4990   48.3950   96.7200 H   0  0  0  0  0
   61.5530   49.9070   97.5290 H   0  0  0  0  0
   61.9920   46.6450   96.4340 H   0  0  0  0  0
   64.3890   44.4440   94.6760 H   0  0  0  0  0
   64.1110   44.7300   92.6600 H   0  0  0  0  0
   62.5790   46.1610   92.0470 H   0  0  0  0  0
   64.4050   50.6770   99.4530 H   0  0  0  0  0
   62.9770   50.9330   98.2030 H   0  0  0  0  0
   65.4680   52.0400   99.7140 H   0  0  0  0  0
   65.2770   54.0950  100.2360 H   0  0  0  0  0
   63.6550   55.2470   99.5540 H   0  0  0  0  0
   62.1890   54.3380   98.3270 H   0  0  0  0  0
   62.4060   52.2130   97.8010 H   0  0  0  0  0
  1 13  1  0  0  0
  1  2  1  0  0  0
  1 32  1  0  0  0
  1 39  1  0  0  0
  2  3  1  0  0  0
  2  8  1  0  0  0
  3  5  2  0  0  0
  3  4  1  0  0  0
  4  7  2  0  0  0
  4  6  1  0  0  0
  6  9  2  0  0  0
  6  8  1  0  0  0
  7 12  1  0  0  0
  7 40  1  0  0  0
  8 10  2  0  0  0
  9 11  1  0  0  0
  9 41  1  0  0  0
 11 12  2  0  0  0
 11 42  1  0  0  0
 12 43  1  0  0  0
 13 14  1  0  0  0
 13 15  2  0  0  0
 14 16  1  0  0  0
 14 44  1  0  0  0
 16 17  2  0  0  0
 16 21  1  0  0  0
 17 18  1  0  0  0
 17 45  1  0  0  0
 18 19  2  0  0  0
 18 46  1  0  0  0
 19 22  1  0  0  0
 19 20  1  0  0  0
 20 21  2  0  0  0
 20 47  1  0  0  0
 21 48  1  0  0  0
 22 23  2  0  0  0
 22 24  2  0  0  0
 22 25  1  0  0  0
 25 26  1  0  0  0
 25 49  1  0  0  0
 26 28  2  0  0  0
 26 27  1  0  0  0
 27 29  2  0  0  0
 28 31  1  0  0  0
 29 30  1  0  0  0
 29 50  1  0  0  0
 30 31  2  0  0  0
 30 51  1  0  0  0
 31 52  1  0  0  0
 32 33  1  0  0  0
 32 53  1  0  0  0
 32 54  1  0  0  0
 33 38  2  0  0  0
 33 34  1  0  0  0
 34 35  2  0  0  0
 34 55  1  0  0  0
 35 36  1  0  0  0
 35 56  1  0  0  0
 36 37  2  0  0  0
 36 57  1  0  0  0
 37 38  1  0  0  0
 37 58  1  0  0  0
 38 59  1  0  0  0
M  CHG  5   5  -1  10  -1  15  -1  23  -1  24  -1
M  END
>  <COMPND>
    ligand_BC.pdb 

>  <AUTHOR>
    GENERATED BY OPEN BABEL 2.2.1

>  <MASTER>
        0    0    0    0    0    0    0    0   59    0   59    0

$$$$
PMC1IJY_out_4.pdb_24189_ChemDiv_8007-8.pdb
 OpenBabel06131016433D

 48 54  0  0  0  0  0  0  0  0999 V2000
   60.0060   44.9040   96.5540 C   0  0  0  0  0
   60.7240   45.5640   96.8080 C   0  0  0  0  0
   60.7600   45.8950   97.7550 C   0  0  0  0  0
   60.1040   45.5800   98.4270 C   0  0  0  0  0
   59.3990   44.9290   98.1650 O   0  0  0  0  0
   59.3490   44.5890   97.2260 C   0  0  0  0  0
   58.6290   43.9240   96.9620 C   0  0  0  0  0
   58.5880   43.5890   96.0150 C   0  0  0  0  0
   59.2440   43.9040   95.3420 C   0  0  0  0  0
   59.9540   44.5590   95.6050 C   0  0  0  0  0
   60.6160   44.8770   94.9260 O   0  0  0  0  0
   57.8810   42.9360   95.7500 C   0  0  0  0  0
   58.5350   43.2490   95.0810 C   0  0  0  0  0
   60.1590   45.9260   99.3730 C   0  0  0  0  0
   60.8650   46.5800   99.6380 C   0  0  0  0  0
   61.5220   46.8950   98.9660 C   0  0  0  0  0
   61.4840   46.5620   98.0170 C   0  0  0  0  0
   62.1460   46.8790   97.3380 O   0  0  0  0  0
   60.0690   46.0140   99.8740 C   0  0  0  0  0
   60.9150   46.9190  100.5760 C   0  0  0  0  0
   61.3860   45.8810   96.1290 C   0  0  0  0  0
   62.0850   46.5300   96.3980 C   0  0  0  0  0
   62.7480   46.8480   95.7190 C   0  0  0  0  0
   62.7060   46.5140   94.7780 C   0  0  0  0  0
   61.9930   45.8570   94.5190 C   0  0  0  0  0
   61.3310   45.5390   95.1970 C   0  0  0  0  0
   62.1120   45.6420   93.5460 O   0  0  0  0  0
   62.8980   46.1680   93.2070 C   0  0  0  0  0
   63.2570   46.6990   93.9660 O   0  0  0  0  0
   62.7030   47.1640   96.8250 Cl  0  0  0  0  0
   58.6920   43.0260   97.6610 H   0  0  0  0  0
   57.6740   44.5390   97.0520 H   0  0  0  0  0
   59.9970   44.2670   94.5670 H   0  0  0  0  0
   57.8480   41.8630   96.1350 H   0  0  0  0  0
   56.7430   42.9100   95.8140 H   0  0  0  0  0
   58.4780   42.8620   94.0100 H   0  0  0  0  0
   59.4310   45.5780  100.1230 H   0  0  0  0  0
   62.3010   47.6160   99.2610 H   0  0  0  0  0
   61.2090   46.0140   99.8740 H   0  0  0  0  0
   59.6880   47.0890   99.8740 H   0  0  0  0  0
   59.6740   45.4560  100.7860 H   0  0  0  0  0
   59.6940   45.4840   98.9370 H   0  0  0  0  0
   61.7840   47.6500  100.6700 H   0  0  0  0  0
   61.0490   46.0510  101.3030 H   0  0  0  0  0
   59.9430   47.4570  100.8320 H   0  0  0  0  0
   62.1320   46.8980   97.4350 H   0  0  0  0  0
   63.5280   47.5700   96.0100 H   0  0  0  0  0
   63.2910   46.1580   92.1780 H   0  0  0  0  0
  1 10  1  0  0  0
  1  2  1  0  0  0
  1  6  2  0  0  0
  2 21  2  0  0  0
  2  3  1  0  0  0
  3 17  1  0  0  0
  3  4  2  0  0  0
  4  5  1  0  0  0
  4 14  1  0  0  0
  5  6  1  0  0  0
  6  7  1  0  0  0
  7  8  1  0  0  0
  7 31  1  0  0  0
  7 32  1  0  0  0
  8 13  1  0  0  0
  8  9  1  0  0  0
  8 12  1  0  0  0
  9 13  1  0  0  0
  9 10  1  0  0  0
  9 33  1  0  0  0
 10 11  2  0  0  0
 11 26  1  0  0  0
 12 13  1  0  0  0
 12 34  1  0  0  0
 12 35  1  0  0  0
 13 36  1  0  0  0
 14 15  2  0  0  0
 14 37  1  0  0  0
 15 16  1  0  0  0
 15 20  1  0  0  0
 16 17  2  0  0  0
 16 38  1  0  0  0
 17 18  1  0  0  0
 18 30  1  0  0  0
 19 39  1  0  0  0
 19 40  1  0  0  0
 19 41  1  0  0  0
 19 42  1  0  0  0
 20 43  1  0  0  0
 20 44  1  0  0  0
 20 45  1  0  0  0
 21 26  1  0  0  0
 21 22  1  0  0  0
 22 23  2  0  0  0
 22 46  1  0  0  0
 23 24  1  0  0  0
 23 47  1  0  0  0
 24 29  2  0  0  0
 24 25  1  0  0  0
 25 27  1  0  0  0
 25 26  2  0  0  0
 27 28  2  0  0  0
 28 29  1  0  0  0
 28 48  1  0  0  0
M  END
>  <COMPND>
    ligand_BC.pdb 

>  <AUTHOR>
    GENERATED BY OPEN BABEL 2.2.1

>  <MASTER>
        0    0    0    0    0    0    0    0   48    0   48    0

$$$$
PMC1IJY_out_4.pdb_24329_ChemDiv_000A-0.pdb
 OpenBabel06131016433D

 58 62  0  0  0  0  0  0  0  0999 V2000
   61.3600   47.9620   98.3390 C   0  0  0  0  0
   60.7980   48.1040   99.1700 C   0  0  0  0  0
   60.5130   47.2140   99.4900 C   0  0  0  0  0
   60.8780   46.5310   98.8880 C   0  0  0  0  0
   61.4180   46.9860   98.1530 N   0  0  0  0  0
   60.7070   45.5580   99.0340 C   0  0  0  0  0
   60.1480   45.2430   99.8120 C   0  0  0  0  0
   59.7620   45.9530  100.4460 C   0  0  0  0  0
   59.9490   46.9140  100.2760 C   0  0  0  0  0
   60.6400   49.0370   99.4970 N   0  0  0  0  0
   61.0200   49.8210   99.0270 N   0  0  0  0  0
   61.5830   49.6790   98.1970 C   0  0  0  0  0
   61.7570   48.7550   97.8480 N   0  0  0  0  0
   61.9790   50.4720   97.7050 S   0  0  0  0  0
   62.8810   50.8360   97.9610 C   0  0  0  0  0
   63.0590   51.2100   98.8680 C   0  0  0  0  0
   62.8390   52.1500   99.0910 N   0  0  0  0  0
   63.4730   50.6150   99.5760 O   0  0  0  0  0
   63.0240   52.5050  100.0020 C   0  0  0  0  0
   62.3240   52.4610  100.7030 C   0  0  0  0  0
   62.4950   52.8090  101.6110 C   0  0  0  0  0
   63.3680   53.2140  101.8560 C   0  0  0  0  0
   64.0850   53.2580  101.1350 C   0  0  0  0  0
   63.9050   52.9080  100.2330 C   0  0  0  0  0
   63.5200   53.5570  102.7690 S   0  0  0  0  0
   63.7860   52.6340  103.0730 O   0  0  0  0  0
   63.2580   54.4770  102.4750 O   0  0  0  0  0
   63.6740   53.8950  103.6800 N   0  0  0  0  0
   61.9050   46.5790   97.4050 C   0  0  0  0  0
   61.4430   46.4150   96.5500 C   0  0  0  0  0
   61.9770   46.2290   95.6990 C   0  0  0  0  0
   62.2050   45.3280   95.4200 C   0  0  0  0  0
   62.7230   45.1560   94.5940 C   0  0  0  0  0
   63.0300   45.8880   94.0180 C   0  0  0  0  0
   62.8080   46.8410   94.2810 C   0  0  0  0  0
   62.2810   47.0130   95.1230 C   0  0  0  0  0
   61.1340   44.8200   98.3370 H   0  0  0  0  0
   59.9570   44.1710   99.9770 H   0  0  0  0  0
   59.1460   45.6510  101.3080 H   0  0  0  0  0
   59.5330   47.6710  100.9590 H   0  0  0  0  0
   63.1780   51.6210   97.1890 H   0  0  0  0  0
   63.5030   49.8810   97.9910 H   0  0  0  0  0
   62.3960   52.7930   98.3410 H   0  0  0  0  0
   61.3440   52.0180  100.4660 H   0  0  0  0  0
   61.6990   52.7470  102.3700 H   0  0  0  0  0
   65.0670   53.7000  101.3650 H   0  0  0  0  0
   64.6920   52.9630   99.4650 H   0  0  0  0  0
   63.4550   54.9930  103.7130 H   0  0  0  0  0
   64.7320   53.7010  103.9920 H   0  0  0  0  0
   62.8360   47.2030   97.1980 H   0  0  0  0  0
   62.1020   45.5220   97.7850 H   0  0  0  0  0
   60.7010   45.5630   96.7010 H   0  0  0  0  0
   60.9880   47.4360   96.3260 H   0  0  0  0  0
   61.8800   44.4760   96.0370 H   0  0  0  0  0
   62.9600   44.1170   94.3150 H   0  0  0  0  0
   63.6050   45.6780   93.1020 H   0  0  0  0  0
   63.1400   47.6820   93.6520 H   0  0  0  0  0
   62.0350   48.0450   95.4200 H   0  0  0  0  0
  1 13  2  0  0  0
  1  5  1  0  0  0
  1  2  1  0  0  0
  2  3  1  0  0  0
  2 10  2  0  0  0
  3  4  2  0  0  0
  3  9  1  0  0  0
  4  5  1  0  0  0
  4  6  1  0  0  0
  5 29  1  0  0  0
  6  7  2  0  0  0
  6 37  1  0  0  0
  7  8  1  0  0  0
  7 38  1  0  0  0
  8  9  2  0  0  0
  8 39  1  0  0  0
  9 40  1  0  0  0
 10 11  1  0  0  0
 11 12  2  0  0  0
 12 14  1  0  0  0
 12 13  1  0  0  0
 14 15  1  0  0  0
 15 16  1  0  0  0
 15 41  1  0  0  0
 15 42  1  0  0  0
 16 17  1  0  0  0
 16 18  2  0  0  0
 17 19  1  0  0  0
 17 43  1  0  0  0
 19 24  2  0  0  0
 19 20  1  0  0  0
 20 21  2  0  0  0
 20 44  1  0  0  0
 21 22  1  0  0  0
 21 45  1  0  0  0
 22 23  2  0  0  0
 22 25  1  0  0  0
 23 24  1  0  0  0
 23 46  1  0  0  0
 24 47  1  0  0  0
 25 27  2  0  0  0
 25 26  2  0  0  0
 25 28  1  0  0  0
 28 48  1  0  0  0
 28 49  1  0  0  0
 29 30  1  0  0  0
 29 50  1  0  0  0
 29 51  1  0  0  0
 30 31  1  0  0  0
 30 52  1  0  0  0
 30 53  1  0  0  0
 31 36  2  0  0  0
 31 32  1  0  0  0
 32 33  2  0  0  0
 32 54  1  0  0  0
 33 34  1  0  0  0
 33 55  1  0  0  0
 34 35  2  0  0  0
 34 56  1  0  0  0
 35 36  1  0  0  0
 35 57  1  0  0  0
 36 58  1  0  0  0
M  CHG  3  18  -1  26  -1  27  -1
M  END
>  <COMPND>
    ligand_BC.pdb 

>  <AUTHOR>
    GENERATED BY OPEN BABEL 2.2.1

>  <MASTER>
        0    0    0    0    0    0    0    0   58    0   58    0

$$$$
PMC1IJY_out_4.pdb_25009_ChemDiv_6141-0.pdb
 OpenBabel06131016433D

 52 55  0  0  0  0  0  0  0  0999 V2000
   61.7380   47.0790   99.6820 N   0  0  0  0  0
   61.5810   47.9500  100.1360 C   0  0  0  0  0
   60.8630   47.8070  100.8300 N   0  0  0  0  0
   60.5920   46.8540  100.7890 C   0  0  0  0  0
   61.1320   46.4050  100.0820 C   0  0  0  0  0
   61.0000   45.4350   99.8930 N   0  0  0  0  0
   60.3210   44.9050  100.4160 C   0  0  0  0  0
   59.7810   45.3540  101.1230 N   0  0  0  0  0
   59.9190   46.3350  101.3100 C   0  0  0  0  0
   59.3770   46.7860  102.0190 N   0  0  0  0  0
   62.0460   48.8100   99.9450 S   0  0  0  0  0
   61.5830   49.5240   99.4250 C   0  0  0  0  0
   62.0990   50.3070   99.0790 C   0  0  0  0  0
   62.7170   50.1960   98.3030 O   0  0  0  0  0
   61.9990   51.2020   99.5070 C   0  0  0  0  0
   62.7700   51.6100  100.0120 O   0  0  0  0  0
   62.6700   52.5080  100.4350 C   0  0  0  0  0
   62.3560   52.5850  101.3860 C   0  0  0  0  0
   62.2570   53.4820  101.8090 C   0  0  0  0  0
   62.4710   54.3150  101.2850 C   0  0  0  0  0
   62.7860   54.2380  100.3330 C   0  0  0  0  0
   62.8850   53.3370   99.9100 C   0  0  0  0  0
   62.4010   46.9190   98.9450 C   0  0  0  0  0
   62.1170   46.9680   97.9900 C   0  0  0  0  0
   62.7300   46.6350   97.2720 O   0  0  0  0  0
   62.4530   46.7040   96.3120 C   0  0  0  0  0
   62.7190   47.5030   95.7720 C   0  0  0  0  0
   62.4440   47.5730   94.8200 C   0  0  0  0  0
   61.9000   46.8440   94.3960 C   0  0  0  0  0
   61.6370   46.0480   94.9410 C   0  0  0  0  0
   61.6150   46.9030   93.4300 C   0  0  0  0  0
   61.9130   45.9810   95.8920 C   0  0  0  0  0
   60.1760   43.8330  100.2070 H   0  0  0  0  0
   59.5220   47.8390  102.2230 H   0  0  0  0  0
   58.6450   46.2210  102.5820 H   0  0  0  0  0
   60.5010   49.4500   99.2320 H   0  0  0  0  0
   61.0920   51.1720  100.1970 H   0  0  0  0  0
   61.9060   51.8930   98.6050 H   0  0  0  0  0
   62.1210   51.6760  101.9620 H   0  0  0  0  0
   61.9130   53.5620  102.8520 H   0  0  0  0  0
   62.3610   55.3060  101.7530 H   0  0  0  0  0
   63.0220   55.1460   99.7560 H   0  0  0  0  0
   63.2300   53.2540   98.8670 H   0  0  0  0  0
   63.4490   46.6880   99.1930 H   0  0  0  0  0
   61.1330   47.3870   97.7270 H   0  0  0  0  0
   63.3170   48.3050   96.2330 H   0  0  0  0  0
   62.7370   48.4540   94.2280 H   0  0  0  0  0
   61.0390   45.2430   94.4850 H   0  0  0  0  0
   62.0050   47.8740   92.9770 H   0  0  0  0  0
   60.4790   46.8590   93.3500 H   0  0  0  0  0
   62.0510   46.0200   92.8560 H   0  0  0  0  0
   61.6200   45.1010   96.4860 H   0  0  0  0  0
  1 23  1  0  0  0
  1  5  1  0  0  0
  1  2  1  0  0  0
  2 11  1  0  0  0
  2  3  2  0  0  0
  3  4  1  0  0  0
  4  5  2  0  0  0
  4  9  1  0  0  0
  5  6  1  0  0  0
  6  7  2  0  0  0
  7  8  1  0  0  0
  7 33  1  0  0  0
  8  9  2  0  0  0
  9 10  1  0  0  0
 10 34  1  0  0  0
 10 35  1  0  0  0
 11 12  2  0  0  0
 12 13  1  0  0  0
 12 36  1  0  0  0
 13 14  2  0  0  0
 13 15  1  0  0  0
 15 16  1  0  0  0
 15 37  1  0  0  0
 15 38  1  0  0  0
 16 17  1  0  0  0
 17 22  2  0  0  0
 17 18  1  0  0  0
 18 19  2  0  0  0
 18 39  1  0  0  0
 19 20  1  0  0  0
 19 40  1  0  0  0
 20 21  2  0  0  0
 20 41  1  0  0  0
 21 22  1  0  0  0
 21 42  1  0  0  0
 22 43  1  0  0  0
 23 24  2  0  0  0
 23 44  1  0  0  0
 24 25  1  0  0  0
 24 45  1  0  0  0
 25 26  1  0  0  0
 26 27  2  0  0  0
 26 32  1  0  0  0
 27 28  1  0  0  0
 27 46  1  0  0  0
 28 29  2  0  0  0
 28 47  1  0  0  0
 29 31  1  0  0  0
 29 30  1  0  0  0
 30 32  2  0  0  0
 30 48  1  0  0  0
 31 49  1  0  0  0
 31 50  1  0  0  0
 31 51  1  0  0  0
 32 52  1  0  0  0
M  CHG  1  14  -1
M  END
>  <COMPND>
    ligand_BC.pdb 

>  <AUTHOR>
    GENERATED BY OPEN BABEL 2.2.1

>  <MASTER>
        0    0    0    0    0    0    0    0   52    0   52    0

$$$$
PMC1IJY_out_4.pdb_24516_ChemDiv_8015-1.pdb
 OpenBabel06131016433D

 63 69  0  0  0  0  0  0  0  0999 V2000
   62.1640   49.3140   96.8550 C   0  0  0  0  0
   62.0560   48.8230   97.6760 O   0  0  0  0  0
   61.8290   47.8830   97.6500 C   0  0  0  0  0
   61.7120   47.4390   96.8030 C   0  0  0  0  0
   61.8220   47.9350   95.9790 C   0  0  0  0  0
   62.0480   48.8700   96.0080 C   0  0  0  0  0
   62.1560   49.3610   95.1870 C   0  0  0  0  0
   62.4990   50.7410   96.0620 C   0  0  0  0  0
   62.3900   50.2490   96.8830 C   0  0  0  0  0
   61.5950   46.9940   95.9530 C   0  0  0  0  0
   61.4780   46.5540   95.1100 C   0  0  0  0  0
   61.8140   47.9840   94.3150 C   0  0  0  0  0
   61.9300   48.4250   95.1570 C   0  0  0  0  0
   61.4860   46.5040   96.7750 C   0  0  0  0  0
   61.3760   46.0090   97.5980 C   0  0  0  0  0
   61.4930   46.4520   98.4450 C   0  0  0  0  0
   61.7200   47.3920   98.4710 C   0  0  0  0  0
   62.2810   49.7560   97.7010 C   0  0  0  0  0
   63.1500   49.7850   98.1160 C   0  0  0  0  0
   63.2660   50.2280   98.9630 C   0  0  0  0  0
   62.5150   50.6440   99.3970 C   0  0  0  0  0
   61.6460   50.6160   98.9830 C   0  0  0  0  0
   61.5300   50.1730   98.1370 C   0  0  0  0  0
   63.9020   49.3670   97.6810 O   0  0  0  0  0
   64.3980   48.6740   98.1370 C   0  0  0  0  0
   64.0250   47.7910   98.2210 O   0  0  0  0  0
   65.2700   48.8680   98.5080 C   0  0  0  0  0
   62.6320   51.0890  100.2480 O   0  0  0  0  0
   62.8640   52.0210  100.2730 C   0  0  0  0  0
   63.7620   52.3070  100.0650 O   0  0  0  0  0
   62.1940   52.6780  100.5070 C   0  0  0  0  0
   61.3840   45.9590   99.2630 O   0  0  0  0  0
   60.5430   45.9740   99.7270 C   0  0  0  0  0
   59.7810   45.5170   99.3560 O   0  0  0  0  0
   60.4570   46.4450  100.5650 C   0  0  0  0  0
   62.0880   48.9530   97.6790 H   0  0  0  0  0
   61.4410   50.1850   94.8560 H   0  0  0  0  0
   62.9820   50.0050   94.7370 H   0  0  0  0  0
   62.6530   51.8310   96.0900 H   0  0  0  0  0
   62.4700   50.2130   95.0960 H   0  0  0  0  0
   62.1320   45.6210   95.0740 H   0  0  0  0  0
   61.7480   47.2590   94.2560 H   0  0  0  0  0
   60.3850   46.2500   94.9940 H   0  0  0  0  0
   60.9330   48.4490   93.7600 H   0  0  0  0  0
   61.6360   46.8690   94.4740 H   0  0  0  0  0
   62.7600   48.1120   93.6910 H   0  0  0  0  0
   61.2180   45.3960   96.7440 H   0  0  0  0  0
   61.1170   44.9390   97.5670 H   0  0  0  0  0
   61.8540   47.9000   99.4390 H   0  0  0  0  0
   62.3210   49.0100   98.2260 H   0  0  0  0  0
   62.9190   50.6550   97.4170 H   0  0  0  0  0
   64.2600   50.2590   99.4360 H   0  0  0  0  0
   60.7850   51.0910   99.4780 H   0  0  0  0  0
   60.5350   50.1420   97.6650 H   0  0  0  0  0
   65.5350   49.9590   98.3080 H   0  0  0  0  0
   66.0560   48.1810   98.0500 H   0  0  0  0  0
   65.2470   48.6890   99.6340 H   0  0  0  0  0
   62.6570   53.7190  100.4820 H   0  0  0  0  0
   61.7710   52.4590  101.5430 H   0  0  0  0  0
   61.3410   52.6290   99.7520 H   0  0  0  0  0
   61.4570   46.9190  100.8400 H   0  0  0  0  0
   60.1200   45.7300  101.3870 H   0  0  0  0  0
   59.6720   47.2640  100.4560 H   0  0  0  0  0
  1  6  1  0  0  0
  1  9  1  0  0  0
  1  2  1  0  0  0
  1 18  1  0  0  0
  2 18  1  0  0  0
  3  4  1  0  0  0
  3 17  2  0  0  0
  3 36  1  0  0  0
  4 10  1  0  0  0
  4  5  1  0  0  0
  4 14  1  0  0  0
  5 13  1  0  0  0
  5 10  1  0  0  0
  5  6  1  0  0  0
  6 13  1  0  0  0
  6  7  1  0  0  0
  7 13  1  0  0  0
  7 37  1  0  0  0
  7 38  1  0  0  0
  8  9  2  0  0  0
  8 39  1  0  0  0
  8 40  1  0  0  0
  9 18  1  0  0  0
 10 11  1  0  0  0
 10 14  1  0  0  0
 11 41  1  0  0  0
 11 42  1  0  0  0
 11 43  1  0  0  0
 12 13  1  0  0  0
 12 44  1  0  0  0
 12 45  1  0  0  0
 12 46  1  0  0  0
 14 15  1  0  0  0
 14 47  1  0  0  0
 15 16  2  0  0  0
 15 48  1  0  0  0
 16 17  1  0  0  0
 16 32  1  0  0  0
 17 49  1  0  0  0
 18 23  1  0  0  0
 19 24  1  0  0  0
 19 20  1  0  0  0
 19 50  1  0  0  0
 19 51  1  0  0  0
 20 21  2  0  0  0
 20 52  1  0  0  0
 21 22  1  0  0  0
 21 28  1  0  0  0
 22 23  2  0  0  0
 22 53  1  0  0  0
 23 54  1  0  0  0
 24 25  1  0  0  0
 25 26  2  0  0  0
 25 27  1  0  0  0
 27 55  1  0  0  0
 27 56  1  0  0  0
 27 57  1  0  0  0
 28 29  1  0  0  0
 29 30  2  0  0  0
 29 31  1  0  0  0
 31 58  1  0  0  0
 31 59  1  0  0  0
 31 60  1  0  0  0
 32 33  1  0  0  0
 33 34  2  0  0  0
 33 35  1  0  0  0
 35 61  1  0  0  0
 35 62  1  0  0  0
 35 63  1  0  0  0
M  CHG  3  26  -1  30  -1  34  -1
M  END
>  <COMPND>
    ligand_BC.pdb 

>  <AUTHOR>
    GENERATED BY OPEN BABEL 2.2.1

>  <MASTER>
        0    0    0    0    0    0    0    0   63    0   63    0

$$$$
PMC1IJY_out_4.pdb_24329_ChemDiv_000A-0.pdb
 OpenBabel06131016433D

 58 62  0  0  0  0  0  0  0  0999 V2000
   61.3600   47.9620   98.3390 C   0  0  0  0  0
   60.7980   48.1040   99.1700 C   0  0  0  0  0
   60.5130   47.2140   99.4900 C   0  0  0  0  0
   60.8780   46.5310   98.8880 C   0  0  0  0  0
   61.4180   46.9860   98.1530 N   0  0  0  0  0
   60.7070   45.5580   99.0340 C   0  0  0  0  0
   60.1480   45.2430   99.8120 C   0  0  0  0  0
   59.7620   45.9530  100.4460 C   0  0  0  0  0
   59.9490   46.9140  100.2760 C   0  0  0  0  0
   60.6400   49.0370   99.4970 N   0  0  0  0  0
   61.0200   49.8210   99.0270 N   0  0  0  0  0
   61.5830   49.6790   98.1970 C   0  0  0  0  0
   61.7570   48.7550   97.8480 N   0  0  0  0  0
   61.9790   50.4720   97.7050 S   0  0  0  0  0
   62.8810   50.8360   97.9610 C   0  0  0  0  0
   63.0590   51.2100   98.8680 C   0  0  0  0  0
   62.8390   52.1500   99.0910 N   0  0  0  0  0
   63.4730   50.6150   99.5760 O   0  0  0  0  0
   63.0240   52.5050  100.0020 C   0  0  0  0  0
   62.3240   52.4610  100.7030 C   0  0  0  0  0
   62.4950   52.8090  101.6110 C   0  0  0  0  0
   63.3680   53.2140  101.8560 C   0  0  0  0  0
   64.0850   53.2580  101.1350 C   0  0  0  0  0
   63.9050   52.9080  100.2330 C   0  0  0  0  0
   63.5200   53.5570  102.7690 S   0  0  0  0  0
   63.7860   52.6340  103.0730 O   0  0  0  0  0
   63.2580   54.4770  102.4750 O   0  0  0  0  0
   63.6740   53.8950  103.6800 N   0  0  0  0  0
   61.9050   46.5790   97.4050 C   0  0  0  0  0
   61.4430   46.4150   96.5500 C   0  0  0  0  0
   61.9770   46.2290   95.6990 C   0  0  0  0  0
   62.2050   45.3280   95.4200 C   0  0  0  0  0
   62.7230   45.1560   94.5940 C   0  0  0  0  0
   63.0300   45.8880   94.0180 C   0  0  0  0  0
   62.8080   46.8410   94.2810 C   0  0  0  0  0
   62.2810   47.0130   95.1230 C   0  0  0  0  0
   61.1340   44.8200   98.3370 H   0  0  0  0  0
   59.9570   44.1710   99.9770 H   0  0  0  0  0
   59.1460   45.6510  101.3080 H   0  0  0  0  0
   59.5330   47.6710  100.9590 H   0  0  0  0  0
   63.1780   51.6210   97.1890 H   0  0  0  0  0
   63.5030   49.8810   97.9910 H   0  0  0  0  0
   62.3960   52.7930   98.3410 H   0  0  0  0  0
   61.3440   52.0180  100.4660 H   0  0  0  0  0
   61.6990   52.7470  102.3700 H   0  0  0  0  0
   65.0670   53.7000  101.3650 H   0  0  0  0  0
   64.6920   52.9630   99.4650 H   0  0  0  0  0
   63.4550   54.9930  103.7130 H   0  0  0  0  0
   64.7320   53.7010  103.9920 H   0  0  0  0  0
   62.8360   47.2030   97.1980 H   0  0  0  0  0
   62.1020   45.5220   97.7850 H   0  0  0  0  0
   60.7010   45.5630   96.7010 H   0  0  0  0  0
   60.9880   47.4360   96.3260 H   0  0  0  0  0
   61.8800   44.4760   96.0370 H   0  0  0  0  0
   62.9600   44.1170   94.3150 H   0  0  0  0  0
   63.6050   45.6780   93.1020 H   0  0  0  0  0
   63.1400   47.6820   93.6520 H   0  0  0  0  0
   62.0350   48.0450   95.4200 H   0  0  0  0  0
  1 13  2  0  0  0
  1  5  1  0  0  0
  1  2  1  0  0  0
  2  3  1  0  0  0
  2 10  2  0  0  0
  3  4  2  0  0  0
  3  9  1  0  0  0
  4  5  1  0  0  0
  4  6  1  0  0  0
  5 29  1  0  0  0
  6  7  2  0  0  0
  6 37  1  0  0  0
  7  8  1  0  0  0
  7 38  1  0  0  0
  8  9  2  0  0  0
  8 39  1  0  0  0
  9 40  1  0  0  0
 10 11  1  0  0  0
 11 12  2  0  0  0
 12 14  1  0  0  0
 12 13  1  0  0  0
 14 15  1  0  0  0
 15 16  1  0  0  0
 15 41  1  0  0  0
 15 42  1  0  0  0
 16 17  1  0  0  0
 16 18  2  0  0  0
 17 19  1  0  0  0
 17 43  1  0  0  0
 19 24  2  0  0  0
 19 20  1  0  0  0
 20 21  2  0  0  0
 20 44  1  0  0  0
 21 22  1  0  0  0
 21 45  1  0  0  0
 22 23  2  0  0  0
 22 25  1  0  0  0
 23 24  1  0  0  0
 23 46  1  0  0  0
 24 47  1  0  0  0
 25 27  2  0  0  0
 25 26  2  0  0  0
 25 28  1  0  0  0
 28 48  1  0  0  0
 28 49  1  0  0  0
 29 30  1  0  0  0
 29 50  1  0  0  0
 29 51  1  0  0  0
 30 31  1  0  0  0
 30 52  1  0  0  0
 30 53  1  0  0  0
 31 36  2  0  0  0
 31 32  1  0  0  0
 32 33  2  0  0  0
 32 54  1  0  0  0
 33 34  1  0  0  0
 33 55  1  0  0  0
 34 35  2  0  0  0
 34 56  1  0  0  0
 35 36  1  0  0  0
 35 57  1  0  0  0
 36 58  1  0  0  0
M  CHG  3  18  -1  26  -1  27  -1
M  END
>  <COMPND>
    ligand_BC.pdb 

>  <AUTHOR>
    GENERATED BY OPEN BABEL 2.2.1

>  <MASTER>
        0    0    0    0    0    0    0    0   58    0   58    0

$$$$
PMC1IJY_out_4.pdb_24917_ChemDiv_4802-0.pdb
 OpenBabel06131016433D

 59 63  0  0  0  0  0  0  0  0999 V2000
   64.6300   50.9810   97.7050 C   0  0  0  0  0
   65.4410   51.2730   97.4100 N   0  0  0  0  0
   65.6940   51.9520   96.7020 C   0  0  0  0  0
   66.5280   52.0110   96.6510 C   0  0  0  0  0
   64.8950   52.4500   96.1710 O   0  0  0  0  0
   66.9660   51.4190   97.2770 C   0  0  0  0  0
   67.1970   52.6120   96.0310 C   0  0  0  0  0
   66.3160   50.9850   97.7220 C   0  0  0  0  0
   68.0650   51.3960   97.3150 C   0  0  0  0  0
   66.3530   50.2640   98.4780 O   0  0  0  0  0
   68.5560   51.9030   96.7910 C   0  0  0  0  0
   68.1580   52.6130   96.0420 C   0  0  0  0  0
   64.0680   50.2810   97.2650 C   0  0  0  0  0
   63.3400   50.4740   96.6190 N   0  0  0  0  0
   64.3740   49.3520   97.5940 O   0  0  0  0  0
   62.8090   49.7140   96.2100 C   0  0  0  0  0
   63.1130   49.2020   95.3540 C   0  0  0  0  0
   62.5160   48.4600   95.0250 C   0  0  0  0  0
   61.7030   48.2090   95.4470 C   0  0  0  0  0
   61.4410   48.6910   96.2320 C   0  0  0  0  0
   61.9350   49.4090   96.6240 C   0  0  0  0  0
   61.1610   47.4330   95.0290 S   0  0  0  0  0
   60.6270   46.6850   94.6190 O   0  0  0  0  0
   60.4710   48.1090   94.6930 O   0  0  0  0  0
   61.8520   46.7880   95.3700 N   0  0  0  0  0
   62.4120   46.2770   94.7090 C   0  0  0  0  0
   63.0870   45.6460   95.0470 N   0  0  0  0  0
   62.2350   46.4530   93.7840 N   0  0  0  0  0
   63.6220   45.1600   94.3390 C   0  0  0  0  0
   63.5080   45.2790   93.4000 C   0  0  0  0  0
   62.7630   45.9740   93.1170 C   0  0  0  0  0
   64.0240   51.2370   98.5360 C   0  0  0  0  0
   63.9190   52.2140   98.7740 C   0  0  0  0  0
   64.6120   52.6290   99.3490 C   0  0  0  0  0
   64.5120   53.6260   99.5970 C   0  0  0  0  0
   63.7370   54.1850   99.2740 C   0  0  0  0  0
   63.0480   53.7560   98.6970 C   0  0  0  0  0
   63.1550   52.7090   98.4380 C   0  0  0  0  0
   65.6190   51.5420   97.6230 H   0  0  0  0  0
   66.7160   53.2940   95.3120 H   0  0  0  0  0
   68.5630   50.7200   98.0280 H   0  0  0  0  0
   69.6510   51.8250   96.8880 H   0  0  0  0  0
   68.7850   53.2420   95.3900 H   0  0  0  0  0
   63.1130   51.4980   96.3510 H   0  0  0  0  0
   64.0470   49.4610   94.8310 H   0  0  0  0  0
   62.8240   47.9080   94.1230 H   0  0  0  0  0
   60.4990   48.3950   96.7200 H   0  0  0  0  0
   61.5530   49.9070   97.5290 H   0  0  0  0  0
   61.9920   46.6450   96.4340 H   0  0  0  0  0
   64.3890   44.4440   94.6760 H   0  0  0  0  0
   64.1110   44.7300   92.6600 H   0  0  0  0  0
   62.5790   46.1610   92.0470 H   0  0  0  0  0
   64.4050   50.6770   99.4530 H   0  0  0  0  0
   62.9770   50.9330   98.2030 H   0  0  0  0  0
   65.4680   52.0400   99.7140 H   0  0  0  0  0
   65.2770   54.0950  100.2360 H   0  0  0  0  0
   63.6550   55.2470   99.5540 H   0  0  0  0  0
   62.1890   54.3380   98.3270 H   0  0  0  0  0
   62.4060   52.2130   97.8010 H   0  0  0  0  0
  1 13  1  0  0  0
  1  2  1  0  0  0
  1 32  1  0  0  0
  1 39  1  0  0  0
  2  3  1  0  0  0
  2  8  1  0  0  0
  3  5  2  0  0  0
  3  4  1  0  0  0
  4  7  2  0  0  0
  4  6  1  0  0  0
  6  9  2  0  0  0
  6  8  1  0  0  0
  7 12  1  0  0  0
  7 40  1  0  0  0
  8 10  2  0  0  0
  9 11  1  0  0  0
  9 41  1  0  0  0
 11 12  2  0  0  0
 11 42  1  0  0  0
 12 43  1  0  0  0
 13 14  1  0  0  0
 13 15  2  0  0  0
 14 16  1  0  0  0
 14 44  1  0  0  0
 16 17  2  0  0  0
 16 21  1  0  0  0
 17 18  1  0  0  0
 17 45  1  0  0  0
 18 19  2  0  0  0
 18 46  1  0  0  0
 19 22  1  0  0  0
 19 20  1  0  0  0
 20 21  2  0  0  0
 20 47  1  0  0  0
 21 48  1  0  0  0
 22 23  2  0  0  0
 22 24  2  0  0  0
 22 25  1  0  0  0
 25 26  1  0  0  0
 25 49  1  0  0  0
 26 28  2  0  0  0
 26 27  1  0  0  0
 27 29  2  0  0  0
 28 31  1  0  0  0
 29 30  1  0  0  0
 29 50  1  0  0  0
 30 31  2  0  0  0
 30 51  1  0  0  0
 31 52  1  0  0  0
 32 33  1  0  0  0
 32 53  1  0  0  0
 32 54  1  0  0  0
 33 38  2  0  0  0
 33 34  1  0  0  0
 34 35  2  0  0  0
 34 55  1  0  0  0
 35 36  1  0  0  0
 35 56  1  0  0  0
 36 37  2  0  0  0
 36 57  1  0  0  0
 37 38  1  0  0  0
 37 58  1  0  0  0
 38 59  1  0  0  0
M  CHG  5   5  -1  10  -1  15  -1  23  -1  24  -1
M  END
>  <COMPND>
    ligand_BC.pdb 

>  <AUTHOR>
    GENERATED BY OPEN BABEL 2.2.1

>  <MASTER>
        0    0    0    0    0    0    0    0   59    0   59    0

$$$$
PMC1IJY_out_4.pdb_24288_ChemDiv_K284-6.pdb
 OpenBabel06131016433D

 69 71  0  0  0  0  0  0  0  0999 V2000
   62.6470   49.1080   98.7970 N   0  0  0  0  0
   62.6270   48.3100   98.2010 C   0  0  0  0  0
   62.1590   47.4730   98.5010 N   0  0  0  0  0
   61.7160   47.4420   99.3950 C   0  0  0  0  0
   61.7370   48.2390   99.9910 C   0  0  0  0  0
   62.2000   49.0720   99.6960 C   0  0  0  0  0
   62.2210   49.8700  100.2920 O   0  0  0  0  0
   61.2950   48.2080  100.8830 C   0  0  0  0  0
   60.8340   47.3780  101.1740 C   0  0  0  0  0
   60.8130   46.5800  100.5780 C   0  0  0  0  0
   61.2540   46.6100   99.6890 C   0  0  0  0  0
   63.1130   49.9420   98.5000 C   0  0  0  0  0
   64.0370   50.1460   98.8100 C   0  0  0  0  0
   64.5030   50.9770   98.5140 C   0  0  0  0  0
   65.0810   50.9560   97.7070 C   0  0  0  0  0
   65.5490   51.7890   97.4090 C   0  0  0  0  0
   65.4330   52.6420   97.9250 C   0  0  0  0  0
   64.8490   52.6560   98.7360 C   0  0  0  0  0
   64.3860   51.8300   99.0300 C   0  0  0  0  0
   66.1390   51.7690   96.5870 O   0  0  0  0  0
   67.0960   51.4720   96.6730 C   0  0  0  0  0
   65.9050   53.4850   97.6260 O   0  0  0  0  0
   65.4380   54.1150   97.0110 C   0  0  0  0  0
   63.0710   48.3340   97.2980 S   0  0  0  0  0
   62.5270   48.4460   96.4660 C   0  0  0  0  0
   62.4290   47.6880   95.8270 C   0  0  0  0  0
   63.1450   47.5010   95.1600 O   0  0  0  0  0
   61.6120   47.1170   95.8570 N   0  0  0  0  0
   61.5090   46.3530   95.2150 C   0  0  0  0  0
   60.8300   45.6440   95.3880 C   0  0  0  0  0
   60.3530   45.2170   94.6240 O   0  0  0  0  0
   59.6330   44.5430   94.8020 C   0  0  0  0  0
   62.0830   49.3140   96.2730 C   0  0  0  0  0
   62.4870   49.9470   95.6060 C   0  0  0  0  0
   60.3820   47.3380  102.0790 O   0  0  0  0  0
   60.9100   47.1170  102.8950 C   0  0  0  0  0
   60.3410   45.7300  100.8780 O   0  0  0  0  0
   59.3700   45.6030  100.6750 C   0  0  0  0  0
   61.3170   49.0900  101.5430 H   0  0  0  0  0
   61.2320   45.7270   99.0310 H   0  0  0  0  0
   62.5980   50.6420   97.8230 H   0  0  0  0  0
   64.5510   49.4460   99.4880 H   0  0  0  0  0
   65.2070   50.0190   97.1420 H   0  0  0  0  0
   64.7200   53.5910   99.3040 H   0  0  0  0  0
   63.7430   51.8480   99.9240 H   0  0  0  0  0
   67.6010   51.5140   95.6520 H   0  0  0  0  0
   67.1440   50.4140   97.0940 H   0  0  0  0  0
   67.6420   52.1700   97.3900 H   0  0  0  0  0
   66.1190   55.0010   96.7850 H   0  0  0  0  0
   64.4640   54.4760   97.4810 H   0  0  0  0  0
   65.1910   53.5750   96.0380 H   0  0  0  0  0
   62.8830   48.3040   97.5390 H   0  0  0  0  0
   60.8360   47.3220   96.5830 H   0  0  0  0  0
   61.3270   46.7800   94.1740 H   0  0  0  0  0
   62.4900   45.7890   95.3480 H   0  0  0  0  0
   61.3160   44.8240   96.0140 H   0  0  0  0  0
   59.9960   46.2230   95.9070 H   0  0  0  0  0
   59.2080   44.1700   93.8120 H   0  0  0  0  0
   58.8070   45.0060   95.4360 H   0  0  0  0  0
   60.0770   43.6630   95.3750 H   0  0  0  0  0
   61.1480   49.5820   96.7900 H   0  0  0  0  0
   63.4220   49.6790   95.0890 H   0  0  0  0  0
   61.9950   50.9090   95.3920 H   0  0  0  0  0
   60.2240   47.1230  103.8050 H   0  0  0  0  0
   61.7560   47.8690  103.0340 H   0  0  0  0  0
   61.3670   46.0790  102.7760 H   0  0  0  0  0
   59.0230   44.5980  101.0880 H   0  0  0  0  0
   59.1930   45.6500   99.5500 H   0  0  0  0  0
   58.7710   46.4380  101.1690 H   0  0  0  0  0
  1  2  1  0  0  0
  1 12  1  0  0  0
  1  6  1  0  0  0
  2 24  1  0  0  0
  2  3  2  0  0  0
  3  4  1  0  0  0
  4 11  2  0  0  0
  4  5  1  0  0  0
  5  6  1  0  0  0
  5  8  2  0  0  0
  6  7  2  0  0  0
  8  9  1  0  0  0
  8 39  1  0  0  0
  9 10  2  0  0  0
  9 35  1  0  0  0
 10 11  1  0  0  0
 10 37  1  0  0  0
 11 40  1  0  0  0
 12 13  2  0  0  0
 12 41  1  0  0  0
 13 14  1  0  0  0
 13 42  1  0  0  0
 14 15  2  0  0  0
 14 19  1  0  0  0
 15 16  1  0  0  0
 15 43  1  0  0  0
 16 20  1  0  0  0
 16 17  2  0  0  0
 17 22  1  0  0  0
 17 18  1  0  0  0
 18 19  2  0  0  0
 18 44  1  0  0  0
 19 45  1  0  0  0
 20 21  1  0  0  0
 21 46  1  0  0  0
 21 47  1  0  0  0
 21 48  1  0  0  0
 22 23  1  0  0  0
 23 49  1  0  0  0
 23 50  1  0  0  0
 23 51  1  0  0  0
 24 25  1  0  0  0
 25 26  1  0  0  0
 25 33  1  0  0  0
 25 52  1  0  0  0
 26 27  2  0  0  0
 26 28  1  0  0  0
 28 29  1  0  0  0
 28 53  1  0  0  0
 29 30  1  0  0  0
 29 54  1  0  0  0
 29 55  1  0  0  0
 30 31  1  0  0  0
 30 56  1  0  0  0
 30 57  1  0  0  0
 31 32  1  0  0  0
 32 58  1  0  0  0
 32 59  1  0  0  0
 32 60  1  0  0  0
 33 34  2  0  0  0
 33 61  1  0  0  0
 34 62  1  0  0  0
 34 63  1  0  0  0
 35 36  1  0  0  0
 36 64  1  0  0  0
 36 65  1  0  0  0
 36 66  1  0  0  0
 37 38  1  0  0  0
 38 67  1  0  0  0
 38 68  1  0  0  0
 38 69  1  0  0  0
M  CHG  2   7  -1  27  -1
M  END
>  <COMPND>
    ligand_BC.pdb 

>  <AUTHOR>
    GENERATED BY OPEN BABEL 2.2.1

>  <MASTER>
        0    0    0    0    0    0    0    0   69    0   69    0

$$$$
PMC1IJY_out_4.pdb_24671_ChemDiv_1552-0.pdb
 OpenBabel06131016433D

 58 64  0  0  0  0  0  0  0  0999 V2000
   61.4030   46.4330   97.8370 N   0  0  0  0  0
   61.6290   45.5910   96.3610 C   0  0  0  0  0
   60.2400   44.6370   95.9480 C   0  0  0  0  0
   59.0320   44.8890   97.2640 C   0  0  0  0  0
   59.7550   45.9940   98.4200 C   0  0  0  0  0
   59.0110   46.5610   99.8670 O   0  0  0  0  0
   58.0990   43.7520   96.2200 C   0  0  0  0  0
   58.5460   43.9580   96.1960 C   0  0  0  0  0
   58.8500   43.8950   95.8650 C   0  0  0  0  0
   58.7440   43.6180   95.5180 C   0  0  0  0  0
   58.3250   43.4090   95.5160 C   0  0  0  0  0
   58.0400   43.4680   95.8250 C   0  0  0  0  0
   57.5790   43.2650   95.8640 C   0  0  0  0  0
   57.5340   42.9780   95.4550 C   0  0  0  0  0
   57.8190   42.9190   95.1450 C   0  0  0  0  0
   58.2380   43.1280   95.1470 C   0  0  0  0  0
   59.2710   44.1090   95.8740 C   0  0  0  0  0
   59.3790   44.4080   96.2530 C   0  0  0  0  0
   59.0750   44.4710   96.5840 C   0  0  0  0  0
   58.6100   44.2470   96.5940 C   0  0  0  0  0
   63.0910   45.6600   95.3480 O   0  0  0  0  0
   62.5060   47.5030   98.6470 C   0  0  0  0  0
   64.0350   47.8650   97.8640 C   0  0  0  0  0
   64.2180   48.7900   97.5700 C   0  0  0  0  0
   65.1330   49.1380   97.6170 C   0  0  0  0  0
   65.3150   50.0660   97.3330 C   0  0  0  0  0
   66.2470   50.4090   97.3620 C   0  0  0  0  0
   66.8810   50.2140   96.5800 O   0  0  0  0  0
   66.4760   50.9120   98.1500 O   0  0  0  0  0
   61.3980   44.4920   96.5550 H   0  0  0  0  0
   60.9350   46.2100   95.7020 H   0  0  0  0  0
   60.6170   44.2210   95.0010 H   0  0  0  0  0
   60.8700   45.3210   96.5390 H   0  0  0  0  0
   59.8810   45.5150   97.5810 H   0  0  0  0  0
   58.1230   44.8390   97.8850 H   0  0  0  0  0
   59.6870   44.8560   98.4250 H   0  0  0  0  0
   59.1480   46.6050   97.6730 H   0  0  0  0  0
   59.4760   46.0710  100.7350 H   0  0  0  0  0
   56.5580   43.0600   96.3280 H   0  0  0  0  0
   57.2340   41.9580   95.8670 H   0  0  0  0  0
   56.4570   43.0520   95.0880 H   0  0  0  0  0
   58.0160   41.8010   95.0380 H   0  0  0  0  0
   57.3770   42.8760   94.0950 H   0  0  0  0  0
   58.5330   42.6380   94.1610 H   0  0  0  0  0
   60.2910   44.3120   95.4070 H   0  0  0  0  0
   58.2980   44.7290   97.5790 H   0  0  0  0  0
   63.9020   45.0980   95.8350 H   0  0  0  0  0
   63.4680   47.5880   98.0410 H   0  0  0  0  0
   62.7320   47.1170   99.6950 H   0  0  0  0  0
   62.0290   48.5340   98.7380 H   0  0  0  0  0
   62.9250   47.6380   97.7380 H   0  0  0  0  0
   64.3440   47.7280   98.9530 H   0  0  0  0  0
   64.6410   47.1420   97.2240 H   0  0  0  0  0
   63.4010   49.4250   97.1930 H   0  0  0  0  0
   65.9520   48.4990   97.9840 H   0  0  0  0  0
   64.9090   50.2090   96.2770 H   0  0  0  0  0
   64.7920   50.6840   98.1350 H   0  0  0  0  0
   67.4550   51.3140   98.2590 H   0  0  0  0  0
  1  2  1  0  0  0
  1  5  1  0  0  0
  1 22  1  0  0  0
  2 21  1  0  0  0
  2 30  1  0  0  0
  2 31  1  0  0  0
  3 18  2  0  0  0
  3 32  1  0  0  0
  3 33  1  0  0  0
  4 19  2  0  0  0
  4 34  1  0  0  0
  4 35  1  0  0  0
  5  6  1  0  0  0
  5 36  1  0  0  0
  5 37  1  0  0  0
  6 38  1  0  0  0
  7 11  1  0  0  0
  7 13  1  0  0  0
  7  9  1  0  0  0
  7 20  1  0  0  0
  8 10  1  0  0  0
  8 12  1  0  0  0
  8 17  1  0  0  0
  8 19  1  0  0  0
  9 11  1  0  0  0
  9 18  1  0  0  0
  9 20  1  0  0  0
 10 16  1  0  0  0
 10 12  1  0  0  0
 10 17  1  0  0  0
 11 15  1  0  0  0
 11 13  1  0  0  0
 12 16  1  0  0  0
 12 14  1  0  0  0
 13 15  1  0  0  0
 13 39  1  0  0  0
 14 16  1  0  0  0
 14 40  1  0  0  0
 14 41  1  0  0  0
 15 42  1  0  0  0
 15 43  1  0  0  0
 16 44  1  0  0  0
 17 19  1  0  0  0
 17 45  1  0  0  0
 18 20  1  0  0  0
 20 46  1  0  0  0
 21 47  1  0  0  0
 22 48  1  0  0  0
 22 49  1  0  0  0
 22 50  1  0  0  0
 23 24  1  0  0  0
 23 51  1  0  0  0
 23 52  1  0  0  0
 23 53  1  0  0  0
 24 25  2  0  0  0
 24 54  1  0  0  0
 25 26  1  0  0  0
 25 55  1  0  0  0
 26 27  1  0  0  0
 26 56  1  0  0  0
 26 57  1  0  0  0
 27 28  2  0  0  0
 27 29  1  0  0  0
 29 58  1  0  0  0
M  CHG  1  28  -1
M  END
>  <COMPND>
    ligand_BC.pdb 

>  <AUTHOR>
    GENERATED BY OPEN BABEL 2.2.1

>  <MASTER>
        0    0    0    0    0    0    0    0   58    0   58    0

$$$$
PMC1IJY_out_4.pdb_24288_ChemDiv_K284-6.pdb
 OpenBabel06131016433D

 69 71  0  0  0  0  0  0  0  0999 V2000
   62.6470   49.1080   98.7970 N   0  0  0  0  0
   62.6270   48.3100   98.2010 C   0  0  0  0  0
   62.1590   47.4730   98.5010 N   0  0  0  0  0
   61.7160   47.4420   99.3950 C   0  0  0  0  0
   61.7370   48.2390   99.9910 C   0  0  0  0  0
   62.2000   49.0720   99.6960 C   0  0  0  0  0
   62.2210   49.8700  100.2920 O   0  0  0  0  0
   61.2950   48.2080  100.8830 C   0  0  0  0  0
   60.8340   47.3780  101.1740 C   0  0  0  0  0
   60.8130   46.5800  100.5780 C   0  0  0  0  0
   61.2540   46.6100   99.6890 C   0  0  0  0  0
   63.1130   49.9420   98.5000 C   0  0  0  0  0
   64.0370   50.1460   98.8100 C   0  0  0  0  0
   64.5030   50.9770   98.5140 C   0  0  0  0  0
   65.0810   50.9560   97.7070 C   0  0  0  0  0
   65.5490   51.7890   97.4090 C   0  0  0  0  0
   65.4330   52.6420   97.9250 C   0  0  0  0  0
   64.8490   52.6560   98.7360 C   0  0  0  0  0
   64.3860   51.8300   99.0300 C   0  0  0  0  0
   66.1390   51.7690   96.5870 O   0  0  0  0  0
   67.0960   51.4720   96.6730 C   0  0  0  0  0
   65.9050   53.4850   97.6260 O   0  0  0  0  0
   65.4380   54.1150   97.0110 C   0  0  0  0  0
   63.0710   48.3340   97.2980 S   0  0  0  0  0
   62.5270   48.4460   96.4660 C   0  0  0  0  0
   62.4290   47.6880   95.8270 C   0  0  0  0  0
   63.1450   47.5010   95.1600 O   0  0  0  0  0
   61.6120   47.1170   95.8570 N   0  0  0  0  0
   61.5090   46.3530   95.2150 C   0  0  0  0  0
   60.8300   45.6440   95.3880 C   0  0  0  0  0
   60.3530   45.2170   94.6240 O   0  0  0  0  0
   59.6330   44.5430   94.8020 C   0  0  0  0  0
   62.0830   49.3140   96.2730 C   0  0  0  0  0
   62.4870   49.9470   95.6060 C   0  0  0  0  0
   60.3820   47.3380  102.0790 O   0  0  0  0  0
   60.9100   47.1170  102.8950 C   0  0  0  0  0
   60.3410   45.7300  100.8780 O   0  0  0  0  0
   59.3700   45.6030  100.6750 C   0  0  0  0  0
   61.3170   49.0900  101.5430 H   0  0  0  0  0
   61.2320   45.7270   99.0310 H   0  0  0  0  0
   62.5980   50.6420   97.8230 H   0  0  0  0  0
   64.5510   49.4460   99.4880 H   0  0  0  0  0
   65.2070   50.0190   97.1420 H   0  0  0  0  0
   64.7200   53.5910   99.3040 H   0  0  0  0  0
   63.7430   51.8480   99.9240 H   0  0  0  0  0
   67.6010   51.5140   95.6520 H   0  0  0  0  0
   67.1440   50.4140   97.0940 H   0  0  0  0  0
   67.6420   52.1700   97.3900 H   0  0  0  0  0
   66.1190   55.0010   96.7850 H   0  0  0  0  0
   64.4640   54.4760   97.4810 H   0  0  0  0  0
   65.1910   53.5750   96.0380 H   0  0  0  0  0
   62.8830   48.3040   97.5390 H   0  0  0  0  0
   60.8360   47.3220   96.5830 H   0  0  0  0  0
   61.3270   46.7800   94.1740 H   0  0  0  0  0
   62.4900   45.7890   95.3480 H   0  0  0  0  0
   61.3160   44.8240   96.0140 H   0  0  0  0  0
   59.9960   46.2230   95.9070 H   0  0  0  0  0
   59.2080   44.1700   93.8120 H   0  0  0  0  0
   58.8070   45.0060   95.4360 H   0  0  0  0  0
   60.0770   43.6630   95.3750 H   0  0  0  0  0
   61.1480   49.5820   96.7900 H   0  0  0  0  0
   63.4220   49.6790   95.0890 H   0  0  0  0  0
   61.9950   50.9090   95.3920 H   0  0  0  0  0
   60.2240   47.1230  103.8050 H   0  0  0  0  0
   61.7560   47.8690  103.0340 H   0  0  0  0  0
   61.3670   46.0790  102.7760 H   0  0  0  0  0
   59.0230   44.5980  101.0880 H   0  0  0  0  0
   59.1930   45.6500   99.5500 H   0  0  0  0  0
   58.7710   46.4380  101.1690 H   0  0  0  0  0
  1  2  1  0  0  0
  1 12  1  0  0  0
  1  6  1  0  0  0
  2 24  1  0  0  0
  2  3  2  0  0  0
  3  4  1  0  0  0
  4 11  2  0  0  0
  4  5  1  0  0  0
  5  6  1  0  0  0
  5  8  2  0  0  0
  6  7  2  0  0  0
  8  9  1  0  0  0
  8 39  1  0  0  0
  9 10  2  0  0  0
  9 35  1  0  0  0
 10 11  1  0  0  0
 10 37  1  0  0  0
 11 40  1  0  0  0
 12 13  2  0  0  0
 12 41  1  0  0  0
 13 14  1  0  0  0
 13 42  1  0  0  0
 14 15  2  0  0  0
 14 19  1  0  0  0
 15 16  1  0  0  0
 15 43  1  0  0  0
 16 20  1  0  0  0
 16 17  2  0  0  0
 17 22  1  0  0  0
 17 18  1  0  0  0
 18 19  2  0  0  0
 18 44  1  0  0  0
 19 45  1  0  0  0
 20 21  1  0  0  0
 21 46  1  0  0  0
 21 47  1  0  0  0
 21 48  1  0  0  0
 22 23  1  0  0  0
 23 49  1  0  0  0
 23 50  1  0  0  0
 23 51  1  0  0  0
 24 25  1  0  0  0
 25 26  1  0  0  0
 25 33  1  0  0  0
 25 52  1  0  0  0
 26 27  2  0  0  0
 26 28  1  0  0  0
 28 29  1  0  0  0
 28 53  1  0  0  0
 29 30  1  0  0  0
 29 54  1  0  0  0
 29 55  1  0  0  0
 30 31  1  0  0  0
 30 56  1  0  0  0
 30 57  1  0  0  0
 31 32  1  0  0  0
 32 58  1  0  0  0
 32 59  1  0  0  0
 32 60  1  0  0  0
 33 34  2  0  0  0
 33 61  1  0  0  0
 34 62  1  0  0  0
 34 63  1  0  0  0
 35 36  1  0  0  0
 36 64  1  0  0  0
 36 65  1  0  0  0
 36 66  1  0  0  0
 37 38  1  0  0  0
 38 67  1  0  0  0
 38 68  1  0  0  0
 38 69  1  0  0  0
M  CHG  2   7  -1  27  -1
M  END
>  <COMPND>
    ligand_BC.pdb 

>  <AUTHOR>
    GENERATED BY OPEN BABEL 2.2.1

>  <MASTER>
        0    0    0    0    0    0    0    0   69    0   69    0

$$$$
PMC1IJY_out_4.pdb_24887_ChemDiv_0131-0.pdb
 OpenBabel06131016433D

 66 67  0  0  0  0  0  0  0  0999 V2000
   62.8280   47.5930   97.7960 C   0  0  0  0  0
   63.3080   47.9700   98.5660 C   0  0  0  0  0
   64.0220   48.6130   98.4270 C   0  0  0  0  0
   64.2570   48.8780   97.5140 C   0  0  0  0  0
   63.7870   48.5090   96.7490 C   0  0  0  0  0
   63.0620   47.8570   96.8870 C   0  0  0  0  0
   64.9590   49.5100   97.3690 N   0  0  0  0  0
   64.7790   50.4640   97.3510 C   0  0  0  0  0
   63.8590   50.7830   97.4840 O   0  0  0  0  0
   65.5160   51.1110   97.1990 C   0  0  0  0  0
   65.2980   52.0470   97.0290 C   0  0  0  0  0
   66.0060   52.6540   96.8860 C   0  0  0  0  0
   66.9100   52.3770   96.9050 C   0  0  0  0  0
   66.6510   51.8590   97.0140 C   0  0  0  0  0
   67.1230   51.4620   97.0720 C   0  0  0  0  0
   66.4350   50.8080   97.2230 C   0  0  0  0  0
   68.2570   50.9110   97.1350 C   0  0  0  0  0
   66.8910   50.8280   97.2020 C   0  0  0  0  0
   65.4980   50.3980   97.3360 C   0  0  0  0  0
   62.1040   46.9410   97.9380 S   0  0  0  0  0
   61.4560   47.6750   97.9240 O   0  0  0  0  0
   62.7610   46.2220   97.9510 O   0  0  0  0  0
   61.3880   46.3040   98.0780 N   0  0  0  0  0
   60.9900   45.8420   97.3300 C   0  0  0  0  0
   60.2850   45.2150   97.4790 N   0  0  0  0  0
   61.3050   46.0130   96.4180 N   0  0  0  0  0
   59.9010   44.7660   96.7250 C   0  0  0  0  0
   60.2030   44.9300   95.8490 C   0  0  0  0  0
   59.1770   44.1170   96.8330 C   0  0  0  0  0
   60.9070   45.5520   95.6760 C   0  0  0  0  0
   61.2160   45.7190   94.7840 C   0  0  0  0  0
   63.0360   47.6630   99.5880 H   0  0  0  0  0
   64.5620   49.0400   99.2870 H   0  0  0  0  0
   64.0640   48.8190   95.7290 H   0  0  0  0  0
   63.2990   46.9180   96.2860 H   0  0  0  0  0
   62.1370   48.4250   96.5390 H   0  0  0  0  0
   65.9720   49.1570   97.2220 H   0  0  0  0  0
   63.8400   51.8820   97.4330 H   0  0  0  0  0
   64.2500   52.3870   97.0050 H   0  0  0  0  0
   65.7740   53.7130   96.6920 H   0  0  0  0  0
   67.4690   53.0210   97.6610 H   0  0  0  0  0
   67.2310   52.5110   95.8190 H   0  0  0  0  0
   67.7910   51.8590   97.0140 H   0  0  0  0  0
   66.2700   52.9340   97.0140 H   0  0  0  0  0
   66.2560   51.3010   97.9260 H   0  0  0  0  0
   66.2760   51.3290   96.0770 H   0  0  0  0  0
   68.2220   51.3900   97.0440 H   0  0  0  0  0
   67.1310   51.6890   97.0270 H   0  0  0  0  0
   66.6020   49.9920   96.4440 H   0  0  0  0  0
   66.6600   50.3740   98.2530 H   0  0  0  0  0
   69.3970   50.9110   97.1350 H   0  0  0  0  0
   67.8760   51.9860   97.1350 H   0  0  0  0  0
   67.8620   50.3530   98.0470 H   0  0  0  0  0
   67.8820   50.3810   96.1980 H   0  0  0  0  0
   65.8080   50.6430   97.2780 H   0  0  0  0  0
   67.6020   49.9980   97.3340 H   0  0  0  0  0
   65.9720   50.0870   98.3250 H   0  0  0  0  0
   66.0250   49.6370   96.6710 H   0  0  0  0  0
   61.0310   46.1090   99.0810 H   0  0  0  0  0
   59.7360   44.3950   95.0070 H   0  0  0  0  0
   58.8760   43.7090   95.8120 H   0  0  0  0  0
   58.2820   44.6050   97.3430 H   0  0  0  0  0
   59.5390   43.2570   97.4880 H   0  0  0  0  0
   60.6230   45.0800   94.0500 H   0  0  0  0  0
   62.3290   45.4850   94.7010 H   0  0  0  0  0
   61.0600   46.8200   94.5330 H   0  0  0  0  0
  1  6  1  0  0  0
  1 21  1  0  0  0
  1 20  1  0  0  0
  1  2  1  0  0  0
  2  3  2  0  0  0
  2 32  1  0  0  0
  3  4  1  0  0  0
  3 33  1  0  0  0
  4  5  2  0  0  0
  4  7  1  0  0  0
  5  6  1  0  0  0
  5 34  1  0  0  0
  6 35  1  0  0  0
  6 36  1  0  0  0
  7  8  1  0  0  0
  7 37  1  0  0  0
  8 10  1  0  0  0
  8 19  1  0  0  0
  8  9  1  0  0  0
  9 38  1  0  0  0
 10 11  1  0  0  0
 10 16  1  0  0  0
 10 19  1  0  0  0
 11 12  2  0  0  0
 11 39  1  0  0  0
 12 13  1  0  0  0
 12 40  1  0  0  0
 13 15  1  0  0  0
 13 41  1  0  0  0
 13 42  1  0  0  0
 14 43  1  0  0  0
 14 44  1  0  0  0
 14 45  1  0  0  0
 14 46  1  0  0  0
 15 18  2  0  0  0
 15 47  1  0  0  0
 16 48  1  0  0  0
 16 49  1  0  0  0
 16 50  1  0  0  0
 17 51  1  0  0  0
 17 52  1  0  0  0
 17 53  1  0  0  0
 17 54  1  0  0  0
 18 55  1  0  0  0
 18 56  1  0  0  0
 19 57  1  0  0  0
 19 58  1  0  0  0
 20 21  1  0  0  0
 20 22  2  0  0  0
 20 23  1  0  0  0
 23 24  1  0  0  0
 23 59  1  0  0  0
 24 26  2  0  0  0
 24 25  1  0  0  0
 25 27  2  0  0  0
 26 30  1  0  0  0
 27 28  1  0  0  0
 27 29  1  0  0  0
 28 30  2  0  0  0
 28 60  1  0  0  0
 29 61  1  0  0  0
 29 62  1  0  0  0
 29 63  1  0  0  0
 30 31  1  0  0  0
 31 64  1  0  0  0
 31 65  1  0  0  0
 31 66  1  0  0  0
M  CHG  1  22  -1
M  END
>  <COMPND>
    ligand_BC.pdb 

>  <AUTHOR>
    GENERATED BY OPEN BABEL 2.2.1

>  <MASTER>
        0    0    0    0    0    0    0    0   66    0   66    0

$$$$
PMC1IJY_out_4.pdb_24697_ChemDiv_3359-0.pdb
 OpenBabel06131016433D

 55 61  0  0  0  0  0  0  0  0999 V2000
   62.0050   48.4250   97.8270 N   0  0  0  0  0
   61.4000   48.9910   98.1660 C   0  0  0  0  0
   61.8350   49.6560   98.5630 C   0  0  0  0  0
   62.6970   49.5050   98.4720 C   0  0  0  0  0
   62.7930   48.7470   98.0190 C   0  0  0  0  0
   63.5680   48.3630   97.7890 O   0  0  0  0  0
   63.6870   52.1100  100.0270 C   0  0  0  0  0
   63.4130   52.8310  100.4570 C   0  0  0  0  0
   62.5560   52.9810  100.5480 C   0  0  0  0  0
   61.9720   52.4080  100.2060 C   0  0  0  0  0
   62.2490   51.6950   99.7800 C   0  0  0  0  0
   63.1060   51.5450   99.6890 C   0  0  0  0  0
   63.3860   50.8300   99.2630 C   0  0  0  0  0
   62.8140   50.2660   98.9260 C   0  0  0  0  0
   61.9550   50.4100   99.0130 C   0  0  0  0  0
   61.6650   51.1210   99.4380 C   0  0  0  0  0
   62.2760   53.6840  100.9680 C   0  0  0  0  0
   62.8460   54.2550  101.3090 C   0  0  0  0  0
   63.7030   54.1200  101.2270 C   0  0  0  0  0
   63.9940   53.3970  100.7950 C   0  0  0  0  0
   60.5110   48.8990   98.1120 O   0  0  0  0  0
   61.8310   47.6930   97.3900 C   0  0  0  0  0
   61.6550   47.7090   96.5120 C   0  0  0  0  0
   61.3820   46.9990   96.0970 N   0  0  0  0  0
   61.2100   47.0230   95.2280 C   0  0  0  0  0
   61.2700   46.2350   96.5380 C   0  0  0  0  0
   60.9370   46.3140   94.8130 C   0  0  0  0  0
   60.8280   45.5580   95.2550 O   0  0  0  0  0
   60.9970   45.5250   96.1230 C   0  0  0  0  0
   61.8340   48.5580   96.2900 O   0  0  0  0  0
   61.8200   46.9030   97.7960 C   0  0  0  0  0
   61.1440   46.6580   98.3090 C   0  0  0  0  0
   60.9380   45.8020   98.4040 S   0  0  0  0  0
   60.2520   45.5580   98.9050 C   0  0  0  0  0
   63.7980   49.2530   98.3210 H   0  0  0  0  0
   64.7660   51.9180   99.9140 H   0  0  0  0  0
   60.8920   52.5940  100.3180 H   0  0  0  0  0
   64.0950   51.1610   98.4340 H   0  0  0  0  0
   63.8580   50.2200  100.1030 H   0  0  0  0  0
   60.5830   51.3000   99.5460 H   0  0  0  0  0
   61.1940   53.8620  101.0750 H   0  0  0  0  0
   62.4790   55.1460  101.8430 H   0  0  0  0  0
   64.4210   54.8380  101.6540 H   0  0  0  0  0
   65.0750   53.2140  100.6850 H   0  0  0  0  0
   62.1000   48.6020   98.0230 H   0  0  0  0  0
   61.3450   47.9640   94.6710 H   0  0  0  0  0
   61.4800   46.1910   97.6180 H   0  0  0  0  0
   60.7260   46.3560   93.7330 H   0  0  0  0  0
   60.8600   44.5820   96.6760 H   0  0  0  0  0
   62.7810   46.8010   98.4010 H   0  0  0  0  0
   61.6980   46.1960   96.9100 H   0  0  0  0  0
   60.5520   47.4240   98.8350 H   0  0  0  0  0
   60.1590   44.4220   98.8950 H   0  0  0  0  0
   59.2920   46.0360   98.5190 H   0  0  0  0  0
   60.4250   45.9100   99.9750 H   0  0  0  0  0
  1 22  1  0  0  0
  1  5  1  0  0  0
  1  2  1  0  0  0
  2 21  2  0  0  0
  2  3  1  0  0  0
  3  4  1  0  0  0
  3 14  1  0  0  0
  3 15  1  0  0  0
  4  5  1  0  0  0
  4 14  1  0  0  0
  4 35  1  0  0  0
  5  6  2  0  0  0
  7 12  2  0  0  0
  7  8  1  0  0  0
  7 36  1  0  0  0
  8  9  2  0  0  0
  8 20  1  0  0  0
  9 10  1  0  0  0
  9 17  1  0  0  0
 10 11  2  0  0  0
 10 37  1  0  0  0
 11 16  1  0  0  0
 11 12  1  0  0  0
 12 13  1  0  0  0
 13 14  1  0  0  0
 13 38  1  0  0  0
 13 39  1  0  0  0
 14 15  1  0  0  0
 15 16  2  0  0  0
 16 40  1  0  0  0
 17 18  2  0  0  0
 17 41  1  0  0  0
 18 19  1  0  0  0
 18 42  1  0  0  0
 19 20  2  0  0  0
 19 43  1  0  0  0
 20 44  1  0  0  0
 22 23  1  0  0  0
 22 31  1  0  0  0
 22 45  1  0  0  0
 23 24  1  0  0  0
 23 30  2  0  0  0
 24 25  2  0  0  0
 24 26  1  0  0  0
 25 27  1  0  0  0
 25 46  1  0  0  0
 26 29  2  0  0  0
 26 47  1  0  0  0
 27 28  2  0  0  0
 27 48  1  0  0  0
 28 29  1  0  0  0
 29 49  1  0  0  0
 31 32  1  0  0  0
 31 50  1  0  0  0
 31 51  1  0  0  0
 32 33  2  0  0  0
 32 52  1  0  0  0
 33 34  1  0  0  0
 34 53  1  0  0  0
 34 54  1  0  0  0
 34 55  1  0  0  0
M  CHG  3   6  -1  21  -1  30  -1
M  END
>  <COMPND>
    ligand_BC.pdb 

>  <AUTHOR>
    GENERATED BY OPEN BABEL 2.2.1

>  <MASTER>
        0    0    0    0    0    0    0    0   55    0   55    0

$$$$
PMC1IJY_out_4.pdb_24671_ChemDiv_1552-0.pdb
 OpenBabel06131016433D

 58 64  0  0  0  0  0  0  0  0999 V2000
   61.3550   46.5080   97.9420 N   0  0  0  0  0
   59.8390   45.9660   98.5340 C   0  0  0  0  0
   59.0610   44.8930   97.4150 C   0  0  0  0  0
   60.1650   44.7370   95.9970 C   0  0  0  0  0
   61.5720   45.7330   96.3300 C   0  0  0  0  0
   62.9290   45.9320   95.2870 O   0  0  0  0  0
   58.8270   43.6600   95.4490 C   0  0  0  0  0
   58.9110   43.9320   95.8500 C   0  0  0  0  0
   58.6330   43.9720   96.2070 C   0  0  0  0  0
   58.2370   43.7430   96.2060 C   0  0  0  0  0
   58.1330   43.4760   95.8350 C   0  0  0  0  0
   58.3930   43.4390   95.5010 C   0  0  0  0  0
   58.3210   43.1640   95.0840 C   0  0  0  0  0
   57.8750   42.9460   95.1520 C   0  0  0  0  0
   57.6150   42.9820   95.4860 C   0  0  0  0  0
   57.7190   43.2500   95.8570 C   0  0  0  0  0
   58.7450   44.2430   96.5780 C   0  0  0  0  0
   59.1750   44.4880   96.5730 C   0  0  0  0  0
   59.4530   44.4490   96.2160 C   0  0  0  0  0
   59.3500   44.1580   95.8010 C   0  0  0  0  0
   59.1190   46.4240  100.0950 O   0  0  0  0  0
   62.4850   47.5850   98.7030 C   0  0  0  0  0
   63.4750   48.6100   97.6790 C   0  0  0  0  0
   64.2070   49.1320   98.0840 C   0  0  0  0  0
   64.8350   49.6130   97.5040 C   0  0  0  0  0
   65.6170   50.0630   97.9030 C   0  0  0  0  0
   66.2070   50.6160   97.3250 C   0  0  0  0  0
   66.9220   50.1590   96.7500 O   0  0  0  0  0
   66.0460   51.5640   97.3610 O   0  0  0  0  0
   59.8360   44.8270   98.4760 H   0  0  0  0  0
   59.1600   46.5720   97.8480 H   0  0  0  0  0
   59.8390   45.5630   97.8140 H   0  0  0  0  0
   58.1500   44.6970   98.0020 H   0  0  0  0  0
   60.6010   44.4480   95.0280 H   0  0  0  0  0
   60.7110   45.4230   96.6640 H   0  0  0  0  0
   61.4080   44.6130   96.4650 H   0  0  0  0  0
   60.8210   46.3600   95.7440 H   0  0  0  0  0
   63.7890   45.3810   95.6950 H   0  0  0  0  0
   58.5650   42.7310   94.0580 H   0  0  0  0  0
   58.0830   41.8390   94.9790 H   0  0  0  0  0
   57.3380   42.9150   94.1470 H   0  0  0  0  0
   57.3920   41.9410   95.8920 H   0  0  0  0  0
   56.5080   43.0450   95.2210 H   0  0  0  0  0
   56.7430   42.9800   96.3800 H   0  0  0  0  0
   58.4970   44.6730   97.6040 H   0  0  0  0  0
   60.3210   44.4180   95.2640 H   0  0  0  0  0
   59.6590   45.9200  100.9100 H   0  0  0  0  0
   63.3910   47.7270   98.0250 H   0  0  0  0  0
   62.8100   47.1670   99.7130 H   0  0  0  0  0
   61.9830   48.5940   98.8750 H   0  0  0  0  0
   62.8530   48.1250   98.5020 H   0  0  0  0  0
   63.8970   47.8130   96.9820 H   0  0  0  0  0
   62.8110   49.3070   97.0690 H   0  0  0  0  0
   64.3190   49.1750   99.1790 H   0  0  0  0  0
   64.6680   49.6500   96.4160 H   0  0  0  0  0
   65.2610   50.7040   98.7760 H   0  0  0  0  0
   66.2910   49.1910   98.1930 H   0  0  0  0  0
   66.6340   52.2260   96.7720 H   0  0  0  0  0
  1  5  1  0  0  0
  1  2  1  0  0  0
  1 22  1  0  0  0
  2 21  1  0  0  0
  2 30  1  0  0  0
  2 31  1  0  0  0
  3 18  2  0  0  0
  3 32  1  0  0  0
  3 33  1  0  0  0
  4 19  2  0  0  0
  4 34  1  0  0  0
  4 35  1  0  0  0
  5  6  1  0  0  0
  5 36  1  0  0  0
  5 37  1  0  0  0
  6 38  1  0  0  0
  7 13  1  0  0  0
  7 20  1  0  0  0
  7 11  1  0  0  0
  7  9  1  0  0  0
  8 12  1  0  0  0
  8 10  1  0  0  0
  8 19  1  0  0  0
  8 17  1  0  0  0
  9 20  1  0  0  0
  9 11  1  0  0  0
  9 18  1  0  0  0
 10 12  1  0  0  0
 10 16  1  0  0  0
 10 17  1  0  0  0
 11 13  1  0  0  0
 11 15  1  0  0  0
 12 14  1  0  0  0
 12 16  1  0  0  0
 13 15  1  0  0  0
 13 39  1  0  0  0
 14 16  1  0  0  0
 14 40  1  0  0  0
 14 41  1  0  0  0
 15 42  1  0  0  0
 15 43  1  0  0  0
 16 44  1  0  0  0
 17 19  1  0  0  0
 17 45  1  0  0  0
 18 20  1  0  0  0
 20 46  1  0  0  0
 21 47  1  0  0  0
 22 48  1  0  0  0
 22 49  1  0  0  0
 22 50  1  0  0  0
 23 24  1  0  0  0
 23 51  1  0  0  0
 23 52  1  0  0  0
 23 53  1  0  0  0
 24 25  2  0  0  0
 24 54  1  0  0  0
 25 26  1  0  0  0
 25 55  1  0  0  0
 26 27  1  0  0  0
 26 56  1  0  0  0
 26 57  1  0  0  0
 27 28  2  0  0  0
 27 29  1  0  0  0
 29 58  1  0  0  0
M  CHG  1  28  -1
M  END
>  <COMPND>
    ligand_BC.pdb 

>  <AUTHOR>
    GENERATED BY OPEN BABEL 2.2.1

>  <MASTER>
        0    0    0    0    0    0    0    0   58    0   58    0

$$$$
PMC1IJY_out_4.pdb_24684_ChemDiv_K906-1.pdb
 OpenBabel06131016433D

 56 58  0  0  0  0  0  0  0  0999 V2000
   62.9640   50.7810   98.0620 C   0  0  0  0  0
   62.5510   50.6300   97.1720 N   0  0  0  0  0
   62.3840   49.7030   96.8480 S   0  0  0  0  0
   63.3460   49.6200   96.5890 O   0  0  0  0  0
   61.4260   49.7850   97.1060 O   0  0  0  0  0
   62.2160   48.7680   96.5210 C   0  0  0  0  0
   62.1890   48.5820   95.5440 C   0  0  0  0  0
   62.0210   47.6510   95.2190 C   0  0  0  0  0
   61.9560   47.2540   94.3010 O   0  0  0  0  0
   61.8820   46.9140   95.8740 C   0  0  0  0  0
   61.7800   46.2980   94.3850 C   0  0  0  0  0
   61.7300   46.0650   95.3470 N   0  0  0  0  0
   61.6700   45.6610   93.6130 O   0  0  0  0  0
   61.5630   45.1660   95.7380 C   0  0  0  0  0
   61.9080   47.0990   96.8590 C   0  0  0  0  0
   62.0760   48.0290   97.1840 C   0  0  0  0  0
   62.6020   51.4950   98.6750 C   0  0  0  0  0
   62.8200   52.4500   98.5140 N   0  0  0  0  0
   62.0210   51.2410   99.4490 O   0  0  0  0  0
   63.4020   52.7040   97.7400 C   0  0  0  0  0
   64.3620   52.9270   97.8910 C   0  0  0  0  0
   64.9460   53.1820   97.1160 C   0  0  0  0  0
   64.5610   53.2120   96.1850 C   0  0  0  0  0
   63.5940   52.9870   96.0370 C   0  0  0  0  0
   63.0160   52.7340   96.8090 C   0  0  0  0  0
   65.9120   53.4060   97.2700 C   0  0  0  0  0
   66.1810   54.3620   97.4150 O   0  0  0  0  0
   66.6070   52.6760   97.2800 O   0  0  0  0  0
   67.2760   52.6190   96.5400 C   0  0  0  0  0
   68.0330   51.9560   96.6010 C   0  0  0  0  0
   63.7490   50.2220   98.3550 C   0  0  0  0  0
   64.4580   49.9820   97.6980 C   0  0  0  0  0
   65.3590   49.6870   98.0140 S   0  0  0  0  0
   66.0740   49.4550   97.3550 C   0  0  0  0  0
   61.9850   50.5390   97.5310 H   0  0  0  0  0
   61.5870   51.1990   97.1290 H   0  0  0  0  0
   62.3440   49.3990   94.8220 H   0  0  0  0  0
   61.4290   44.4050   94.9000 H   0  0  0  0  0
   60.6360   45.1900   96.4010 H   0  0  0  0  0
   62.4560   44.8640   96.3790 H   0  0  0  0  0
   61.7520   46.2810   97.5800 H   0  0  0  0  0
   62.1070   48.2410   98.2640 H   0  0  0  0  0
   62.4300   53.2150   99.1730 H   0  0  0  0  0
   64.7820   52.8930   98.9090 H   0  0  0  0  0
   65.2000   53.4910   95.3320 H   0  0  0  0  0
   63.1710   53.0200   95.0210 H   0  0  0  0  0
   61.9550   52.4870   96.6450 H   0  0  0  0  0
   67.1870   53.2780   95.6620 H   0  0  0  0  0
   68.1200   51.2990   97.4810 H   0  0  0  0  0
   68.7730   51.8890   95.7880 H   0  0  0  0  0
   64.2420   50.7310   99.2480 H   0  0  0  0  0
   63.2660   49.2140   98.5770 H   0  0  0  0  0
   64.2480   50.0420   96.6180 H   0  0  0  0  0
   67.0190   49.1450   97.9120 H   0  0  0  0  0
   66.2900   50.3460   96.6770 H   0  0  0  0  0
   65.7190   48.5870   96.7070 H   0  0  0  0  0
  1  2  1  0  0  0
  1 31  1  0  0  0
  1 17  1  0  0  0
  1 35  1  0  0  0
  2  3  1  0  0  0
  2 36  1  0  0  0
  3  6  1  0  0  0
  3  4  2  0  0  0
  3  5  2  0  0  0
  6  7  2  0  0  0
  6 16  1  0  0  0
  7  8  1  0  0  0
  7 37  1  0  0  0
  8  9  1  0  0  0
  8 10  2  0  0  0
  9 11  1  0  0  0
 10 12  1  0  0  0
 10 15  1  0  0  0
 11 13  2  0  0  0
 11 12  1  0  0  0
 12 14  1  0  0  0
 14 38  1  0  0  0
 14 39  1  0  0  0
 14 40  1  0  0  0
 15 16  2  0  0  0
 15 41  1  0  0  0
 16 42  1  0  0  0
 17 18  1  0  0  0
 17 19  2  0  0  0
 18 20  1  0  0  0
 18 43  1  0  0  0
 20 25  2  0  0  0
 20 21  1  0  0  0
 21 22  2  0  0  0
 21 44  1  0  0  0
 22 23  1  0  0  0
 22 26  1  0  0  0
 23 24  2  0  0  0
 23 45  1  0  0  0
 24 25  1  0  0  0
 24 46  1  0  0  0
 25 47  1  0  0  0
 26 28  1  0  0  0
 26 27  2  0  0  0
 28 29  1  0  0  0
 29 30  2  0  0  0
 29 48  1  0  0  0
 30 49  1  0  0  0
 30 50  1  0  0  0
 31 32  1  0  0  0
 31 51  1  0  0  0
 31 52  1  0  0  0
 32 33  2  0  0  0
 32 53  1  0  0  0
 33 34  1  0  0  0
 34 54  1  0  0  0
 34 55  1  0  0  0
 34 56  1  0  0  0
M  CHG  5   4  -1   5  -1  13  -1  19  -1  27  -1
M  END
>  <COMPND>
    ligand_BC.pdb 

>  <AUTHOR>
    GENERATED BY OPEN BABEL 2.2.1

>  <MASTER>
        0    0    0    0    0    0    0    0   56    0   56    0

$$$$
PMC1IJY_out_4.pdb_24445_ChemDiv_C123-0.pdb
 OpenBabel06131016433D

 51 56  0  0  0  0  0  0  0  0999 V2000
   61.9320   47.0690   95.6570 C   0  0  0  0  0
   61.7020   48.0120   95.5930 C   0  0  0  0  0
   61.6550   47.1850   95.0100 O   0  0  0  0  0
   61.3730   46.7740   94.0570 C   0  0  0  0  0
   61.7700   46.4490   94.8950 C   0  0  0  0  0
   61.1310   47.7500   93.9810 C   0  0  0  0  0
   61.2940   48.3710   94.7480 C   0  0  0  0  0
   61.9350   48.4570   96.4400 C   0  0  0  0  0
   62.3150   47.7770   97.0350 N   0  0  0  0  0
   62.3150   46.9090   96.5510 C   0  0  0  0  0
   62.6460   46.0410   96.9150 O   0  0  0  0  0
   62.0160   45.4670   94.9770 C   0  0  0  0  0
   61.3320   44.8110   95.2780 N   0  0  0  0  0
   62.9300   45.1660   94.7590 O   0  0  0  0  0
   60.4900   45.0890   95.4790 C   0  0  0  0  0
   59.9150   44.5080   95.7490 C   0  0  0  0  0
   59.3530   44.0710   95.1440 C   0  0  0  0  0
   58.7000   43.4140   95.4390 C   0  0  0  0  0
   58.6410   43.2150   96.4010 C   0  0  0  0  0
   58.1420   42.9810   94.8220 O   0  0  0  0  0
   57.4700   42.1640   96.0740 O   0  0  0  0  0
   59.2210   43.6700   97.0020 C   0  0  0  0  0
   57.5310   42.3620   95.1280 C   0  0  0  0  0
   59.8490   44.3030   96.7090 C   0  0  0  0  0
   62.6470   47.9170   97.9670 C   0  0  0  0  0
   62.0310   47.7960   98.7540 C   0  0  0  0  0
   62.0330   46.9190   99.2350 C   0  0  0  0  0
   61.4190   46.7810  100.0280 C   0  0  0  0  0
   60.8130   47.5280  100.3250 C   0  0  0  0  0
   60.8190   48.4110   99.8300 C   0  0  0  0  0
   60.2040   47.3950  101.1090 C   0  0  0  0  0
   61.4300   48.5360   99.0480 C   0  0  0  0  0
   61.1960   46.0850   93.2160 H   0  0  0  0  0
   60.6850   48.1340   93.0500 H   0  0  0  0  0
   60.3130   48.8890   95.0100 H   0  0  0  0  0
   62.1080   49.0610   94.3470 H   0  0  0  0  0
   61.7940   49.5240   96.6760 H   0  0  0  0  0
   60.2110   46.1500   95.3790 H   0  0  0  0  0
   59.4320   44.3060   94.0710 H   0  0  0  0  0
   59.1530   43.4460   98.0780 H   0  0  0  0  0
   56.8680   41.8460   94.4150 H   0  0  0  0  0
   60.5060   44.8110   97.4330 H   0  0  0  0  0
   63.1090   48.9570   98.0300 H   0  0  0  0  0
   63.3680   47.0440   98.0950 H   0  0  0  0  0
   62.7000   46.1070   98.9040 H   0  0  0  0  0
   61.4140   45.8180  100.5630 H   0  0  0  0  0
   60.1560   49.2300  100.1510 H   0  0  0  0  0
   59.6020   48.3460  101.2890 H   0  0  0  0  0
   60.8090   47.1290  102.0380 H   0  0  0  0  0
   59.4890   46.5360  100.8860 H   0  0  0  0  0
   61.4390   49.4960   98.5080 H   0  0  0  0  0
  1  5  1  0  0  0
  1  3  1  0  0  0
  1  2  1  0  0  0
  1 10  1  0  0  0
  2  7  1  0  0  0
  2  8  2  0  0  0
  3  5  1  0  0  0
  4  6  2  0  0  0
  4  5  1  0  0  0
  4 33  1  0  0  0
  5 12  1  0  0  0
  6  7  1  0  0  0
  6 34  1  0  0  0
  7 35  1  0  0  0
  7 36  1  0  0  0
  8  9  1  0  0  0
  8 37  1  0  0  0
  9 10  1  0  0  0
  9 25  1  0  0  0
 10 11  2  0  0  0
 12 14  2  0  0  0
 12 13  1  0  0  0
 13 15  2  0  0  0
 15 16  1  0  0  0
 15 38  1  0  0  0
 16 17  2  0  0  0
 16 24  1  0  0  0
 17 18  1  0  0  0
 17 39  1  0  0  0
 18 20  1  0  0  0
 18 19  2  0  0  0
 19 21  1  0  0  0
 19 22  1  0  0  0
 20 23  1  0  0  0
 21 23  2  0  0  0
 22 24  2  0  0  0
 22 40  1  0  0  0
 23 41  1  0  0  0
 24 42  1  0  0  0
 25 26  1  0  0  0
 25 43  1  0  0  0
 25 44  1  0  0  0
 26 32  2  0  0  0
 26 27  1  0  0  0
 27 28  2  0  0  0
 27 45  1  0  0  0
 28 29  1  0  0  0
 28 46  1  0  0  0
 29 30  2  0  0  0
 29 31  1  0  0  0
 30 32  1  0  0  0
 30 47  1  0  0  0
 31 48  1  0  0  0
 31 49  1  0  0  0
 31 50  1  0  0  0
 32 51  1  0  0  0
M  CHG  2  11  -1  14  -1
M  END
>  <COMPND>
    ligand_BC.pdb 

>  <AUTHOR>
    GENERATED BY OPEN BABEL 2.2.1

>  <MASTER>
        0    0    0    0    0    0    0    0   51    0   51    0

$$$$
PMC1IJY_out_4.pdb_24684_ChemDiv_K906-1.pdb
 OpenBabel06131016433D

 56 58  0  0  0  0  0  0  0  0999 V2000
   62.9640   50.7810   98.0620 C   0  0  0  0  0
   62.5510   50.6300   97.1720 N   0  0  0  0  0
   62.3840   49.7030   96.8480 S   0  0  0  0  0
   63.3460   49.6200   96.5890 O   0  0  0  0  0
   61.4260   49.7850   97.1060 O   0  0  0  0  0
   62.2160   48.7680   96.5210 C   0  0  0  0  0
   62.1890   48.5820   95.5440 C   0  0  0  0  0
   62.0210   47.6510   95.2190 C   0  0  0  0  0
   61.9560   47.2540   94.3010 O   0  0  0  0  0
   61.8820   46.9140   95.8740 C   0  0  0  0  0
   61.7800   46.2980   94.3850 C   0  0  0  0  0
   61.7300   46.0650   95.3470 N   0  0  0  0  0
   61.6700   45.6610   93.6130 O   0  0  0  0  0
   61.5630   45.1660   95.7380 C   0  0  0  0  0
   61.9080   47.0990   96.8590 C   0  0  0  0  0
   62.0760   48.0290   97.1840 C   0  0  0  0  0
   62.6020   51.4950   98.6750 C   0  0  0  0  0
   62.8200   52.4500   98.5140 N   0  0  0  0  0
   62.0210   51.2410   99.4490 O   0  0  0  0  0
   63.4020   52.7040   97.7400 C   0  0  0  0  0
   64.3620   52.9270   97.8910 C   0  0  0  0  0
   64.9460   53.1820   97.1160 C   0  0  0  0  0
   64.5610   53.2120   96.1850 C   0  0  0  0  0
   63.5940   52.9870   96.0370 C   0  0  0  0  0
   63.0160   52.7340   96.8090 C   0  0  0  0  0
   65.9120   53.4060   97.2700 C   0  0  0  0  0
   66.1810   54.3620   97.4150 O   0  0  0  0  0
   66.6070   52.6760   97.2800 O   0  0  0  0  0
   67.2760   52.6190   96.5400 C   0  0  0  0  0
   68.0330   51.9560   96.6010 C   0  0  0  0  0
   63.7490   50.2220   98.3550 C   0  0  0  0  0
   64.4580   49.9820   97.6980 C   0  0  0  0  0
   65.3590   49.6870   98.0140 S   0  0  0  0  0
   66.0740   49.4550   97.3550 C   0  0  0  0  0
   61.9850   50.5390   97.5310 H   0  0  0  0  0
   61.5870   51.1990   97.1290 H   0  0  0  0  0
   62.3440   49.3990   94.8220 H   0  0  0  0  0
   61.4290   44.4050   94.9000 H   0  0  0  0  0
   60.6360   45.1900   96.4010 H   0  0  0  0  0
   62.4560   44.8640   96.3790 H   0  0  0  0  0
   61.7520   46.2810   97.5800 H   0  0  0  0  0
   62.1070   48.2410   98.2640 H   0  0  0  0  0
   62.4300   53.2150   99.1730 H   0  0  0  0  0
   64.7820   52.8930   98.9090 H   0  0  0  0  0
   65.2000   53.4910   95.3320 H   0  0  0  0  0
   63.1710   53.0200   95.0210 H   0  0  0  0  0
   61.9550   52.4870   96.6450 H   0  0  0  0  0
   67.1870   53.2780   95.6620 H   0  0  0  0  0
   68.1200   51.2990   97.4810 H   0  0  0  0  0
   68.7730   51.8890   95.7880 H   0  0  0  0  0
   64.2420   50.7310   99.2480 H   0  0  0  0  0
   63.2660   49.2140   98.5770 H   0  0  0  0  0
   64.2480   50.0420   96.6180 H   0  0  0  0  0
   67.0190   49.1450   97.9120 H   0  0  0  0  0
   66.2900   50.3460   96.6770 H   0  0  0  0  0
   65.7190   48.5870   96.7070 H   0  0  0  0  0
  1  2  1  0  0  0
  1 31  1  0  0  0
  1 17  1  0  0  0
  1 35  1  0  0  0
  2  3  1  0  0  0
  2 36  1  0  0  0
  3  6  1  0  0  0
  3  4  2  0  0  0
  3  5  2  0  0  0
  6  7  2  0  0  0
  6 16  1  0  0  0
  7  8  1  0  0  0
  7 37  1  0  0  0
  8  9  1  0  0  0
  8 10  2  0  0  0
  9 11  1  0  0  0
 10 12  1  0  0  0
 10 15  1  0  0  0
 11 13  2  0  0  0
 11 12  1  0  0  0
 12 14  1  0  0  0
 14 38  1  0  0  0
 14 39  1  0  0  0
 14 40  1  0  0  0
 15 16  2  0  0  0
 15 41  1  0  0  0
 16 42  1  0  0  0
 17 18  1  0  0  0
 17 19  2  0  0  0
 18 20  1  0  0  0
 18 43  1  0  0  0
 20 25  2  0  0  0
 20 21  1  0  0  0
 21 22  2  0  0  0
 21 44  1  0  0  0
 22 23  1  0  0  0
 22 26  1  0  0  0
 23 24  2  0  0  0
 23 45  1  0  0  0
 24 25  1  0  0  0
 24 46  1  0  0  0
 25 47  1  0  0  0
 26 28  1  0  0  0
 26 27  2  0  0  0
 28 29  1  0  0  0
 29 30  2  0  0  0
 29 48  1  0  0  0
 30 49  1  0  0  0
 30 50  1  0  0  0
 31 32  1  0  0  0
 31 51  1  0  0  0
 31 52  1  0  0  0
 32 33  2  0  0  0
 32 53  1  0  0  0
 33 34  1  0  0  0
 34 54  1  0  0  0
 34 55  1  0  0  0
 34 56  1  0  0  0
M  CHG  5   4  -1   5  -1  13  -1  19  -1  27  -1
M  END
>  <COMPND>
    ligand_BC.pdb 

>  <AUTHOR>
    GENERATED BY OPEN BABEL 2.2.1

>  <MASTER>
        0    0    0    0    0    0    0    0   56    0   56    0

$$$$
PMC1IJY_out_4.pdb_24917_ChemDiv_4802-0.pdb
 OpenBabel06131016433D

 59 63  0  0  0  0  0  0  0  0999 V2000
   64.6300   50.9810   97.7050 C   0  0  0  0  0
   65.4410   51.2730   97.4100 N   0  0  0  0  0
   65.6940   51.9520   96.7020 C   0  0  0  0  0
   66.5280   52.0110   96.6510 C   0  0  0  0  0
   64.8950   52.4500   96.1710 O   0  0  0  0  0
   66.9660   51.4190   97.2770 C   0  0  0  0  0
   67.1970   52.6120   96.0310 C   0  0  0  0  0
   66.3160   50.9850   97.7220 C   0  0  0  0  0
   68.0650   51.3960   97.3150 C   0  0  0  0  0
   66.3530   50.2640   98.4780 O   0  0  0  0  0
   68.5560   51.9030   96.7910 C   0  0  0  0  0
   68.1580   52.6130   96.0420 C   0  0  0  0  0
   64.0680   50.2810   97.2650 C   0  0  0  0  0
   63.3400   50.4740   96.6190 N   0  0  0  0  0
   64.3740   49.3520   97.5940 O   0  0  0  0  0
   62.8090   49.7140   96.2100 C   0  0  0  0  0
   63.1130   49.2020   95.3540 C   0  0  0  0  0
   62.5160   48.4600   95.0250 C   0  0  0  0  0
   61.7030   48.2090   95.4470 C   0  0  0  0  0
   61.4410   48.6910   96.2320 C   0  0  0  0  0
   61.9350   49.4090   96.6240 C   0  0  0  0  0
   61.1610   47.4330   95.0290 S   0  0  0  0  0
   60.6270   46.6850   94.6190 O   0  0  0  0  0
   60.4710   48.1090   94.6930 O   0  0  0  0  0
   61.8520   46.7880   95.3700 N   0  0  0  0  0
   62.4120   46.2770   94.7090 C   0  0  0  0  0
   63.0870   45.6460   95.0470 N   0  0  0  0  0
   62.2350   46.4530   93.7840 N   0  0  0  0  0
   63.6220   45.1600   94.3390 C   0  0  0  0  0
   63.5080   45.2790   93.4000 C   0  0  0  0  0
   62.7630   45.9740   93.1170 C   0  0  0  0  0
   64.0240   51.2370   98.5360 C   0  0  0  0  0
   63.9190   52.2140   98.7740 C   0  0  0  0  0
   64.6120   52.6290   99.3490 C   0  0  0  0  0
   64.5120   53.6260   99.5970 C   0  0  0  0  0
   63.7370   54.1850   99.2740 C   0  0  0  0  0
   63.0480   53.7560   98.6970 C   0  0  0  0  0
   63.1550   52.7090   98.4380 C   0  0  0  0  0
   65.6190   51.5420   97.6230 H   0  0  0  0  0
   66.7160   53.2940   95.3120 H   0  0  0  0  0
   68.5630   50.7200   98.0280 H   0  0  0  0  0
   69.6510   51.8250   96.8880 H   0  0  0  0  0
   68.7850   53.2420   95.3900 H   0  0  0  0  0
   63.1130   51.4980   96.3510 H   0  0  0  0  0
   64.0470   49.4610   94.8310 H   0  0  0  0  0
   62.8240   47.9080   94.1230 H   0  0  0  0  0
   60.4990   48.3950   96.7200 H   0  0  0  0  0
   61.5530   49.9070   97.5290 H   0  0  0  0  0
   61.9920   46.6450   96.4340 H   0  0  0  0  0
   64.3890   44.4440   94.6760 H   0  0  0  0  0
   64.1110   44.7300   92.6600 H   0  0  0  0  0
   62.5790   46.1610   92.0470 H   0  0  0  0  0
   64.4050   50.6770   99.4530 H   0  0  0  0  0
   62.9770   50.9330   98.2030 H   0  0  0  0  0
   65.4680   52.0400   99.7140 H   0  0  0  0  0
   65.2770   54.0950  100.2360 H   0  0  0  0  0
   63.6550   55.2470   99.5540 H   0  0  0  0  0
   62.1890   54.3380   98.3270 H   0  0  0  0  0
   62.4060   52.2130   97.8010 H   0  0  0  0  0
  1 13  1  0  0  0
  1  2  1  0  0  0
  1 32  1  0  0  0
  1 39  1  0  0  0
  2  3  1  0  0  0
  2  8  1  0  0  0
  3  5  2  0  0  0
  3  4  1  0  0  0
  4  7  2  0  0  0
  4  6  1  0  0  0
  6  9  2  0  0  0
  6  8  1  0  0  0
  7 12  1  0  0  0
  7 40  1  0  0  0
  8 10  2  0  0  0
  9 11  1  0  0  0
  9 41  1  0  0  0
 11 12  2  0  0  0
 11 42  1  0  0  0
 12 43  1  0  0  0
 13 14  1  0  0  0
 13 15  2  0  0  0
 14 16  1  0  0  0
 14 44  1  0  0  0
 16 17  2  0  0  0
 16 21  1  0  0  0
 17 18  1  0  0  0
 17 45  1  0  0  0
 18 19  2  0  0  0
 18 46  1  0  0  0
 19 22  1  0  0  0
 19 20  1  0  0  0
 20 21  2  0  0  0
 20 47  1  0  0  0
 21 48  1  0  0  0
 22 23  2  0  0  0
 22 24  2  0  0  0
 22 25  1  0  0  0
 25 26  1  0  0  0
 25 49  1  0  0  0
 26 28  2  0  0  0
 26 27  1  0  0  0
 27 29  2  0  0  0
 28 31  1  0  0  0
 29 30  1  0  0  0
 29 50  1  0  0  0
 30 31  2  0  0  0
 30 51  1  0  0  0
 31 52  1  0  0  0
 32 33  1  0  0  0
 32 53  1  0  0  0
 32 54  1  0  0  0
 33 38  2  0  0  0
 33 34  1  0  0  0
 34 35  2  0  0  0
 34 55  1  0  0  0
 35 36  1  0  0  0
 35 56  1  0  0  0
 36 37  2  0  0  0
 36 57  1  0  0  0
 37 38  1  0  0  0
 37 58  1  0  0  0
 38 59  1  0  0  0
M  CHG  5   5  -1  10  -1  15  -1  23  -1  24  -1
M  END
>  <COMPND>
    ligand_BC.pdb 

>  <AUTHOR>
    GENERATED BY OPEN BABEL 2.2.1

>  <MASTER>
        0    0    0    0    0    0    0    0   59    0   59    0

$$$$
PMC1IJY_out_4.pdb_25009_ChemDiv_6141-0.pdb
 OpenBabel06131016433D

 52 55  0  0  0  0  0  0  0  0999 V2000
   61.7380   47.0790   99.6820 N   0  0  0  0  0
   61.5810   47.9500  100.1360 C   0  0  0  0  0
   60.8630   47.8070  100.8300 N   0  0  0  0  0
   60.5920   46.8540  100.7890 C   0  0  0  0  0
   61.1320   46.4050  100.0820 C   0  0  0  0  0
   61.0000   45.4350   99.8930 N   0  0  0  0  0
   60.3210   44.9050  100.4160 C   0  0  0  0  0
   59.7810   45.3540  101.1230 N   0  0  0  0  0
   59.9190   46.3350  101.3100 C   0  0  0  0  0
   59.3770   46.7860  102.0190 N   0  0  0  0  0
   62.0460   48.8100   99.9450 S   0  0  0  0  0
   61.5830   49.5240   99.4250 C   0  0  0  0  0
   62.0990   50.3070   99.0790 C   0  0  0  0  0
   62.7170   50.1960   98.3030 O   0  0  0  0  0
   61.9990   51.2020   99.5070 C   0  0  0  0  0
   62.7700   51.6100  100.0120 O   0  0  0  0  0
   62.6700   52.5080  100.4350 C   0  0  0  0  0
   62.3560   52.5850  101.3860 C   0  0  0  0  0
   62.2570   53.4820  101.8090 C   0  0  0  0  0
   62.4710   54.3150  101.2850 C   0  0  0  0  0
   62.7860   54.2380  100.3330 C   0  0  0  0  0
   62.8850   53.3370   99.9100 C   0  0  0  0  0
   62.4010   46.9190   98.9450 C   0  0  0  0  0
   62.1170   46.9680   97.9900 C   0  0  0  0  0
   62.7300   46.6350   97.2720 O   0  0  0  0  0
   62.4530   46.7040   96.3120 C   0  0  0  0  0
   62.7190   47.5030   95.7720 C   0  0  0  0  0
   62.4440   47.5730   94.8200 C   0  0  0  0  0
   61.9000   46.8440   94.3960 C   0  0  0  0  0
   61.6370   46.0480   94.9410 C   0  0  0  0  0
   61.6150   46.9030   93.4300 C   0  0  0  0  0
   61.9130   45.9810   95.8920 C   0  0  0  0  0
   60.1760   43.8330  100.2070 H   0  0  0  0  0
   59.5220   47.8390  102.2230 H   0  0  0  0  0
   58.6450   46.2210  102.5820 H   0  0  0  0  0
   60.5010   49.4500   99.2320 H   0  0  0  0  0
   61.0920   51.1720  100.1970 H   0  0  0  0  0
   61.9060   51.8930   98.6050 H   0  0  0  0  0
   62.1210   51.6760  101.9620 H   0  0  0  0  0
   61.9130   53.5620  102.8520 H   0  0  0  0  0
   62.3610   55.3060  101.7530 H   0  0  0  0  0
   63.0220   55.1460   99.7560 H   0  0  0  0  0
   63.2300   53.2540   98.8670 H   0  0  0  0  0
   63.4490   46.6880   99.1930 H   0  0  0  0  0
   61.1330   47.3870   97.7270 H   0  0  0  0  0
   63.3170   48.3050   96.2330 H   0  0  0  0  0
   62.7370   48.4540   94.2280 H   0  0  0  0  0
   61.0390   45.2430   94.4850 H   0  0  0  0  0
   62.0050   47.8740   92.9770 H   0  0  0  0  0
   60.4790   46.8590   93.3500 H   0  0  0  0  0
   62.0510   46.0200   92.8560 H   0  0  0  0  0
   61.6200   45.1010   96.4860 H   0  0  0  0  0
  1 23  1  0  0  0
  1  5  1  0  0  0
  1  2  1  0  0  0
  2 11  1  0  0  0
  2  3  2  0  0  0
  3  4  1  0  0  0
  4  5  2  0  0  0
  4  9  1  0  0  0
  5  6  1  0  0  0
  6  7  2  0  0  0
  7  8  1  0  0  0
  7 33  1  0  0  0
  8  9  2  0  0  0
  9 10  1  0  0  0
 10 34  1  0  0  0
 10 35  1  0  0  0
 11 12  2  0  0  0
 12 13  1  0  0  0
 12 36  1  0  0  0
 13 14  2  0  0  0
 13 15  1  0  0  0
 15 16  1  0  0  0
 15 37  1  0  0  0
 15 38  1  0  0  0
 16 17  1  0  0  0
 17 22  2  0  0  0
 17 18  1  0  0  0
 18 19  2  0  0  0
 18 39  1  0  0  0
 19 20  1  0  0  0
 19 40  1  0  0  0
 20 21  2  0  0  0
 20 41  1  0  0  0
 21 22  1  0  0  0
 21 42  1  0  0  0
 22 43  1  0  0  0
 23 24  2  0  0  0
 23 44  1  0  0  0
 24 25  1  0  0  0
 24 45  1  0  0  0
 25 26  1  0  0  0
 26 27  2  0  0  0
 26 32  1  0  0  0
 27 28  1  0  0  0
 27 46  1  0  0  0
 28 29  2  0  0  0
 28 47  1  0  0  0
 29 31  1  0  0  0
 29 30  1  0  0  0
 30 32  2  0  0  0
 30 48  1  0  0  0
 31 49  1  0  0  0
 31 50  1  0  0  0
 31 51  1  0  0  0
 32 52  1  0  0  0
M  CHG  1  14  -1
M  END
>  <COMPND>
    ligand_BC.pdb 

>  <AUTHOR>
    GENERATED BY OPEN BABEL 2.2.1

>  <MASTER>
        0    0    0    0    0    0    0    0   52    0   52    0

$$$$
PMC1IJY_out_4.pdb_24671_ChemDiv_1552-0.pdb
 OpenBabel06131016443D

 58 64  0  0  0  0  0  0  0  0999 V2000
   61.3550   46.5080   97.9420 N   0  0  0  0  0
   59.8390   45.9660   98.5340 C   0  0  0  0  0
   59.0610   44.8930   97.4150 C   0  0  0  0  0
   60.1650   44.7370   95.9970 C   0  0  0  0  0
   61.5720   45.7330   96.3300 C   0  0  0  0  0
   62.9290   45.9320   95.2870 O   0  0  0  0  0
   58.8270   43.6600   95.4490 C   0  0  0  0  0
   58.9110   43.9320   95.8500 C   0  0  0  0  0
   58.6330   43.9720   96.2070 C   0  0  0  0  0
   58.2370   43.7430   96.2060 C   0  0  0  0  0
   58.1330   43.4760   95.8350 C   0  0  0  0  0
   58.3930   43.4390   95.5010 C   0  0  0  0  0
   58.3210   43.1640   95.0840 C   0  0  0  0  0
   57.8750   42.9460   95.1520 C   0  0  0  0  0
   57.6150   42.9820   95.4860 C   0  0  0  0  0
   57.7190   43.2500   95.8570 C   0  0  0  0  0
   58.7450   44.2430   96.5780 C   0  0  0  0  0
   59.1750   44.4880   96.5730 C   0  0  0  0  0
   59.4530   44.4490   96.2160 C   0  0  0  0  0
   59.3500   44.1580   95.8010 C   0  0  0  0  0
   59.1190   46.4240  100.0950 O   0  0  0  0  0
   62.4850   47.5850   98.7030 C   0  0  0  0  0
   63.4750   48.6100   97.6790 C   0  0  0  0  0
   64.2070   49.1320   98.0840 C   0  0  0  0  0
   64.8350   49.6130   97.5040 C   0  0  0  0  0
   65.6170   50.0630   97.9030 C   0  0  0  0  0
   66.2070   50.6160   97.3250 C   0  0  0  0  0
   66.9220   50.1590   96.7500 O   0  0  0  0  0
   66.0460   51.5640   97.3610 O   0  0  0  0  0
   59.8360   44.8270   98.4760 H   0  0  0  0  0
   59.1600   46.5720   97.8480 H   0  0  0  0  0
   59.8390   45.5630   97.8140 H   0  0  0  0  0
   58.1500   44.6970   98.0020 H   0  0  0  0  0
   60.6010   44.4480   95.0280 H   0  0  0  0  0
   60.7110   45.4230   96.6640 H   0  0  0  0  0
   61.4080   44.6130   96.4650 H   0  0  0  0  0
   60.8210   46.3600   95.7440 H   0  0  0  0  0
   63.7890   45.3810   95.6950 H   0  0  0  0  0
   58.5650   42.7310   94.0580 H   0  0  0  0  0
   58.0830   41.8390   94.9790 H   0  0  0  0  0
   57.3380   42.9150   94.1470 H   0  0  0  0  0
   57.3920   41.9410   95.8920 H   0  0  0  0  0
   56.5080   43.0450   95.2210 H   0  0  0  0  0
   56.7430   42.9800   96.3800 H   0  0  0  0  0
   58.4970   44.6730   97.6040 H   0  0  0  0  0
   60.3210   44.4180   95.2640 H   0  0  0  0  0
   59.6590   45.9200  100.9100 H   0  0  0  0  0
   63.3910   47.7270   98.0250 H   0  0  0  0  0
   62.8100   47.1670   99.7130 H   0  0  0  0  0
   61.9830   48.5940   98.8750 H   0  0  0  0  0
   62.8530   48.1250   98.5020 H   0  0  0  0  0
   63.8970   47.8130   96.9820 H   0  0  0  0  0
   62.8110   49.3070   97.0690 H   0  0  0  0  0
   64.3190   49.1750   99.1790 H   0  0  0  0  0
   64.6680   49.6500   96.4160 H   0  0  0  0  0
   65.2610   50.7040   98.7760 H   0  0  0  0  0
   66.2910   49.1910   98.1930 H   0  0  0  0  0
   66.6340   52.2260   96.7720 H   0  0  0  0  0
  1  5  1  0  0  0
  1  2  1  0  0  0
  1 22  1  0  0  0
  2 21  1  0  0  0
  2 30  1  0  0  0
  2 31  1  0  0  0
  3 18  2  0  0  0
  3 32  1  0  0  0
  3 33  1  0  0  0
  4 19  2  0  0  0
  4 34  1  0  0  0
  4 35  1  0  0  0
  5  6  1  0  0  0
  5 36  1  0  0  0
  5 37  1  0  0  0
  6 38  1  0  0  0
  7 13  1  0  0  0
  7 20  1  0  0  0
  7 11  1  0  0  0
  7  9  1  0  0  0
  8 12  1  0  0  0
  8 10  1  0  0  0
  8 19  1  0  0  0
  8 17  1  0  0  0
  9 20  1  0  0  0
  9 11  1  0  0  0
  9 18  1  0  0  0
 10 12  1  0  0  0
 10 16  1  0  0  0
 10 17  1  0  0  0
 11 13  1  0  0  0
 11 15  1  0  0  0
 12 14  1  0  0  0
 12 16  1  0  0  0
 13 15  1  0  0  0
 13 39  1  0  0  0
 14 16  1  0  0  0
 14 40  1  0  0  0
 14 41  1  0  0  0
 15 42  1  0  0  0
 15 43  1  0  0  0
 16 44  1  0  0  0
 17 19  1  0  0  0
 17 45  1  0  0  0
 18 20  1  0  0  0
 20 46  1  0  0  0
 21 47  1  0  0  0
 22 48  1  0  0  0
 22 49  1  0  0  0
 22 50  1  0  0  0
 23 24  1  0  0  0
 23 51  1  0  0  0
 23 52  1  0  0  0
 23 53  1  0  0  0
 24 25  2  0  0  0
 24 54  1  0  0  0
 25 26  1  0  0  0
 25 55  1  0  0  0
 26 27  1  0  0  0
 26 56  1  0  0  0
 26 57  1  0  0  0
 27 28  2  0  0  0
 27 29  1  0  0  0
 29 58  1  0  0  0
M  CHG  1  28  -1
M  END
>  <COMPND>
    ligand_BC.pdb 

>  <AUTHOR>
    GENERATED BY OPEN BABEL 2.2.1

>  <MASTER>
        0    0    0    0    0    0    0    0   58    0   58    0

$$$$
PMC1IJY_out_4.pdb_24697_ChemDiv_3359-0.pdb
 OpenBabel06131016443D

 55 61  0  0  0  0  0  0  0  0999 V2000
   62.0050   48.4250   97.8270 N   0  0  0  0  0
   61.4000   48.9910   98.1660 C   0  0  0  0  0
   61.8350   49.6560   98.5630 C   0  0  0  0  0
   62.6970   49.5050   98.4720 C   0  0  0  0  0
   62.7930   48.7470   98.0190 C   0  0  0  0  0
   63.5680   48.3630   97.7890 O   0  0  0  0  0
   63.6870   52.1100  100.0270 C   0  0  0  0  0
   63.4130   52.8310  100.4570 C   0  0  0  0  0
   62.5560   52.9810  100.5480 C   0  0  0  0  0
   61.9720   52.4080  100.2060 C   0  0  0  0  0
   62.2490   51.6950   99.7800 C   0  0  0  0  0
   63.1060   51.5450   99.6890 C   0  0  0  0  0
   63.3860   50.8300   99.2630 C   0  0  0  0  0
   62.8140   50.2660   98.9260 C   0  0  0  0  0
   61.9550   50.4100   99.0130 C   0  0  0  0  0
   61.6650   51.1210   99.4380 C   0  0  0  0  0
   62.2760   53.6840  100.9680 C   0  0  0  0  0
   62.8460   54.2550  101.3090 C   0  0  0  0  0
   63.7030   54.1200  101.2270 C   0  0  0  0  0
   63.9940   53.3970  100.7950 C   0  0  0  0  0
   60.5110   48.8990   98.1120 O   0  0  0  0  0
   61.8310   47.6930   97.3900 C   0  0  0  0  0
   61.6550   47.7090   96.5120 C   0  0  0  0  0
   61.3820   46.9990   96.0970 N   0  0  0  0  0
   61.2100   47.0230   95.2280 C   0  0  0  0  0
   61.2700   46.2350   96.5380 C   0  0  0  0  0
   60.9370   46.3140   94.8130 C   0  0  0  0  0
   60.8280   45.5580   95.2550 O   0  0  0  0  0
   60.9970   45.5250   96.1230 C   0  0  0  0  0
   61.8340   48.5580   96.2900 O   0  0  0  0  0
   61.8200   46.9030   97.7960 C   0  0  0  0  0
   61.1440   46.6580   98.3090 C   0  0  0  0  0
   60.9380   45.8020   98.4040 S   0  0  0  0  0
   60.2520   45.5580   98.9050 C   0  0  0  0  0
   63.7980   49.2530   98.3210 H   0  0  0  0  0
   64.7660   51.9180   99.9140 H   0  0  0  0  0
   60.8920   52.5940  100.3180 H   0  0  0  0  0
   64.0950   51.1610   98.4340 H   0  0  0  0  0
   63.8580   50.2200  100.1030 H   0  0  0  0  0
   60.5830   51.3000   99.5460 H   0  0  0  0  0
   61.1940   53.8620  101.0750 H   0  0  0  0  0
   62.4790   55.1460  101.8430 H   0  0  0  0  0
   64.4210   54.8380  101.6540 H   0  0  0  0  0
   65.0750   53.2140  100.6850 H   0  0  0  0  0
   62.1000   48.6020   98.0230 H   0  0  0  0  0
   61.3450   47.9640   94.6710 H   0  0  0  0  0
   61.4800   46.1910   97.6180 H   0  0  0  0  0
   60.7260   46.3560   93.7330 H   0  0  0  0  0
   60.8600   44.5820   96.6760 H   0  0  0  0  0
   62.7810   46.8010   98.4010 H   0  0  0  0  0
   61.6980   46.1960   96.9100 H   0  0  0  0  0
   60.5520   47.4240   98.8350 H   0  0  0  0  0
   60.1590   44.4220   98.8950 H   0  0  0  0  0
   59.2920   46.0360   98.5190 H   0  0  0  0  0
   60.4250   45.9100   99.9750 H   0  0  0  0  0
  1 22  1  0  0  0
  1  5  1  0  0  0
  1  2  1  0  0  0
  2 21  2  0  0  0
  2  3  1  0  0  0
  3  4  1  0  0  0
  3 14  1  0  0  0
  3 15  1  0  0  0
  4  5  1  0  0  0
  4 14  1  0  0  0
  4 35  1  0  0  0
  5  6  2  0  0  0
  7 12  2  0  0  0
  7  8  1  0  0  0
  7 36  1  0  0  0
  8  9  2  0  0  0
  8 20  1  0  0  0
  9 10  1  0  0  0
  9 17  1  0  0  0
 10 11  2  0  0  0
 10 37  1  0  0  0
 11 16  1  0  0  0
 11 12  1  0  0  0
 12 13  1  0  0  0
 13 14  1  0  0  0
 13 38  1  0  0  0
 13 39  1  0  0  0
 14 15  1  0  0  0
 15 16  2  0  0  0
 16 40  1  0  0  0
 17 18  2  0  0  0
 17 41  1  0  0  0
 18 19  1  0  0  0
 18 42  1  0  0  0
 19 20  2  0  0  0
 19 43  1  0  0  0
 20 44  1  0  0  0
 22 23  1  0  0  0
 22 31  1  0  0  0
 22 45  1  0  0  0
 23 24  1  0  0  0
 23 30  2  0  0  0
 24 25  2  0  0  0
 24 26  1  0  0  0
 25 27  1  0  0  0
 25 46  1  0  0  0
 26 29  2  0  0  0
 26 47  1  0  0  0
 27 28  2  0  0  0
 27 48  1  0  0  0
 28 29  1  0  0  0
 29 49  1  0  0  0
 31 32  1  0  0  0
 31 50  1  0  0  0
 31 51  1  0  0  0
 32 33  2  0  0  0
 32 52  1  0  0  0
 33 34  1  0  0  0
 34 53  1  0  0  0
 34 54  1  0  0  0
 34 55  1  0  0  0
M  CHG  3   6  -1  21  -1  30  -1
M  END
>  <COMPND>
    ligand_BC.pdb 

>  <AUTHOR>
    GENERATED BY OPEN BABEL 2.2.1

>  <MASTER>
        0    0    0    0    0    0    0    0   55    0   55    0

$$$$
PMC1IJY_out_4.pdb_24104_ChemDiv_C561-2.pdb
 OpenBabel06131016443D

 64 68  0  0  0  0  0  0  0  0999 V2000
   62.9880   50.7610   99.6040 C   0  0  0  0  0
   63.1880   51.7230   99.7480 N   0  0  0  0  0
   63.8190   52.0120   99.0260 N   0  0  0  0  0
   64.0020   51.2420   98.4520 C   0  0  0  0  0
   63.4940   50.4620   98.7990 C   0  0  0  0  0
   63.4250   49.5120   98.4850 C   0  0  0  0  0
   62.8470   48.8680   98.9850 C   0  0  0  0  0
   62.3410   49.1670   99.7890 C   0  0  0  0  0
   62.4120   50.1110  100.0970 N   0  0  0  0  0
   61.7620   48.5100  100.2830 C   0  0  0  0  0
   63.9310   49.2130   97.6810 C   0  0  0  0  0
   64.6020   51.2480   97.6510 C   0  0  0  0  0
   62.7800   47.9080   98.6640 C   0  0  0  0  0
   62.0470   47.6500   98.0010 C   0  0  0  0  0
   61.9740   46.6890   97.7010 C   0  0  0  0  0
   62.1750   46.4290   96.7480 N   0  0  0  0  0
   62.4530   47.1350   96.0810 C   0  0  0  0  0
   62.0980   45.4640   96.4620 C   0  0  0  0  0
   62.6540   46.8750   95.1270 C   0  0  0  0  0
   62.5780   45.9080   94.8370 N   0  0  0  0  0
   62.7740   45.6440   93.8970 C   0  0  0  0  0
   62.2990   45.2050   95.5120 C   0  0  0  0  0
   62.6990   44.6930   93.6160 O   0  0  0  0  0
   61.6980   45.9820   98.3640 O   0  0  0  0  0
   63.0490   46.3480   93.2390 C   0  0  0  0  0
   62.4390   46.9500   92.7390 O   0  0  0  0  0
   63.0020   47.5360   92.1660 C   0  0  0  0  0
   63.9540   47.2850   92.3220 C   0  0  0  0  0
   63.9790   46.5480   92.9880 C   0  0  0  0  0
   62.8260   52.2800  100.4690 C   0  0  0  0  0
   63.2930   52.3160  101.3590 C   0  0  0  0  0
   62.9250   52.8810  102.0870 C   0  0  0  0  0
   62.0970   53.4140  101.9520 C   0  0  0  0  0
   63.3850   52.9180  102.9670 C   0  0  0  0  0
   61.6220   53.3850  101.0670 C   0  0  0  0  0
   61.7250   53.9810  102.6820 C   0  0  0  0  0
   61.9930   52.8160  100.3320 C   0  0  0  0  0
   61.8190   47.4930   99.7720 H   0  0  0  0  0
   60.6830   48.8770  100.3110 H   0  0  0  0  0
   62.1370   48.4120  101.3550 H   0  0  0  0  0
   64.5250   50.0890   97.2580 H   0  0  0  0  0
   63.2150   48.8050   96.8930 H   0  0  0  0  0
   64.6510   48.3810   97.9790 H   0  0  0  0  0
   64.6210   50.2090   97.1820 H   0  0  0  0  0
   65.6550   51.5660   97.9490 H   0  0  0  0  0
   64.2020   51.9960   96.8890 H   0  0  0  0  0
   63.4920   47.1500   99.0270 H   0  0  0  0  0
   61.3460   48.4090   97.6190 H   0  0  0  0  0
   62.5370   48.1880   96.3950 H   0  0  0  0  0
   61.7940   44.6960   97.1900 H   0  0  0  0  0
   62.9570   47.6450   94.4000 H   0  0  0  0  0
   62.2160   44.1510   95.2020 H   0  0  0  0  0
   62.6390   48.3200   91.4830 H   0  0  0  0  0
   64.8300   47.7460   91.8380 H   0  0  0  0  0
   64.8810   46.0470   93.3740 H   0  0  0  0  0
   64.2110   51.7300  101.5250 H   0  0  0  0  0
   64.3090   52.2510  102.9420 H   0  0  0  0  0
   62.6780   52.5830  103.7960 H   0  0  0  0  0
   63.7040   53.9920  103.1780 H   0  0  0  0  0
   60.7040   53.9720  100.9080 H   0  0  0  0  0
   60.7790   54.5020  102.3150 H   0  0  0  0  0
   62.4960   54.7520  103.0150 H   0  0  0  0  0
   61.4670   53.3210  103.5750 H   0  0  0  0  0
   61.4770   52.7800   99.3590 H   0  0  0  0  0
  1  5  2  0  0  0
  1  2  1  0  0  0
  1  9  1  0  0  0
  2  3  1  0  0  0
  2 30  1  0  0  0
  3  4  2  0  0  0
  4 12  1  0  0  0
  4  5  1  0  0  0
  5  6  1  0  0  0
  6 11  1  0  0  0
  6  7  2  0  0  0
  7 13  1  0  0  0
  7  8  1  0  0  0
  8  9  2  0  0  0
  8 10  1  0  0  0
 10 38  1  0  0  0
 10 39  1  0  0  0
 10 40  1  0  0  0
 11 41  1  0  0  0
 11 42  1  0  0  0
 11 43  1  0  0  0
 12 44  1  0  0  0
 12 45  1  0  0  0
 12 46  1  0  0  0
 13 14  2  0  0  0
 13 47  1  0  0  0
 14 15  1  0  0  0
 14 48  1  0  0  0
 15 16  1  0  0  0
 15 24  2  0  0  0
 16 17  2  0  0  0
 16 18  1  0  0  0
 17 19  1  0  0  0
 17 49  1  0  0  0
 18 22  2  0  0  0
 18 50  1  0  0  0
 19 20  2  0  0  0
 19 51  1  0  0  0
 20 21  1  0  0  0
 20 22  1  0  0  0
 21 25  1  0  0  0
 21 23  2  0  0  0
 22 52  1  0  0  0
 25 26  1  0  0  0
 25 29  2  0  0  0
 26 27  1  0  0  0
 27 28  2  0  0  0
 27 53  1  0  0  0
 28 29  1  0  0  0
 28 54  1  0  0  0
 29 55  1  0  0  0
 30 37  2  0  0  0
 30 31  1  0  0  0
 31 32  2  0  0  0
 31 56  1  0  0  0
 32 33  1  0  0  0
 32 34  1  0  0  0
 33 35  2  0  0  0
 33 36  1  0  0  0
 34 57  1  0  0  0
 34 58  1  0  0  0
 34 59  1  0  0  0
 35 37  1  0  0  0
 35 60  1  0  0  0
 36 61  1  0  0  0
 36 62  1  0  0  0
 36 63  1  0  0  0
 37 64  1  0  0  0
M  CHG  2  23  -1  24  -1
M  END
>  <COMPND>
    ligand_BC.pdb 

>  <AUTHOR>
    GENERATED BY OPEN BABEL 2.2.1

>  <MASTER>
        0    0    0    0    0    0    0    0   64    0   64    0

$$$$
PMC1IJY_out_4.pdb_24324_ChemDiv_8009-4.pdb
 OpenBabel06131016443D

 45 49  0  0  0  0  0  0  0  0999 V2000
   60.1440   44.7610   96.5820 C   0  0  0  0  0
   60.0180   44.5420   95.6080 C   0  0  0  0  0
   60.5750   44.9970   94.9180 O   0  0  0  0  0
   61.2640   45.6760   95.1950 C   0  0  0  0  0
   61.3900   45.8950   96.1690 C   0  0  0  0  0
   60.8330   45.4410   96.8580 C   0  0  0  0  0
   60.9530   45.6540   97.8240 C   0  0  0  0  0
   61.6400   46.3300   98.0960 C   0  0  0  0  0
   62.1970   46.7850   97.4070 C   0  0  0  0  0
   62.0730   46.5680   96.4360 C   0  0  0  0  0
   59.2980   43.8560   95.5440 C   0  0  0  0  0
   58.9870   43.6550   96.4480 C   0  0  0  0  0
   59.5020   44.2090   97.1020 C   0  0  0  0  0
   59.3960   44.2090   98.0830 O   0  0  0  0  0
   58.2610   42.9820   96.5800 C   0  0  0  0  0
   57.8570   42.5200   95.7940 C   0  0  0  0  0
   58.1520   42.7070   94.9030 C   0  0  0  0  0
   58.8920   43.3910   94.7600 C   0  0  0  0  0
   61.8320   46.1400   94.4900 C   0  0  0  0  0
   62.6970   45.7270   94.2130 C   0  0  0  0  0
   63.2650   46.1910   93.5080 C   0  0  0  0  0
   62.9420   47.0470   93.1150 C   0  0  0  0  0
   62.0800   47.4620   93.3900 C   0  0  0  0  0
   63.5110   47.5120   92.4100 Br  0  0  0  0  0
   61.5110   46.9980   94.0940 C   0  0  0  0  0
   62.9000   47.4760   97.6650 O   0  0  0  0  0
   63.8410   47.1610   97.8250 C   0  0  0  0  0
   61.7660   46.5490   99.0700 O   0  0  0  0  0
   61.1860   47.2170   99.5200 C   0  0  0  0  0
   60.3360   45.1510   98.5850 H   0  0  0  0  0
   62.6870   47.0700   95.6720 H   0  0  0  0  0
   57.9060   42.7490   97.5960 H   0  0  0  0  0
   57.0560   41.7810   95.9540 H   0  0  0  0  0
   57.6970   42.1890   94.0440 H   0  0  0  0  0
   59.2440   43.6180   93.7410 H   0  0  0  0  0
   63.0330   44.7800   94.6650 H   0  0  0  0  0
   64.2230   45.7530   93.1840 H   0  0  0  0  0
   61.7470   48.4100   92.9380 H   0  0  0  0  0
   60.5530   47.4370   94.4150 H   0  0  0  0  0
   64.4980   48.0500   98.1030 H   0  0  0  0  0
   64.2480   46.6450   96.8940 H   0  0  0  0  0
   63.8440   46.4110   98.6830 H   0  0  0  0  0
   61.4950   47.3140  100.6130 H   0  0  0  0  0
   60.0920   46.9040   99.4450 H   0  0  0  0  0
   61.3080   48.2270   99.0050 H   0  0  0  0  0
  1  2  2  0  0  0
  1  6  1  0  0  0
  1 13  1  0  0  0
  2  3  1  0  0  0
  2 11  1  0  0  0
  3  4  2  0  0  0
  4 19  1  0  0  0
  4  5  1  0  0  0
  5 10  2  0  0  0
  5  6  1  0  0  0
  6  7  2  0  0  0
  7  8  1  0  0  0
  7 30  1  0  0  0
  8  9  2  0  0  0
  8 28  1  0  0  0
  9 10  1  0  0  0
  9 26  1  0  0  0
 10 31  1  0  0  0
 11 18  2  0  0  0
 11 12  1  0  0  0
 12 15  2  0  0  0
 12 13  1  0  0  0
 13 14  2  0  0  0
 15 16  1  0  0  0
 15 32  1  0  0  0
 16 17  2  0  0  0
 16 33  1  0  0  0
 17 18  1  0  0  0
 17 34  1  0  0  0
 18 35  1  0  0  0
 19 25  2  0  0  0
 19 20  1  0  0  0
 20 21  2  0  0  0
 20 36  1  0  0  0
 21 22  1  0  0  0
 21 37  1  0  0  0
 22 24  1  0  0  0
 22 23  2  0  0  0
 23 25  1  0  0  0
 23 38  1  0  0  0
 25 39  1  0  0  0
 26 27  1  0  0  0
 27 40  1  0  0  0
 27 41  1  0  0  0
 27 42  1  0  0  0
 28 29  1  0  0  0
 29 43  1  0  0  0
 29 44  1  0  0  0
 29 45  1  0  0  0
M  CHG  1  14  -1
M  END
>  <COMPND>
    ligand_BC.pdb 

>  <AUTHOR>
    GENERATED BY OPEN BABEL 2.2.1

>  <MASTER>
        0    0    0    0    0    0    0    0   45    0   45    0

$$$$
PMC1IJY_out_4.pdb_24671_ChemDiv_1552-0.pdb
 OpenBabel06131016443D

 58 64  0  0  0  0  0  0  0  0999 V2000
   61.4030   46.4330   97.8370 N   0  0  0  0  0
   61.6290   45.5910   96.3610 C   0  0  0  0  0
   60.2400   44.6370   95.9480 C   0  0  0  0  0
   59.0320   44.8890   97.2640 C   0  0  0  0  0
   59.7550   45.9940   98.4200 C   0  0  0  0  0
   59.0110   46.5610   99.8670 O   0  0  0  0  0
   58.0990   43.7520   96.2200 C   0  0  0  0  0
   58.5460   43.9580   96.1960 C   0  0  0  0  0
   58.8500   43.8950   95.8650 C   0  0  0  0  0
   58.7440   43.6180   95.5180 C   0  0  0  0  0
   58.3250   43.4090   95.5160 C   0  0  0  0  0
   58.0400   43.4680   95.8250 C   0  0  0  0  0
   57.5790   43.2650   95.8640 C   0  0  0  0  0
   57.5340   42.9780   95.4550 C   0  0  0  0  0
   57.8190   42.9190   95.1450 C   0  0  0  0  0
   58.2380   43.1280   95.1470 C   0  0  0  0  0
   59.2710   44.1090   95.8740 C   0  0  0  0  0
   59.3790   44.4080   96.2530 C   0  0  0  0  0
   59.0750   44.4710   96.5840 C   0  0  0  0  0
   58.6100   44.2470   96.5940 C   0  0  0  0  0
   63.0910   45.6600   95.3480 O   0  0  0  0  0
   62.5060   47.5030   98.6470 C   0  0  0  0  0
   64.0350   47.8650   97.8640 C   0  0  0  0  0
   64.2180   48.7900   97.5700 C   0  0  0  0  0
   65.1330   49.1380   97.6170 C   0  0  0  0  0
   65.3150   50.0660   97.3330 C   0  0  0  0  0
   66.2470   50.4090   97.3620 C   0  0  0  0  0
   66.8810   50.2140   96.5800 O   0  0  0  0  0
   66.4760   50.9120   98.1500 O   0  0  0  0  0
   61.3980   44.4920   96.5550 H   0  0  0  0  0
   60.9350   46.2100   95.7020 H   0  0  0  0  0
   60.6170   44.2210   95.0010 H   0  0  0  0  0
   60.8700   45.3210   96.5390 H   0  0  0  0  0
   59.8810   45.5150   97.5810 H   0  0  0  0  0
   58.1230   44.8390   97.8850 H   0  0  0  0  0
   59.6870   44.8560   98.4250 H   0  0  0  0  0
   59.1480   46.6050   97.6730 H   0  0  0  0  0
   59.4760   46.0710  100.7350 H   0  0  0  0  0
   56.5580   43.0600   96.3280 H   0  0  0  0  0
   57.2340   41.9580   95.8670 H   0  0  0  0  0
   56.4570   43.0520   95.0880 H   0  0  0  0  0
   58.0160   41.8010   95.0380 H   0  0  0  0  0
   57.3770   42.8760   94.0950 H   0  0  0  0  0
   58.5330   42.6380   94.1610 H   0  0  0  0  0
   60.2910   44.3120   95.4070 H   0  0  0  0  0
   58.2980   44.7290   97.5790 H   0  0  0  0  0
   63.9020   45.0980   95.8350 H   0  0  0  0  0
   63.4680   47.5880   98.0410 H   0  0  0  0  0
   62.7320   47.1170   99.6950 H   0  0  0  0  0
   62.0290   48.5340   98.7380 H   0  0  0  0  0
   62.9250   47.6380   97.7380 H   0  0  0  0  0
   64.3440   47.7280   98.9530 H   0  0  0  0  0
   64.6410   47.1420   97.2240 H   0  0  0  0  0
   63.4010   49.4250   97.1930 H   0  0  0  0  0
   65.9520   48.4990   97.9840 H   0  0  0  0  0
   64.9090   50.2090   96.2770 H   0  0  0  0  0
   64.7920   50.6840   98.1350 H   0  0  0  0  0
   67.4550   51.3140   98.2590 H   0  0  0  0  0
  1  2  1  0  0  0
  1  5  1  0  0  0
  1 22  1  0  0  0
  2 21  1  0  0  0
  2 30  1  0  0  0
  2 31  1  0  0  0
  3 18  2  0  0  0
  3 32  1  0  0  0
  3 33  1  0  0  0
  4 19  2  0  0  0
  4 34  1  0  0  0
  4 35  1  0  0  0
  5  6  1  0  0  0
  5 36  1  0  0  0
  5 37  1  0  0  0
  6 38  1  0  0  0
  7 11  1  0  0  0
  7 13  1  0  0  0
  7  9  1  0  0  0
  7 20  1  0  0  0
  8 10  1  0  0  0
  8 12  1  0  0  0
  8 17  1  0  0  0
  8 19  1  0  0  0
  9 11  1  0  0  0
  9 18  1  0  0  0
  9 20  1  0  0  0
 10 16  1  0  0  0
 10 12  1  0  0  0
 10 17  1  0  0  0
 11 15  1  0  0  0
 11 13  1  0  0  0
 12 16  1  0  0  0
 12 14  1  0  0  0
 13 15  1  0  0  0
 13 39  1  0  0  0
 14 16  1  0  0  0
 14 40  1  0  0  0
 14 41  1  0  0  0
 15 42  1  0  0  0
 15 43  1  0  0  0
 16 44  1  0  0  0
 17 19  1  0  0  0
 17 45  1  0  0  0
 18 20  1  0  0  0
 20 46  1  0  0  0
 21 47  1  0  0  0
 22 48  1  0  0  0
 22 49  1  0  0  0
 22 50  1  0  0  0
 23 24  1  0  0  0
 23 51  1  0  0  0
 23 52  1  0  0  0
 23 53  1  0  0  0
 24 25  2  0  0  0
 24 54  1  0  0  0
 25 26  1  0  0  0
 25 55  1  0  0  0
 26 27  1  0  0  0
 26 56  1  0  0  0
 26 57  1  0  0  0
 27 28  2  0  0  0
 27 29  1  0  0  0
 29 58  1  0  0  0
M  CHG  1  28  -1
M  END
>  <COMPND>
    ligand_BC.pdb 

>  <AUTHOR>
    GENERATED BY OPEN BABEL 2.2.1

>  <MASTER>
        0    0    0    0    0    0    0    0   58    0   58    0

$$$$
PMC1IJY_out_4.pdb_24887_ChemDiv_0131-0.pdb
 OpenBabel06131016443D

 66 67  0  0  0  0  0  0  0  0999 V2000
   62.8280   47.5930   97.7960 C   0  0  0  0  0
   63.3080   47.9700   98.5660 C   0  0  0  0  0
   64.0220   48.6130   98.4270 C   0  0  0  0  0
   64.2570   48.8780   97.5140 C   0  0  0  0  0
   63.7870   48.5090   96.7490 C   0  0  0  0  0
   63.0620   47.8570   96.8870 C   0  0  0  0  0
   64.9590   49.5100   97.3690 N   0  0  0  0  0
   64.7790   50.4640   97.3510 C   0  0  0  0  0
   63.8590   50.7830   97.4840 O   0  0  0  0  0
   65.5160   51.1110   97.1990 C   0  0  0  0  0
   65.2980   52.0470   97.0290 C   0  0  0  0  0
   66.0060   52.6540   96.8860 C   0  0  0  0  0
   66.9100   52.3770   96.9050 C   0  0  0  0  0
   66.6510   51.8590   97.0140 C   0  0  0  0  0
   67.1230   51.4620   97.0720 C   0  0  0  0  0
   66.4350   50.8080   97.2230 C   0  0  0  0  0
   68.2570   50.9110   97.1350 C   0  0  0  0  0
   66.8910   50.8280   97.2020 C   0  0  0  0  0
   65.4980   50.3980   97.3360 C   0  0  0  0  0
   62.1040   46.9410   97.9380 S   0  0  0  0  0
   61.4560   47.6750   97.9240 O   0  0  0  0  0
   62.7610   46.2220   97.9510 O   0  0  0  0  0
   61.3880   46.3040   98.0780 N   0  0  0  0  0
   60.9900   45.8420   97.3300 C   0  0  0  0  0
   60.2850   45.2150   97.4790 N   0  0  0  0  0
   61.3050   46.0130   96.4180 N   0  0  0  0  0
   59.9010   44.7660   96.7250 C   0  0  0  0  0
   60.2030   44.9300   95.8490 C   0  0  0  0  0
   59.1770   44.1170   96.8330 C   0  0  0  0  0
   60.9070   45.5520   95.6760 C   0  0  0  0  0
   61.2160   45.7190   94.7840 C   0  0  0  0  0
   63.0360   47.6630   99.5880 H   0  0  0  0  0
   64.5620   49.0400   99.2870 H   0  0  0  0  0
   64.0640   48.8190   95.7290 H   0  0  0  0  0
   63.2990   46.9180   96.2860 H   0  0  0  0  0
   62.1370   48.4250   96.5390 H   0  0  0  0  0
   65.9720   49.1570   97.2220 H   0  0  0  0  0
   63.8400   51.8820   97.4330 H   0  0  0  0  0
   64.2500   52.3870   97.0050 H   0  0  0  0  0
   65.7740   53.7130   96.6920 H   0  0  0  0  0
   67.4690   53.0210   97.6610 H   0  0  0  0  0
   67.2310   52.5110   95.8190 H   0  0  0  0  0
   67.7910   51.8590   97.0140 H   0  0  0  0  0
   66.2700   52.9340   97.0140 H   0  0  0  0  0
   66.2560   51.3010   97.9260 H   0  0  0  0  0
   66.2760   51.3290   96.0770 H   0  0  0  0  0
   68.2220   51.3900   97.0440 H   0  0  0  0  0
   67.1310   51.6890   97.0270 H   0  0  0  0  0
   66.6020   49.9920   96.4440 H   0  0  0  0  0
   66.6600   50.3740   98.2530 H   0  0  0  0  0
   69.3970   50.9110   97.1350 H   0  0  0  0  0
   67.8760   51.9860   97.1350 H   0  0  0  0  0
   67.8620   50.3530   98.0470 H   0  0  0  0  0
   67.8820   50.3810   96.1980 H   0  0  0  0  0
   65.8080   50.6430   97.2780 H   0  0  0  0  0
   67.6020   49.9980   97.3340 H   0  0  0  0  0
   65.9720   50.0870   98.3250 H   0  0  0  0  0
   66.0250   49.6370   96.6710 H   0  0  0  0  0
   61.0310   46.1090   99.0810 H   0  0  0  0  0
   59.7360   44.3950   95.0070 H   0  0  0  0  0
   58.8760   43.7090   95.8120 H   0  0  0  0  0
   58.2820   44.6050   97.3430 H   0  0  0  0  0
   59.5390   43.2570   97.4880 H   0  0  0  0  0
   60.6230   45.0800   94.0500 H   0  0  0  0  0
   62.3290   45.4850   94.7010 H   0  0  0  0  0
   61.0600   46.8200   94.5330 H   0  0  0  0  0
  1  6  1  0  0  0
  1 21  1  0  0  0
  1 20  1  0  0  0
  1  2  1  0  0  0
  2  3  2  0  0  0
  2 32  1  0  0  0
  3  4  1  0  0  0
  3 33  1  0  0  0
  4  5  2  0  0  0
  4  7  1  0  0  0
  5  6  1  0  0  0
  5 34  1  0  0  0
  6 35  1  0  0  0
  6 36  1  0  0  0
  7  8  1  0  0  0
  7 37  1  0  0  0
  8 10  1  0  0  0
  8 19  1  0  0  0
  8  9  1  0  0  0
  9 38  1  0  0  0
 10 11  1  0  0  0
 10 16  1  0  0  0
 10 19  1  0  0  0
 11 12  2  0  0  0
 11 39  1  0  0  0
 12 13  1  0  0  0
 12 40  1  0  0  0
 13 15  1  0  0  0
 13 41  1  0  0  0
 13 42  1  0  0  0
 14 43  1  0  0  0
 14 44  1  0  0  0
 14 45  1  0  0  0
 14 46  1  0  0  0
 15 18  2  0  0  0
 15 47  1  0  0  0
 16 48  1  0  0  0
 16 49  1  0  0  0
 16 50  1  0  0  0
 17 51  1  0  0  0
 17 52  1  0  0  0
 17 53  1  0  0  0
 17 54  1  0  0  0
 18 55  1  0  0  0
 18 56  1  0  0  0
 19 57  1  0  0  0
 19 58  1  0  0  0
 20 21  1  0  0  0
 20 22  2  0  0  0
 20 23  1  0  0  0
 23 24  1  0  0  0
 23 59  1  0  0  0
 24 26  2  0  0  0
 24 25  1  0  0  0
 25 27  2  0  0  0
 26 30  1  0  0  0
 27 28  1  0  0  0
 27 29  1  0  0  0
 28 30  2  0  0  0
 28 60  1  0  0  0
 29 61  1  0  0  0
 29 62  1  0  0  0
 29 63  1  0  0  0
 30 31  1  0  0  0
 31 64  1  0  0  0
 31 65  1  0  0  0
 31 66  1  0  0  0
M  CHG  1  22  -1
M  END
>  <COMPND>
    ligand_BC.pdb 

>  <AUTHOR>
    GENERATED BY OPEN BABEL 2.2.1

>  <MASTER>
        0    0    0    0    0    0    0    0   66    0   66    0

$$$$
PMC1IJY_out_4.pdb_24329_ChemDiv_000A-0.pdb
 OpenBabel06131016443D

 58 62  0  0  0  0  0  0  0  0999 V2000
   61.3600   47.9620   98.3390 C   0  0  0  0  0
   60.7980   48.1040   99.1700 C   0  0  0  0  0
   60.5130   47.2140   99.4900 C   0  0  0  0  0
   60.8780   46.5310   98.8880 C   0  0  0  0  0
   61.4180   46.9860   98.1530 N   0  0  0  0  0
   60.7070   45.5580   99.0340 C   0  0  0  0  0
   60.1480   45.2430   99.8120 C   0  0  0  0  0
   59.7620   45.9530  100.4460 C   0  0  0  0  0
   59.9490   46.9140  100.2760 C   0  0  0  0  0
   60.6400   49.0370   99.4970 N   0  0  0  0  0
   61.0200   49.8210   99.0270 N   0  0  0  0  0
   61.5830   49.6790   98.1970 C   0  0  0  0  0
   61.7570   48.7550   97.8480 N   0  0  0  0  0
   61.9790   50.4720   97.7050 S   0  0  0  0  0
   62.8810   50.8360   97.9610 C   0  0  0  0  0
   63.0590   51.2100   98.8680 C   0  0  0  0  0
   62.8390   52.1500   99.0910 N   0  0  0  0  0
   63.4730   50.6150   99.5760 O   0  0  0  0  0
   63.0240   52.5050  100.0020 C   0  0  0  0  0
   62.3240   52.4610  100.7030 C   0  0  0  0  0
   62.4950   52.8090  101.6110 C   0  0  0  0  0
   63.3680   53.2140  101.8560 C   0  0  0  0  0
   64.0850   53.2580  101.1350 C   0  0  0  0  0
   63.9050   52.9080  100.2330 C   0  0  0  0  0
   63.5200   53.5570  102.7690 S   0  0  0  0  0
   63.7860   52.6340  103.0730 O   0  0  0  0  0
   63.2580   54.4770  102.4750 O   0  0  0  0  0
   63.6740   53.8950  103.6800 N   0  0  0  0  0
   61.9050   46.5790   97.4050 C   0  0  0  0  0
   61.4430   46.4150   96.5500 C   0  0  0  0  0
   61.9770   46.2290   95.6990 C   0  0  0  0  0
   62.2050   45.3280   95.4200 C   0  0  0  0  0
   62.7230   45.1560   94.5940 C   0  0  0  0  0
   63.0300   45.8880   94.0180 C   0  0  0  0  0
   62.8080   46.8410   94.2810 C   0  0  0  0  0
   62.2810   47.0130   95.1230 C   0  0  0  0  0
   61.1340   44.8200   98.3370 H   0  0  0  0  0
   59.9570   44.1710   99.9770 H   0  0  0  0  0
   59.1460   45.6510  101.3080 H   0  0  0  0  0
   59.5330   47.6710  100.9590 H   0  0  0  0  0
   63.1780   51.6210   97.1890 H   0  0  0  0  0
   63.5030   49.8810   97.9910 H   0  0  0  0  0
   62.3960   52.7930   98.3410 H   0  0  0  0  0
   61.3440   52.0180  100.4660 H   0  0  0  0  0
   61.6990   52.7470  102.3700 H   0  0  0  0  0
   65.0670   53.7000  101.3650 H   0  0  0  0  0
   64.6920   52.9630   99.4650 H   0  0  0  0  0
   63.4550   54.9930  103.7130 H   0  0  0  0  0
   64.7320   53.7010  103.9920 H   0  0  0  0  0
   62.8360   47.2030   97.1980 H   0  0  0  0  0
   62.1020   45.5220   97.7850 H   0  0  0  0  0
   60.7010   45.5630   96.7010 H   0  0  0  0  0
   60.9880   47.4360   96.3260 H   0  0  0  0  0
   61.8800   44.4760   96.0370 H   0  0  0  0  0
   62.9600   44.1170   94.3150 H   0  0  0  0  0
   63.6050   45.6780   93.1020 H   0  0  0  0  0
   63.1400   47.6820   93.6520 H   0  0  0  0  0
   62.0350   48.0450   95.4200 H   0  0  0  0  0
  1 13  2  0  0  0
  1  5  1  0  0  0
  1  2  1  0  0  0
  2  3  1  0  0  0
  2 10  2  0  0  0
  3  4  2  0  0  0
  3  9  1  0  0  0
  4  5  1  0  0  0
  4  6  1  0  0  0
  5 29  1  0  0  0
  6  7  2  0  0  0
  6 37  1  0  0  0
  7  8  1  0  0  0
  7 38  1  0  0  0
  8  9  2  0  0  0
  8 39  1  0  0  0
  9 40  1  0  0  0
 10 11  1  0  0  0
 11 12  2  0  0  0
 12 14  1  0  0  0
 12 13  1  0  0  0
 14 15  1  0  0  0
 15 16  1  0  0  0
 15 41  1  0  0  0
 15 42  1  0  0  0
 16 17  1  0  0  0
 16 18  2  0  0  0
 17 19  1  0  0  0
 17 43  1  0  0  0
 19 24  2  0  0  0
 19 20  1  0  0  0
 20 21  2  0  0  0
 20 44  1  0  0  0
 21 22  1  0  0  0
 21 45  1  0  0  0
 22 23  2  0  0  0
 22 25  1  0  0  0
 23 24  1  0  0  0
 23 46  1  0  0  0
 24 47  1  0  0  0
 25 27  2  0  0  0
 25 26  2  0  0  0
 25 28  1  0  0  0
 28 48  1  0  0  0
 28 49  1  0  0  0
 29 30  1  0  0  0
 29 50  1  0  0  0
 29 51  1  0  0  0
 30 31  1  0  0  0
 30 52  1  0  0  0
 30 53  1  0  0  0
 31 36  2  0  0  0
 31 32  1  0  0  0
 32 33  2  0  0  0
 32 54  1  0  0  0
 33 34  1  0  0  0
 33 55  1  0  0  0
 34 35  2  0  0  0
 34 56  1  0  0  0
 35 36  1  0  0  0
 35 57  1  0  0  0
 36 58  1  0  0  0
M  CHG  3  18  -1  26  -1  27  -1
M  END
>  <COMPND>
    ligand_BC.pdb 

>  <AUTHOR>
    GENERATED BY OPEN BABEL 2.2.1

>  <MASTER>
        0    0    0    0    0    0    0    0   58    0   58    0

$$$$
PMC1IJY_out_4.pdb_24923_ChemDiv_D038-0.pdb
 OpenBabel06131016443D

 55 59  0  0  0  0  0  0  0  0999 V2000
   62.9450   47.6490   98.1920 C   0  0  0  0  0
   63.8500   47.7370   98.6280 C   0  0  0  0  0
   64.1250   48.5980   99.0460 C   0  0  0  0  0
   63.5060   49.3780   99.0380 C   0  0  0  0  0
   62.6000   49.3040   98.6060 C   0  0  0  0  0
   62.3240   48.4400   98.1860 C   0  0  0  0  0
   63.7810   50.2380   99.4560 N   0  0  0  0  0
   64.2380   50.9470   98.9090 C   0  0  0  0  0
   64.5140   51.8120   99.3300 O   0  0  0  0  0
   63.6020   50.4010  100.4270 H   0  0  0  0  0
   64.4130   50.7760   97.9350 C   0  0  0  0  0
   65.3650   50.8020   97.5960 C   0  0  0  0  0
   65.7960   51.5730   97.1380 C   0  0  0  0  0
   66.7400   51.3250   96.9110 C   0  0  0  0  0
   65.4600   52.4830   96.8910 C   0  0  0  0  0
   66.8910   50.3810   97.2360 O   0  0  0  0  0
   67.3380   51.9610   96.4500 C   0  0  0  0  0
   66.0400   50.0640   97.6570 C   0  0  0  0  0
   67.0080   52.8640   96.2040 C   0  0  0  0  0
   66.0630   53.1310   96.4230 C   0  0  0  0  0
   65.7250   54.0400   96.1770 C   0  0  0  0  0
   62.6640   46.7870   97.7700 S   0  0  0  0  0
   62.9340   47.1350   96.8780 O   0  0  0  0  0
   62.3940   46.4410   98.6690 O   0  0  0  0  0
   62.3830   45.9270   97.3550 N   0  0  0  0  0
   61.7880   45.9400   96.5530 C   0  0  0  0  0
   61.8970   46.6640   95.8710 N   0  0  0  0  0
   61.3050   46.6850   95.0650 C   0  0  0  0  0
   60.6030   45.9790   94.9430 N   0  0  0  0  0
   61.4210   47.4140   94.3850 C   0  0  0  0  0
   60.4990   45.2620   95.6260 C   0  0  0  0  0
   61.0860   45.2400   96.4250 C   0  0  0  0  0
   59.8030   44.5570   95.5110 C   0  0  0  0  0
   64.6450   47.4360   97.8690 H   0  0  0  0  0
   63.7480   47.0520   99.5340 H   0  0  0  0  0
   65.1160   48.6880   99.5180 H   0  0  0  0  0
   61.9180   50.1690   98.5960 H   0  0  0  0  0
   61.3330   48.3540   97.7130 H   0  0  0  0  0
   63.9540   49.7710   97.6540 H   0  0  0  0  0
   63.9340   51.6760   97.4250 H   0  0  0  0  0
   64.4250   52.7720   97.1340 H   0  0  0  0  0
   68.3720   51.6680   96.2090 H   0  0  0  0  0
   65.8740   49.0740   98.1100 H   0  0  0  0  0
   67.6760   53.5740   95.6910 H   0  0  0  0  0
   66.5530   54.6260   95.6560 H   0  0  0  0  0
   65.3740   54.5960   97.1080 H   0  0  0  0  0
   64.8390   53.9310   95.4680 H   0  0  0  0  0
   62.7200   44.9850   97.7700 H   0  0  0  0  0
   60.6640   47.2740   93.5440 H   0  0  0  0  0
   62.4820   47.3990   93.9670 H   0  0  0  0  0
   61.2450   48.4240   94.8840 H   0  0  0  0  0
   60.9640   44.4420   97.1740 H   0  0  0  0  0
   59.2290   44.7430   94.5430 H   0  0  0  0  0
   59.0890   44.5590   96.4000 H   0  0  0  0  0
   60.3080   43.5370   95.4570 H   0  0  0  0  0
  1 22  1  0  0  0
  1  6  1  0  0  0
  1  2  1  0  0  0
  1 24  1  0  0  0
  2  3  1  0  0  0
  2 34  1  0  0  0
  2 35  1  0  0  0
  3  4  2  0  0  0
  3 36  1  0  0  0
  4  5  1  0  0  0
  4  7  1  0  0  0
  5  6  2  0  0  0
  5 37  1  0  0  0
  6 38  1  0  0  0
  7  8  1  0  0  0
  7 10  1  0  0  0
  8 11  1  0  0  0
  8  9  2  0  0  0
 11 12  1  0  0  0
 11 39  1  0  0  0
 11 40  1  0  0  0
 12 13  1  0  0  0
 12 18  2  0  0  0
 13 15  1  0  0  0
 13 14  2  0  0  0
 14 17  1  0  0  0
 14 16  1  0  0  0
 15 20  2  0  0  0
 15 41  1  0  0  0
 16 18  1  0  0  0
 17 19  2  0  0  0
 17 42  1  0  0  0
 18 43  1  0  0  0
 19 20  1  0  0  0
 19 44  1  0  0  0
 20 21  1  0  0  0
 21 45  1  0  0  0
 21 46  1  0  0  0
 21 47  1  0  0  0
 22 23  2  0  0  0
 22 25  1  0  0  0
 22 24  1  0  0  0
 25 26  1  0  0  0
 25 48  1  0  0  0
 26 27  2  0  0  0
 26 32  1  0  0  0
 27 28  1  0  0  0
 28 30  1  0  0  0
 28 29  2  0  0  0
 29 31  1  0  0  0
 30 49  1  0  0  0
 30 50  1  0  0  0
 30 51  1  0  0  0
 31 33  1  0  0  0
 31 32  2  0  0  0
 32 52  1  0  0  0
 33 53  1  0  0  0
 33 54  1  0  0  0
 33 55  1  0  0  0
M  CHG  2   9  -1  23  -1
M  END
>  <COMPND>
    ligand_BC.pdb 

>  <AUTHOR>
    GENERATED BY OPEN BABEL 2.2.1

>  <MASTER>
        0    0    0    0    0    0    0    0   55    0   55    0

$$$$
PMC1IJY_out_4.pdb_25009_ChemDiv_6141-0.pdb
 OpenBabel06131016443D

 52 55  0  0  0  0  0  0  0  0999 V2000
   61.7380   47.0790   99.6820 N   0  0  0  0  0
   61.5810   47.9500  100.1360 C   0  0  0  0  0
   60.8630   47.8070  100.8300 N   0  0  0  0  0
   60.5920   46.8540  100.7890 C   0  0  0  0  0
   61.1320   46.4050  100.0820 C   0  0  0  0  0
   61.0000   45.4350   99.8930 N   0  0  0  0  0
   60.3210   44.9050  100.4160 C   0  0  0  0  0
   59.7810   45.3540  101.1230 N   0  0  0  0  0
   59.9190   46.3350  101.3100 C   0  0  0  0  0
   59.3770   46.7860  102.0190 N   0  0  0  0  0
   62.0460   48.8100   99.9450 S   0  0  0  0  0
   61.5830   49.5240   99.4250 C   0  0  0  0  0
   62.0990   50.3070   99.0790 C   0  0  0  0  0
   62.7170   50.1960   98.3030 O   0  0  0  0  0
   61.9990   51.2020   99.5070 C   0  0  0  0  0
   62.7700   51.6100  100.0120 O   0  0  0  0  0
   62.6700   52.5080  100.4350 C   0  0  0  0  0
   62.3560   52.5850  101.3860 C   0  0  0  0  0
   62.2570   53.4820  101.8090 C   0  0  0  0  0
   62.4710   54.3150  101.2850 C   0  0  0  0  0
   62.7860   54.2380  100.3330 C   0  0  0  0  0
   62.8850   53.3370   99.9100 C   0  0  0  0  0
   62.4010   46.9190   98.9450 C   0  0  0  0  0
   62.1170   46.9680   97.9900 C   0  0  0  0  0
   62.7300   46.6350   97.2720 O   0  0  0  0  0
   62.4530   46.7040   96.3120 C   0  0  0  0  0
   62.7190   47.5030   95.7720 C   0  0  0  0  0
   62.4440   47.5730   94.8200 C   0  0  0  0  0
   61.9000   46.8440   94.3960 C   0  0  0  0  0
   61.6370   46.0480   94.9410 C   0  0  0  0  0
   61.6150   46.9030   93.4300 C   0  0  0  0  0
   61.9130   45.9810   95.8920 C   0  0  0  0  0
   60.1760   43.8330  100.2070 H   0  0  0  0  0
   59.5220   47.8390  102.2230 H   0  0  0  0  0
   58.6450   46.2210  102.5820 H   0  0  0  0  0
   60.5010   49.4500   99.2320 H   0  0  0  0  0
   61.0920   51.1720  100.1970 H   0  0  0  0  0
   61.9060   51.8930   98.6050 H   0  0  0  0  0
   62.1210   51.6760  101.9620 H   0  0  0  0  0
   61.9130   53.5620  102.8520 H   0  0  0  0  0
   62.3610   55.3060  101.7530 H   0  0  0  0  0
   63.0220   55.1460   99.7560 H   0  0  0  0  0
   63.2300   53.2540   98.8670 H   0  0  0  0  0
   63.4490   46.6880   99.1930 H   0  0  0  0  0
   61.1330   47.3870   97.7270 H   0  0  0  0  0
   63.3170   48.3050   96.2330 H   0  0  0  0  0
   62.7370   48.4540   94.2280 H   0  0  0  0  0
   61.0390   45.2430   94.4850 H   0  0  0  0  0
   62.0050   47.8740   92.9770 H   0  0  0  0  0
   60.4790   46.8590   93.3500 H   0  0  0  0  0
   62.0510   46.0200   92.8560 H   0  0  0  0  0
   61.6200   45.1010   96.4860 H   0  0  0  0  0
  1 23  1  0  0  0
  1  5  1  0  0  0
  1  2  1  0  0  0
  2 11  1  0  0  0
  2  3  2  0  0  0
  3  4  1  0  0  0
  4  5  2  0  0  0
  4  9  1  0  0  0
  5  6  1  0  0  0
  6  7  2  0  0  0
  7  8  1  0  0  0
  7 33  1  0  0  0
  8  9  2  0  0  0
  9 10  1  0  0  0
 10 34  1  0  0  0
 10 35  1  0  0  0
 11 12  2  0  0  0
 12 13  1  0  0  0
 12 36  1  0  0  0
 13 14  2  0  0  0
 13 15  1  0  0  0
 15 16  1  0  0  0
 15 37  1  0  0  0
 15 38  1  0  0  0
 16 17  1  0  0  0
 17 22  2  0  0  0
 17 18  1  0  0  0
 18 19  2  0  0  0
 18 39  1  0  0  0
 19 20  1  0  0  0
 19 40  1  0  0  0
 20 21  2  0  0  0
 20 41  1  0  0  0
 21 22  1  0  0  0
 21 42  1  0  0  0
 22 43  1  0  0  0
 23 24  2  0  0  0
 23 44  1  0  0  0
 24 25  1  0  0  0
 24 45  1  0  0  0
 25 26  1  0  0  0
 26 27  2  0  0  0
 26 32  1  0  0  0
 27 28  1  0  0  0
 27 46  1  0  0  0
 28 29  2  0  0  0
 28 47  1  0  0  0
 29 31  1  0  0  0
 29 30  1  0  0  0
 30 32  2  0  0  0
 30 48  1  0  0  0
 31 49  1  0  0  0
 31 50  1  0  0  0
 31 51  1  0  0  0
 32 52  1  0  0  0
M  CHG  1  14  -1
M  END
>  <COMPND>
    ligand_BC.pdb 

>  <AUTHOR>
    GENERATED BY OPEN BABEL 2.2.1

>  <MASTER>
        0    0    0    0    0    0    0    0   52    0   52    0

$$$$
PMC1IJY_out_4.pdb_24329_ChemDiv_000A-0.pdb
 OpenBabel06131016443D

 58 62  0  0  0  0  0  0  0  0999 V2000
   61.3600   47.9620   98.3390 C   0  0  0  0  0
   60.7980   48.1040   99.1700 C   0  0  0  0  0
   60.5130   47.2140   99.4900 C   0  0  0  0  0
   60.8780   46.5310   98.8880 C   0  0  0  0  0
   61.4180   46.9860   98.1530 N   0  0  0  0  0
   60.7070   45.5580   99.0340 C   0  0  0  0  0
   60.1480   45.2430   99.8120 C   0  0  0  0  0
   59.7620   45.9530  100.4460 C   0  0  0  0  0
   59.9490   46.9140  100.2760 C   0  0  0  0  0
   60.6400   49.0370   99.4970 N   0  0  0  0  0
   61.0200   49.8210   99.0270 N   0  0  0  0  0
   61.5830   49.6790   98.1970 C   0  0  0  0  0
   61.7570   48.7550   97.8480 N   0  0  0  0  0
   61.9790   50.4720   97.7050 S   0  0  0  0  0
   62.8810   50.8360   97.9610 C   0  0  0  0  0
   63.0590   51.2100   98.8680 C   0  0  0  0  0
   62.8390   52.1500   99.0910 N   0  0  0  0  0
   63.4730   50.6150   99.5760 O   0  0  0  0  0
   63.0240   52.5050  100.0020 C   0  0  0  0  0
   62.3240   52.4610  100.7030 C   0  0  0  0  0
   62.4950   52.8090  101.6110 C   0  0  0  0  0
   63.3680   53.2140  101.8560 C   0  0  0  0  0
   64.0850   53.2580  101.1350 C   0  0  0  0  0
   63.9050   52.9080  100.2330 C   0  0  0  0  0
   63.5200   53.5570  102.7690 S   0  0  0  0  0
   63.7860   52.6340  103.0730 O   0  0  0  0  0
   63.2580   54.4770  102.4750 O   0  0  0  0  0
   63.6740   53.8950  103.6800 N   0  0  0  0  0
   61.9050   46.5790   97.4050 C   0  0  0  0  0
   61.4430   46.4150   96.5500 C   0  0  0  0  0
   61.9770   46.2290   95.6990 C   0  0  0  0  0
   62.2050   45.3280   95.4200 C   0  0  0  0  0
   62.7230   45.1560   94.5940 C   0  0  0  0  0
   63.0300   45.8880   94.0180 C   0  0  0  0  0
   62.8080   46.8410   94.2810 C   0  0  0  0  0
   62.2810   47.0130   95.1230 C   0  0  0  0  0
   61.1340   44.8200   98.3370 H   0  0  0  0  0
   59.9570   44.1710   99.9770 H   0  0  0  0  0
   59.1460   45.6510  101.3080 H   0  0  0  0  0
   59.5330   47.6710  100.9590 H   0  0  0  0  0
   63.1780   51.6210   97.1890 H   0  0  0  0  0
   63.5030   49.8810   97.9910 H   0  0  0  0  0
   62.3960   52.7930   98.3410 H   0  0  0  0  0
   61.3440   52.0180  100.4660 H   0  0  0  0  0
   61.6990   52.7470  102.3700 H   0  0  0  0  0
   65.0670   53.7000  101.3650 H   0  0  0  0  0
   64.6920   52.9630   99.4650 H   0  0  0  0  0
   63.4550   54.9930  103.7130 H   0  0  0  0  0
   64.7320   53.7010  103.9920 H   0  0  0  0  0
   62.8360   47.2030   97.1980 H   0  0  0  0  0
   62.1020   45.5220   97.7850 H   0  0  0  0  0
   60.7010   45.5630   96.7010 H   0  0  0  0  0
   60.9880   47.4360   96.3260 H   0  0  0  0  0
   61.8800   44.4760   96.0370 H   0  0  0  0  0
   62.9600   44.1170   94.3150 H   0  0  0  0  0
   63.6050   45.6780   93.1020 H   0  0  0  0  0
   63.1400   47.6820   93.6520 H   0  0  0  0  0
   62.0350   48.0450   95.4200 H   0  0  0  0  0
  1 13  2  0  0  0
  1  5  1  0  0  0
  1  2  1  0  0  0
  2  3  1  0  0  0
  2 10  2  0  0  0
  3  4  2  0  0  0
  3  9  1  0  0  0
  4  5  1  0  0  0
  4  6  1  0  0  0
  5 29  1  0  0  0
  6  7  2  0  0  0
  6 37  1  0  0  0
  7  8  1  0  0  0
  7 38  1  0  0  0
  8  9  2  0  0  0
  8 39  1  0  0  0
  9 40  1  0  0  0
 10 11  1  0  0  0
 11 12  2  0  0  0
 12 14  1  0  0  0
 12 13  1  0  0  0
 14 15  1  0  0  0
 15 16  1  0  0  0
 15 41  1  0  0  0
 15 42  1  0  0  0
 16 17  1  0  0  0
 16 18  2  0  0  0
 17 19  1  0  0  0
 17 43  1  0  0  0
 19 24  2  0  0  0
 19 20  1  0  0  0
 20 21  2  0  0  0
 20 44  1  0  0  0
 21 22  1  0  0  0
 21 45  1  0  0  0
 22 23  2  0  0  0
 22 25  1  0  0  0
 23 24  1  0  0  0
 23 46  1  0  0  0
 24 47  1  0  0  0
 25 27  2  0  0  0
 25 26  2  0  0  0
 25 28  1  0  0  0
 28 48  1  0  0  0
 28 49  1  0  0  0
 29 30  1  0  0  0
 29 50  1  0  0  0
 29 51  1  0  0  0
 30 31  1  0  0  0
 30 52  1  0  0  0
 30 53  1  0  0  0
 31 36  2  0  0  0
 31 32  1  0  0  0
 32 33  2  0  0  0
 32 54  1  0  0  0
 33 34  1  0  0  0
 33 55  1  0  0  0
 34 35  2  0  0  0
 34 56  1  0  0  0
 35 36  1  0  0  0
 35 57  1  0  0  0
 36 58  1  0  0  0
M  CHG  3  18  -1  26  -1  27  -1
M  END
>  <COMPND>
    ligand_BC.pdb 

>  <AUTHOR>
    GENERATED BY OPEN BABEL 2.2.1

>  <MASTER>
        0    0    0    0    0    0    0    0   58    0   58    0

$$$$
PMC1IJY_out_4.pdb_24289_ChemDiv_8015-7.pdb
 OpenBabel06131016443D

 52 58  0  0  0  0  0  0  0  0999 V2000
   61.0420   45.3830   96.2280 C   0  0  0  0  0
   60.3100   45.0310   96.7650 N   0  0  0  0  0
   59.6640   44.4630   96.3810 C   0  0  0  0  0
   59.7220   44.2200   95.4390 C   0  0  0  0  0
   61.0990   45.1390   95.2850 C   0  0  0  0  0
   61.8170   45.4780   94.7400 C   0  0  0  0  0
   62.4930   46.0690   95.1300 C   0  0  0  0  0
   62.4360   46.3130   96.0720 C   0  0  0  0  0
   61.7180   45.9710   96.6080 C   0  0  0  0  0
   61.6610   46.2140   97.5470 N   0  0  0  0  0
   62.3310   46.8060   97.9520 C   0  0  0  0  0
   62.2740   47.0480   98.8900 O   0  0  0  0  0
   60.9280   45.8640   98.0920 C   0  0  0  0  0
   60.2530   45.2740   97.7040 C   0  0  0  0  0
   59.0110   43.5920   95.0110 C   0  0  0  0  0
   58.2520   43.2360   95.5910 C   0  0  0  0  0
   58.1940   43.4850   96.5570 C   0  0  0  0  0
   58.8910   44.1020   96.9830 C   0  0  0  0  0
   57.5650   42.6270   95.1720 C   0  0  0  0  0
   63.0610   47.1480   97.3900 C   0  0  0  0  0
   63.3690   48.0680   97.5280 N   0  0  0  0  0
   62.9160   48.8110   97.0980 C   0  0  0  0  0
   63.2340   49.7260   97.2450 C   0  0  0  0  0
   64.0050   49.8920   97.8210 N   0  0  0  0  0
   64.4580   49.1490   98.2500 C   0  0  0  0  0
   64.1480   48.2270   98.1110 C   0  0  0  0  0
   64.3230   50.8070   97.9670 C   0  0  0  0  0
   63.9720   51.3340   98.7060 C   0  0  0  0  0
   64.2910   52.2490   98.8520 C   0  0  0  0  0
   63.9400   52.7830   99.5950 Cl  0  0  0  0  0
   64.9560   52.6270   98.2610 C   0  0  0  0  0
   65.3070   52.0930   97.5180 C   0  0  0  0  0
   64.9880   51.1850   97.3760 C   0  0  0  0  0
   61.8780   45.2000   93.6760 H   0  0  0  0  0
   63.3150   46.4570   94.5070 H   0  0  0  0  0
   63.1920   46.9780   96.5180 H   0  0  0  0  0
   60.8630   46.1390   99.1570 H   0  0  0  0  0
   59.0780   43.3160   93.9470 H   0  0  0  0  0
   57.3690   43.0900   97.1710 H   0  0  0  0  0
   57.8150   42.4720   94.0710 H   0  0  0  0  0
   56.5220   43.0740   95.2810 H   0  0  0  0  0
   57.5820   41.6200   95.7050 H   0  0  0  0  0
   63.9540   46.4460   97.4850 H   0  0  0  0  0
   62.5970   47.1800   96.3490 H   0  0  0  0  0
   62.0470   48.6260   96.4470 H   0  0  0  0  0
   62.7200   50.5700   96.7590 H   0  0  0  0  0
   65.3270   49.3410   98.8990 H   0  0  0  0  0
   64.6630   47.3840   98.5990 H   0  0  0  0  0
   63.2150   50.9010   99.3790 H   0  0  0  0  0
   65.3180   53.6550   98.4220 H   0  0  0  0  0
   66.0640   52.5220   96.8420 H   0  0  0  0  0
   65.3850   50.5870   96.5410 H   0  0  0  0  0
  1  5  2  0  0  0
  1  9  1  0  0  0
  1  2  1  0  0  0
  2  3  1  0  0  0
  2 14  1  0  0  0
  3  4  2  0  0  0
  3 18  1  0  0  0
  4 15  1  0  0  0
  4  5  1  0  0  0
  5  6  1  0  0  0
  6  7  2  0  0  0
  6 34  1  0  0  0
  7  8  1  0  0  0
  7 35  1  0  0  0
  8  9  2  0  0  0
  8 36  1  0  0  0
  9 10  1  0  0  0
 10 11  1  0  0  0
 10 13  1  0  0  0
 11 20  1  0  0  0
 11 12  2  0  0  0
 13 14  2  0  0  0
 13 37  1  0  0  0
 14 18  1  0  0  0
 15 16  2  0  0  0
 15 38  1  0  0  0
 16 19  1  0  0  0
 16 17  1  0  0  0
 17 18  2  0  0  0
 17 39  1  0  0  0
 19 40  1  0  0  0
 19 41  1  0  0  0
 19 42  1  0  0  0
 20 21  1  0  0  0
 20 43  1  0  0  0
 20 44  1  0  0  0
 21 22  2  0  0  0
 21 26  1  0  0  0
 22 23  1  0  0  0
 22 45  1  0  0  0
 23 24  2  0  0  0
 23 46  1  0  0  0
 24 27  1  0  0  0
 24 25  1  0  0  0
 25 26  2  0  0  0
 25 47  1  0  0  0
 26 48  1  0  0  0
 27 33  2  0  0  0
 27 28  1  0  0  0
 28 29  2  0  0  0
 28 49  1  0  0  0
 29 31  1  0  0  0
 29 30  1  0  0  0
 31 32  2  0  0  0
 31 50  1  0  0  0
 32 33  1  0  0  0
 32 51  1  0  0  0
 33 52  1  0  0  0
M  CHG  1  12  -1
M  END
>  <COMPND>
    ligand_BC.pdb 

>  <AUTHOR>
    GENERATED BY OPEN BABEL 2.2.1

>  <MASTER>
        0    0    0    0    0    0    0    0   52    0   52    0

$$$$
PMC1IJY_out_4.pdb_24684_ChemDiv_K906-1.pdb
 OpenBabel06131016443D

 56 58  0  0  0  0  0  0  0  0999 V2000
   62.9640   50.7810   98.0620 C   0  0  0  0  0
   62.5510   50.6300   97.1720 N   0  0  0  0  0
   62.3840   49.7030   96.8480 S   0  0  0  0  0
   63.3460   49.6200   96.5890 O   0  0  0  0  0
   61.4260   49.7850   97.1060 O   0  0  0  0  0
   62.2160   48.7680   96.5210 C   0  0  0  0  0
   62.1890   48.5820   95.5440 C   0  0  0  0  0
   62.0210   47.6510   95.2190 C   0  0  0  0  0
   61.9560   47.2540   94.3010 O   0  0  0  0  0
   61.8820   46.9140   95.8740 C   0  0  0  0  0
   61.7800   46.2980   94.3850 C   0  0  0  0  0
   61.7300   46.0650   95.3470 N   0  0  0  0  0
   61.6700   45.6610   93.6130 O   0  0  0  0  0
   61.5630   45.1660   95.7380 C   0  0  0  0  0
   61.9080   47.0990   96.8590 C   0  0  0  0  0
   62.0760   48.0290   97.1840 C   0  0  0  0  0
   62.6020   51.4950   98.6750 C   0  0  0  0  0
   62.8200   52.4500   98.5140 N   0  0  0  0  0
   62.0210   51.2410   99.4490 O   0  0  0  0  0
   63.4020   52.7040   97.7400 C   0  0  0  0  0
   64.3620   52.9270   97.8910 C   0  0  0  0  0
   64.9460   53.1820   97.1160 C   0  0  0  0  0
   64.5610   53.2120   96.1850 C   0  0  0  0  0
   63.5940   52.9870   96.0370 C   0  0  0  0  0
   63.0160   52.7340   96.8090 C   0  0  0  0  0
   65.9120   53.4060   97.2700 C   0  0  0  0  0
   66.1810   54.3620   97.4150 O   0  0  0  0  0
   66.6070   52.6760   97.2800 O   0  0  0  0  0
   67.2760   52.6190   96.5400 C   0  0  0  0  0
   68.0330   51.9560   96.6010 C   0  0  0  0  0
   63.7490   50.2220   98.3550 C   0  0  0  0  0
   64.4580   49.9820   97.6980 C   0  0  0  0  0
   65.3590   49.6870   98.0140 S   0  0  0  0  0
   66.0740   49.4550   97.3550 C   0  0  0  0  0
   61.9850   50.5390   97.5310 H   0  0  0  0  0
   61.5870   51.1990   97.1290 H   0  0  0  0  0
   62.3440   49.3990   94.8220 H   0  0  0  0  0
   61.4290   44.4050   94.9000 H   0  0  0  0  0
   60.6360   45.1900   96.4010 H   0  0  0  0  0
   62.4560   44.8640   96.3790 H   0  0  0  0  0
   61.7520   46.2810   97.5800 H   0  0  0  0  0
   62.1070   48.2410   98.2640 H   0  0  0  0  0
   62.4300   53.2150   99.1730 H   0  0  0  0  0
   64.7820   52.8930   98.9090 H   0  0  0  0  0
   65.2000   53.4910   95.3320 H   0  0  0  0  0
   63.1710   53.0200   95.0210 H   0  0  0  0  0
   61.9550   52.4870   96.6450 H   0  0  0  0  0
   67.1870   53.2780   95.6620 H   0  0  0  0  0
   68.1200   51.2990   97.4810 H   0  0  0  0  0
   68.7730   51.8890   95.7880 H   0  0  0  0  0
   64.2420   50.7310   99.2480 H   0  0  0  0  0
   63.2660   49.2140   98.5770 H   0  0  0  0  0
   64.2480   50.0420   96.6180 H   0  0  0  0  0
   67.0190   49.1450   97.9120 H   0  0  0  0  0
   66.2900   50.3460   96.6770 H   0  0  0  0  0
   65.7190   48.5870   96.7070 H   0  0  0  0  0
  1  2  1  0  0  0
  1 31  1  0  0  0
  1 17  1  0  0  0
  1 35  1  0  0  0
  2  3  1  0  0  0
  2 36  1  0  0  0
  3  6  1  0  0  0
  3  4  2  0  0  0
  3  5  2  0  0  0
  6  7  2  0  0  0
  6 16  1  0  0  0
  7  8  1  0  0  0
  7 37  1  0  0  0
  8  9  1  0  0  0
  8 10  2  0  0  0
  9 11  1  0  0  0
 10 12  1  0  0  0
 10 15  1  0  0  0
 11 13  2  0  0  0
 11 12  1  0  0  0
 12 14  1  0  0  0
 14 38  1  0  0  0
 14 39  1  0  0  0
 14 40  1  0  0  0
 15 16  2  0  0  0
 15 41  1  0  0  0
 16 42  1  0  0  0
 17 18  1  0  0  0
 17 19  2  0  0  0
 18 20  1  0  0  0
 18 43  1  0  0  0
 20 25  2  0  0  0
 20 21  1  0  0  0
 21 22  2  0  0  0
 21 44  1  0  0  0
 22 23  1  0  0  0
 22 26  1  0  0  0
 23 24  2  0  0  0
 23 45  1  0  0  0
 24 25  1  0  0  0
 24 46  1  0  0  0
 25 47  1  0  0  0
 26 28  1  0  0  0
 26 27  2  0  0  0
 28 29  1  0  0  0
 29 30  2  0  0  0
 29 48  1  0  0  0
 30 49  1  0  0  0
 30 50  1  0  0  0
 31 32  1  0  0  0
 31 51  1  0  0  0
 31 52  1  0  0  0
 32 33  2  0  0  0
 32 53  1  0  0  0
 33 34  1  0  0  0
 34 54  1  0  0  0
 34 55  1  0  0  0
 34 56  1  0  0  0
M  CHG  5   4  -1   5  -1  13  -1  19  -1  27  -1
M  END
>  <COMPND>
    ligand_BC.pdb 

>  <AUTHOR>
    GENERATED BY OPEN BABEL 2.2.1

>  <MASTER>
        0    0    0    0    0    0    0    0   56    0   56    0

$$$$
PMC1IJY_out_4.pdb_24923_ChemDiv_D038-0.pdb
 OpenBabel06131016443D

 55 59  0  0  0  0  0  0  0  0999 V2000
   62.9450   47.6490   98.1920 C   0  0  0  0  0
   63.8500   47.7370   98.6280 C   0  0  0  0  0
   64.1250   48.5980   99.0460 C   0  0  0  0  0
   63.5060   49.3780   99.0380 C   0  0  0  0  0
   62.6000   49.3040   98.6060 C   0  0  0  0  0
   62.3240   48.4400   98.1860 C   0  0  0  0  0
   63.7810   50.2380   99.4560 N   0  0  0  0  0
   64.2380   50.9470   98.9090 C   0  0  0  0  0
   64.5140   51.8120   99.3300 O   0  0  0  0  0
   63.6020   50.4010  100.4270 H   0  0  0  0  0
   64.4130   50.7760   97.9350 C   0  0  0  0  0
   65.3650   50.8020   97.5960 C   0  0  0  0  0
   65.7960   51.5730   97.1380 C   0  0  0  0  0
   66.7400   51.3250   96.9110 C   0  0  0  0  0
   65.4600   52.4830   96.8910 C   0  0  0  0  0
   66.8910   50.3810   97.2360 O   0  0  0  0  0
   67.3380   51.9610   96.4500 C   0  0  0  0  0
   66.0400   50.0640   97.6570 C   0  0  0  0  0
   67.0080   52.8640   96.2040 C   0  0  0  0  0
   66.0630   53.1310   96.4230 C   0  0  0  0  0
   65.7250   54.0400   96.1770 C   0  0  0  0  0
   62.6640   46.7870   97.7700 S   0  0  0  0  0
   62.9340   47.1350   96.8780 O   0  0  0  0  0
   62.3940   46.4410   98.6690 O   0  0  0  0  0
   62.3830   45.9270   97.3550 N   0  0  0  0  0
   61.7880   45.9400   96.5530 C   0  0  0  0  0
   61.8970   46.6640   95.8710 N   0  0  0  0  0
   61.3050   46.6850   95.0650 C   0  0  0  0  0
   60.6030   45.9790   94.9430 N   0  0  0  0  0
   61.4210   47.4140   94.3850 C   0  0  0  0  0
   60.4990   45.2620   95.6260 C   0  0  0  0  0
   61.0860   45.2400   96.4250 C   0  0  0  0  0
   59.8030   44.5570   95.5110 C   0  0  0  0  0
   64.6450   47.4360   97.8690 H   0  0  0  0  0
   63.7480   47.0520   99.5340 H   0  0  0  0  0
   65.1160   48.6880   99.5180 H   0  0  0  0  0
   61.9180   50.1690   98.5960 H   0  0  0  0  0
   61.3330   48.3540   97.7130 H   0  0  0  0  0
   63.9540   49.7710   97.6540 H   0  0  0  0  0
   63.9340   51.6760   97.4250 H   0  0  0  0  0
   64.4250   52.7720   97.1340 H   0  0  0  0  0
   68.3720   51.6680   96.2090 H   0  0  0  0  0
   65.8740   49.0740   98.1100 H   0  0  0  0  0
   67.6760   53.5740   95.6910 H   0  0  0  0  0
   66.5530   54.6260   95.6560 H   0  0  0  0  0
   65.3740   54.5960   97.1080 H   0  0  0  0  0
   64.8390   53.9310   95.4680 H   0  0  0  0  0
   62.7200   44.9850   97.7700 H   0  0  0  0  0
   60.6640   47.2740   93.5440 H   0  0  0  0  0
   62.4820   47.3990   93.9670 H   0  0  0  0  0
   61.2450   48.4240   94.8840 H   0  0  0  0  0
   60.9640   44.4420   97.1740 H   0  0  0  0  0
   59.2290   44.7430   94.5430 H   0  0  0  0  0
   59.0890   44.5590   96.4000 H   0  0  0  0  0
   60.3080   43.5370   95.4570 H   0  0  0  0  0
  1 22  1  0  0  0
  1  6  1  0  0  0
  1  2  1  0  0  0
  1 24  1  0  0  0
  2  3  1  0  0  0
  2 34  1  0  0  0
  2 35  1  0  0  0
  3  4  2  0  0  0
  3 36  1  0  0  0
  4  5  1  0  0  0
  4  7  1  0  0  0
  5  6  2  0  0  0
  5 37  1  0  0  0
  6 38  1  0  0  0
  7  8  1  0  0  0
  7 10  1  0  0  0
  8 11  1  0  0  0
  8  9  2  0  0  0
 11 12  1  0  0  0
 11 39  1  0  0  0
 11 40  1  0  0  0
 12 13  1  0  0  0
 12 18  2  0  0  0
 13 15  1  0  0  0
 13 14  2  0  0  0
 14 17  1  0  0  0
 14 16  1  0  0  0
 15 20  2  0  0  0
 15 41  1  0  0  0
 16 18  1  0  0  0
 17 19  2  0  0  0
 17 42  1  0  0  0
 18 43  1  0  0  0
 19 20  1  0  0  0
 19 44  1  0  0  0
 20 21  1  0  0  0
 21 45  1  0  0  0
 21 46  1  0  0  0
 21 47  1  0  0  0
 22 23  2  0  0  0
 22 25  1  0  0  0
 22 24  1  0  0  0
 25 26  1  0  0  0
 25 48  1  0  0  0
 26 27  2  0  0  0
 26 32  1  0  0  0
 27 28  1  0  0  0
 28 30  1  0  0  0
 28 29  2  0  0  0
 29 31  1  0  0  0
 30 49  1  0  0  0
 30 50  1  0  0  0
 30 51  1  0  0  0
 31 33  1  0  0  0
 31 32  2  0  0  0
 32 52  1  0  0  0
 33 53  1  0  0  0
 33 54  1  0  0  0
 33 55  1  0  0  0
M  CHG  2   9  -1  23  -1
M  END
>  <COMPND>
    ligand_BC.pdb 

>  <AUTHOR>
    GENERATED BY OPEN BABEL 2.2.1

>  <MASTER>
        0    0    0    0    0    0    0    0   55    0   55    0

$$$$
PMC1IJY_out_4.pdb_25494_ChemDiv_0627-0.pdb
 OpenBabel06131016443D

 48 53  0  0  0  0  0  0  0  0999 V2000
   61.7470   46.5170   97.0790 N   0  0  0  0  0
   61.6310   46.1610   96.2780 C   0  0  0  0  0
   61.2390   45.6420   95.7010 C   0  0  0  0  0
   60.4190   45.5880   97.7020 C   0  0  0  0  0
   61.1610   46.1740   97.5580 C   0  0  0  0  0
   61.0720   46.3600   98.3740 O   0  0  0  0  0
   58.6740   43.7150   96.4930 C   0  0  0  0  0
   59.2420   44.1610   96.3760 C   0  0  0  0  0
   59.5400   44.1940   95.6930 C   0  0  0  0  0
   59.2650   43.7810   95.1340 C   0  0  0  0  0
   58.6720   43.3210   95.2730 C   0  0  0  0  0
   58.3750   43.2880   95.9560 C   0  0  0  0  0
   57.7890   42.8260   96.0660 C   0  0  0  0  0
   57.5020   42.4100   95.5340 C   0  0  0  0  0
   57.8000   42.4430   94.8510 C   0  0  0  0  0
   58.3810   42.8910   94.7060 C   0  0  0  0  0
   60.1380   44.6590   95.5560 C   0  0  0  0  0
   60.4240   45.0830   96.1200 C   0  0  0  0  0
   60.1260   45.0500   96.8040 C   0  0  0  0  0
   59.5460   44.5930   96.9160 C   0  0  0  0  0
   62.0990   46.3270   95.5580 O   0  0  0  0  0
   62.4030   47.1770   97.3960 C   0  0  0  0  0
   62.1950   48.1400   97.3340 C   0  0  0  0  0
   62.8570   48.8300   97.6550 C   0  0  0  0  0
   63.7400   48.5280   98.0430 C   0  0  0  0  0
   63.9380   47.5600   98.1000 C   0  0  0  0  0
   63.2730   46.8800   97.7780 C   0  0  0  0  0
   64.3970   49.1890   98.3600 O   0  0  0  0  0
   65.0730   49.5460   97.7170 C   0  0  0  0  0
   61.2350   46.1690   97.3470 H   0  0  0  0  0
   60.8120   45.0080   94.8560 H   0  0  0  0  0
   60.6720   44.8450   98.5290 H   0  0  0  0  0
   59.5330   46.2380   98.0080 H   0  0  0  0  0
   58.2400   43.6700   97.5040 H   0  0  0  0  0
   59.7080   43.8350   94.1270 H   0  0  0  0  0
   57.3430   42.7730   97.0720 H   0  0  0  0  0
   56.6460   41.7480   95.7400 H   0  0  0  0  0
   57.3780   41.8230   94.0440 H   0  0  0  0  0
   58.8140   42.9340   93.6940 H   0  0  0  0  0
   60.5780   44.7110   94.5480 H   0  0  0  0  0
   59.1090   44.5460   97.9260 H   0  0  0  0  0
   61.2310   48.4640   96.9100 H   0  0  0  0  0
   62.6200   49.9030   97.5830 H   0  0  0  0  0
   64.8990   47.2250   98.5210 H   0  0  0  0  0
   63.5060   45.8060   97.8470 H   0  0  0  0  0
   65.7480   50.2940   98.2510 H   0  0  0  0  0
   64.5530   50.0440   96.8330 H   0  0  0  0  0
   65.7070   48.6840   97.3230 H   0  0  0  0  0
  1  2  1  0  0  0
  1 22  1  0  0  0
  1  5  1  0  0  0
  2 21  1  0  0  0
  2  3  1  0  0  0
  2 30  1  0  0  0
  3 21  1  0  0  0
  3 18  1  0  0  0
  3 31  1  0  0  0
  4 19  1  0  0  0
  4  5  1  0  0  0
  4 32  1  0  0  0
  4 33  1  0  0  0
  5  6  2  0  0  0
  7 12  2  0  0  0
  7  8  1  0  0  0
  7 34  1  0  0  0
  8  9  2  0  0  0
  8 20  1  0  0  0
  9 10  1  0  0  0
  9 17  1  0  0  0
 10 11  2  0  0  0
 10 35  1  0  0  0
 11 16  1  0  0  0
 11 12  1  0  0  0
 12 13  1  0  0  0
 13 14  2  0  0  0
 13 36  1  0  0  0
 14 15  1  0  0  0
 14 37  1  0  0  0
 15 16  2  0  0  0
 15 38  1  0  0  0
 16 39  1  0  0  0
 17 18  2  0  0  0
 17 40  1  0  0  0
 18 19  1  0  0  0
 19 20  2  0  0  0
 20 41  1  0  0  0
 22 23  2  0  0  0
 22 27  1  0  0  0
 23 24  1  0  0  0
 23 42  1  0  0  0
 24 25  2  0  0  0
 24 43  1  0  0  0
 25 26  1  0  0  0
 25 28  1  0  0  0
 26 27  2  0  0  0
 26 44  1  0  0  0
 27 45  1  0  0  0
 28 29  1  0  0  0
 29 46  1  0  0  0
 29 47  1  0  0  0
 29 48  1  0  0  0
M  CHG  1   6  -1
M  END
>  <COMPND>
    ligand_BC.pdb 

>  <AUTHOR>
    GENERATED BY OPEN BABEL 2.2.1

>  <MASTER>
        0    0    0    0    0    0    0    0   48    0   48    0

$$$$
PMC1IJY_out_4.pdb_24329_ChemDiv_000A-0.pdb
 OpenBabel06131016443D

 56 60  0  0  0  0  0  0  0  0999 V2000
   61.7040   47.8370   97.0710 C   0  0  0  0  0
   62.0970   47.6340   96.1600 C   0  0  0  0  0
   61.9020   46.6870   95.9590 C   0  0  0  0  0
   61.4050   46.3010   96.7120 C   0  0  0  0  0
   61.2700   47.0150   97.4250 N   0  0  0  0  0
   61.1090   45.3460   96.7100 C   0  0  0  0  0
   61.3130   44.7440   95.9270 C   0  0  0  0  0
   61.8330   45.1420   95.1350 C   0  0  0  0  0
   62.1150   46.0940   95.1650 C   0  0  0  0  0
   62.5720   48.3600   95.6610 N   0  0  0  0  0
   62.6670   49.2700   96.0400 N   0  0  0  0  0
   62.2740   49.4740   96.9510 C   0  0  0  0  0
   61.7930   48.7650   97.4710 N   0  0  0  0  0
   62.3630   50.4010   97.3510 S   0  0  0  0  0
   63.1230   50.6220   97.9710 C   0  0  0  0  0
   62.9700   51.0550   98.8560 C   0  0  0  0  0
   63.0230   52.0380   98.9650 N   0  0  0  0  0
   62.7570   50.4750   99.6590 O   0  0  0  0  0
   62.8670   52.4510   99.8570 C   0  0  0  0  0
   61.9570   52.7480  100.1160 C   0  0  0  0  0
   61.7900   53.1590  100.9970 C   0  0  0  0  0
   62.5200   53.2900  101.6560 C   0  0  0  0  0
   63.4540   52.9850  101.3900 C   0  0  0  0  0
   63.6110   52.5760  100.5080 C   0  0  0  0  0
   62.3340   53.7020  102.5330 S   0  0  0  0  0
   62.3890   54.6180  102.1160 O   0  0  0  0  0
   62.2780   52.7970  102.9560 O   0  0  0  0  0
   62.1480   54.1180  103.4060 N   0  0  0  0  0
   60.8140   46.9410   98.2910 C   0  0  0  0  0
   61.3150   46.6480   99.0870 C   0  0  0  0  0
   60.8940   46.7050  100.0160 C   0  0  0  0  0
   60.9780   47.4960  100.5730 C   0  0  0  0  0
   60.5670   47.5420  101.4730 C   0  0  0  0  0
   60.0550   46.7930  101.8430 C   0  0  0  0  0
   59.9480   45.9530  101.2870 C   0  0  0  0  0
   60.3680   45.9080  100.3720 C   0  0  0  0  0
   60.5530   44.9470   97.5730 H   0  0  0  0  0
   60.9880   43.6910   95.9210 H   0  0  0  0  0
   62.0760   44.5180   94.2600 H   0  0  0  0  0
   62.6730   46.5160   94.3140 H   0  0  0  0  0
   63.8790   51.2510   97.3950 H   0  0  0  0  0
   63.4580   49.5800   98.2900 H   0  0  0  0  0
   63.2510   52.6640   98.1120 H   0  0  0  0  0
   61.1210   52.6170   99.4100 H   0  0  0  0  0
   60.7690   53.4800  101.2550 H   0  0  0  0  0
   64.2930   53.1130  102.0920 H   0  0  0  0  0
   64.6280   52.2510  100.2360 H   0  0  0  0  0
   62.1360   55.2320  103.2940 H   0  0  0  0  0
   62.9230   53.8120  104.1540 H   0  0  0  0  0
   59.7430   47.1850   98.3730 H   0  0  0  0  0
   62.3380   46.2560   98.9740 H   0  0  0  0  0
   61.5440   48.3620  100.1950 H   0  0  0  0  0
   60.6890   48.4580  102.0730 H   0  0  0  0  0
   59.6040   46.8630  102.8450 H   0  0  0  0  0
   59.3780   45.0960  101.6790 H   0  0  0  0  0
   60.2590   45.0000   99.7580 H   0  0  0  0  0
  1  2  2  0  0  0
  1  5  1  0  0  0
  1 13  1  0  0  0
  2 10  1  0  0  0
  2  3  1  0  0  0
  3  9  2  0  0  0
  3  4  1  0  0  0
  4  6  2  0  0  0
  4  5  1  0  0  0
  5 29  1  0  0  0
  6  7  1  0  0  0
  6 37  1  0  0  0
  7  8  2  0  0  0
  7 38  1  0  0  0
  8  9  1  0  0  0
  8 39  1  0  0  0
  9 40  1  0  0  0
 10 11  2  0  0  0
 11 12  1  0  0  0
 12 14  1  0  0  0
 12 13  2  0  0  0
 14 15  1  0  0  0
 15 16  1  0  0  0
 15 41  1  0  0  0
 15 42  1  0  0  0
 16 17  1  0  0  0
 16 18  2  0  0  0
 17 19  1  0  0  0
 17 43  1  0  0  0
 19 20  2  0  0  0
 19 24  1  0  0  0
 20 21  1  0  0  0
 20 44  1  0  0  0
 21 22  2  0  0  0
 21 45  1  0  0  0
 22 23  1  0  0  0
 22 25  1  0  0  0
 23 24  2  0  0  0
 23 46  1  0  0  0
 24 47  1  0  0  0
 25 26  2  0  0  0
 25 27  2  0  0  0
 25 28  1  0  0  0
 28 48  1  0  0  0
 28 49  1  0  0  0
 29 30  2  0  0  0
 29 50  1  0  0  0
 30 31  1  0  0  0
 30 51  1  0  0  0
 31 36  2  0  0  0
 31 32  1  0  0  0
 32 33  2  0  0  0
 32 52  1  0  0  0
 33 34  1  0  0  0
 33 53  1  0  0  0
 34 35  2  0  0  0
 34 54  1  0  0  0
 35 36  1  0  0  0
 35 55  1  0  0  0
 36 56  1  0  0  0
M  CHG  3  18  -1  26  -1  27  -1
M  END
>  <COMPND>
    ligand_BC.pdb 

>  <AUTHOR>
    GENERATED BY OPEN BABEL 2.2.1

>  <MASTER>
        0    0    0    0    0    0    0    0   56    0   56    0

$$$$
PMC1IJY_out_4.pdb_24917_ChemDiv_4802-0.pdb
 OpenBabel06131016443D

 59 63  0  0  0  0  0  0  0  0999 V2000
   64.6300   50.9810   97.7050 C   0  0  0  0  0
   65.4410   51.2730   97.4100 N   0  0  0  0  0
   65.6940   51.9520   96.7020 C   0  0  0  0  0
   66.5280   52.0110   96.6510 C   0  0  0  0  0
   64.8950   52.4500   96.1710 O   0  0  0  0  0
   66.9660   51.4190   97.2770 C   0  0  0  0  0
   67.1970   52.6120   96.0310 C   0  0  0  0  0
   66.3160   50.9850   97.7220 C   0  0  0  0  0
   68.0650   51.3960   97.3150 C   0  0  0  0  0
   66.3530   50.2640   98.4780 O   0  0  0  0  0
   68.5560   51.9030   96.7910 C   0  0  0  0  0
   68.1580   52.6130   96.0420 C   0  0  0  0  0
   64.0680   50.2810   97.2650 C   0  0  0  0  0
   63.3400   50.4740   96.6190 N   0  0  0  0  0
   64.3740   49.3520   97.5940 O   0  0  0  0  0
   62.8090   49.7140   96.2100 C   0  0  0  0  0
   63.1130   49.2020   95.3540 C   0  0  0  0  0
   62.5160   48.4600   95.0250 C   0  0  0  0  0
   61.7030   48.2090   95.4470 C   0  0  0  0  0
   61.4410   48.6910   96.2320 C   0  0  0  0  0
   61.9350   49.4090   96.6240 C   0  0  0  0  0
   61.1610   47.4330   95.0290 S   0  0  0  0  0
   60.6270   46.6850   94.6190 O   0  0  0  0  0
   60.4710   48.1090   94.6930 O   0  0  0  0  0
   61.8520   46.7880   95.3700 N   0  0  0  0  0
   62.4120   46.2770   94.7090 C   0  0  0  0  0
   63.0870   45.6460   95.0470 N   0  0  0  0  0
   62.2350   46.4530   93.7840 N   0  0  0  0  0
   63.6220   45.1600   94.3390 C   0  0  0  0  0
   63.5080   45.2790   93.4000 C   0  0  0  0  0
   62.7630   45.9740   93.1170 C   0  0  0  0  0
   64.0240   51.2370   98.5360 C   0  0  0  0  0
   63.9190   52.2140   98.7740 C   0  0  0  0  0
   64.6120   52.6290   99.3490 C   0  0  0  0  0
   64.5120   53.6260   99.5970 C   0  0  0  0  0
   63.7370   54.1850   99.2740 C   0  0  0  0  0
   63.0480   53.7560   98.6970 C   0  0  0  0  0
   63.1550   52.7090   98.4380 C   0  0  0  0  0
   65.6190   51.5420   97.6230 H   0  0  0  0  0
   66.7160   53.2940   95.3120 H   0  0  0  0  0
   68.5630   50.7200   98.0280 H   0  0  0  0  0
   69.6510   51.8250   96.8880 H   0  0  0  0  0
   68.7850   53.2420   95.3900 H   0  0  0  0  0
   63.1130   51.4980   96.3510 H   0  0  0  0  0
   64.0470   49.4610   94.8310 H   0  0  0  0  0
   62.8240   47.9080   94.1230 H   0  0  0  0  0
   60.4990   48.3950   96.7200 H   0  0  0  0  0
   61.5530   49.9070   97.5290 H   0  0  0  0  0
   61.9920   46.6450   96.4340 H   0  0  0  0  0
   64.3890   44.4440   94.6760 H   0  0  0  0  0
   64.1110   44.7300   92.6600 H   0  0  0  0  0
   62.5790   46.1610   92.0470 H   0  0  0  0  0
   64.4050   50.6770   99.4530 H   0  0  0  0  0
   62.9770   50.9330   98.2030 H   0  0  0  0  0
   65.4680   52.0400   99.7140 H   0  0  0  0  0
   65.2770   54.0950  100.2360 H   0  0  0  0  0
   63.6550   55.2470   99.5540 H   0  0  0  0  0
   62.1890   54.3380   98.3270 H   0  0  0  0  0
   62.4060   52.2130   97.8010 H   0  0  0  0  0
  1 13  1  0  0  0
  1  2  1  0  0  0
  1 32  1  0  0  0
  1 39  1  0  0  0
  2  3  1  0  0  0
  2  8  1  0  0  0
  3  5  2  0  0  0
  3  4  1  0  0  0
  4  7  2  0  0  0
  4  6  1  0  0  0
  6  9  2  0  0  0
  6  8  1  0  0  0
  7 12  1  0  0  0
  7 40  1  0  0  0
  8 10  2  0  0  0
  9 11  1  0  0  0
  9 41  1  0  0  0
 11 12  2  0  0  0
 11 42  1  0  0  0
 12 43  1  0  0  0
 13 14  1  0  0  0
 13 15  2  0  0  0
 14 16  1  0  0  0
 14 44  1  0  0  0
 16 17  2  0  0  0
 16 21  1  0  0  0
 17 18  1  0  0  0
 17 45  1  0  0  0
 18 19  2  0  0  0
 18 46  1  0  0  0
 19 22  1  0  0  0
 19 20  1  0  0  0
 20 21  2  0  0  0
 20 47  1  0  0  0
 21 48  1  0  0  0
 22 23  2  0  0  0
 22 24  2  0  0  0
 22 25  1  0  0  0
 25 26  1  0  0  0
 25 49  1  0  0  0
 26 28  2  0  0  0
 26 27  1  0  0  0
 27 29  2  0  0  0
 28 31  1  0  0  0
 29 30  1  0  0  0
 29 50  1  0  0  0
 30 31  2  0  0  0
 30 51  1  0  0  0
 31 52  1  0  0  0
 32 33  1  0  0  0
 32 53  1  0  0  0
 32 54  1  0  0  0
 33 38  2  0  0  0
 33 34  1  0  0  0
 34 35  2  0  0  0
 34 55  1  0  0  0
 35 36  1  0  0  0
 35 56  1  0  0  0
 36 37  2  0  0  0
 36 57  1  0  0  0
 37 38  1  0  0  0
 37 58  1  0  0  0
 38 59  1  0  0  0
M  CHG  5   5  -1  10  -1  15  -1  23  -1  24  -1
M  END
>  <COMPND>
    ligand_BC.pdb 

>  <AUTHOR>
    GENERATED BY OPEN BABEL 2.2.1

>  <MASTER>
        0    0    0    0    0    0    0    0   59    0   59    0

$$$$
PMC1IJY_out_4.pdb_24125_ChemDiv_000A-0.pdb
 OpenBabel06131016443D

 47 54  0  0  0  0  0  0  0  0999 V2000
   60.9390   46.0040   97.1420 C   0  0  0  0  0
   60.3300   45.7640   97.9150 C   0  0  0  0  0
   59.5970   45.1000   97.8020 O   0  0  0  0  0
   59.4820   44.6840   96.9120 C   0  0  0  0  0
   60.0910   44.9250   96.1390 C   0  0  0  0  0
   60.8060   45.5770   96.2660 C   0  0  0  0  0
   59.9390   44.4740   95.2410 C   0  0  0  0  0
   59.2200   43.8160   95.1090 C   0  0  0  0  0
   58.6110   43.5760   95.8820 C   0  0  0  0  0
   58.7300   43.9970   96.7770 C   0  0  0  0  0
   57.8510   43.0380   96.1850 C   0  0  0  0  0
   58.2950   43.0260   95.0950 C   0  0  0  0  0
   60.5250   44.6940   94.4660 O   0  0  0  0  0
   60.4670   46.2090   98.8320 C   0  0  0  0  0
   61.1950   46.8640   98.9370 C   0  0  0  0  0
   61.8030   47.1040   98.1640 C   0  0  0  0  0
   61.6760   46.6860   97.2960 C   0  0  0  0  0
   62.2870   46.9380   96.5510 O   0  0  0  0  0
   60.7240   46.7770   99.8110 C   0  0  0  0  0
   61.4840   47.3930   99.7280 C   0  0  0  0  0
   61.3890   45.7940   95.4880 C   0  0  0  0  0
   62.2210   45.2790   95.2570 C   0  0  0  0  0
   62.7610   45.5480   94.4650 C   0  0  0  0  0
   62.5350   46.2810   93.8960 C   0  0  0  0  0
   61.7050   46.8270   94.0950 C   0  0  0  0  0
   61.1400   46.5870   94.8780 C   0  0  0  0  0
   63.1230   46.5010   93.1120 O   0  0  0  0  0
   63.8260   47.2020   93.1990 C   0  0  0  0  0
   59.8680   44.0390   94.1980 H   0  0  0  0  0
   58.8490   43.1710   97.5540 H   0  0  0  0  0
   57.7860   44.6270   96.8900 H   0  0  0  0  0
   57.9060   42.1770   96.9300 H   0  0  0  0  0
   56.8380   43.2200   96.6750 H   0  0  0  0  0
   57.9360   42.4050   94.2090 H   0  0  0  0  0
   59.6090   45.4610   98.7710 H   0  0  0  0  0
   61.7800   48.2350   98.0260 H   0  0  0  0  0
   62.8030   46.6710   98.4980 H   0  0  0  0  0
   60.1640   46.6540  100.7960 H   0  0  0  0  0
   61.3740   48.5260   99.7900 H   0  0  0  0  0
   62.4690   47.5330  100.2840 H   0  0  0  0  0
   62.5330   44.4230   95.8760 H   0  0  0  0  0
   63.6680   44.9690   94.2320 H   0  0  0  0  0
   61.4310   47.6780   93.4510 H   0  0  0  0  0
   60.2360   47.1770   95.0960 H   0  0  0  0  0
   64.3840   47.3060   92.2100 H   0  0  0  0  0
   64.5520   46.9310   94.0350 H   0  0  0  0  0
   63.3330   48.1970   93.4580 H   0  0  0  0  0
  1  6  2  0  0  0
  1 17  1  0  0  0
  1  2  1  0  0  0
  2  3  2  0  0  0
  2 14  1  0  0  0
  3  4  1  0  0  0
  4  5  2  0  0  0
  4 10  1  0  0  0
  5  7  1  0  0  0
  5  6  1  0  0  0
  6 21  1  0  0  0
  7 13  2  0  0  0
  7  8  1  0  0  0
  8 12  1  0  0  0
  8  9  1  0  0  0
  8 29  1  0  0  0
  9 12  1  0  0  0
  9 11  1  0  0  0
  9 10  1  0  0  0
 10 30  1  0  0  0
 10 31  1  0  0  0
 11 12  1  0  0  0
 11 32  1  0  0  0
 11 33  1  0  0  0
 12 34  1  0  0  0
 14 15  1  0  0  0
 14 19  1  0  0  0
 14 35  1  0  0  0
 15 16  1  0  0  0
 15 20  1  0  0  0
 15 19  1  0  0  0
 16 17  1  0  0  0
 16 36  1  0  0  0
 16 37  1  0  0  0
 17 18  2  0  0  0
 19 20  1  0  0  0
 19 38  1  0  0  0
 20 39  1  0  0  0
 20 40  1  0  0  0
 21 26  2  0  0  0
 21 22  1  0  0  0
 22 23  2  0  0  0
 22 41  1  0  0  0
 23 24  1  0  0  0
 23 42  1  0  0  0
 24 27  1  0  0  0
 24 25  2  0  0  0
 25 26  1  0  0  0
 25 43  1  0  0  0
 26 44  1  0  0  0
 27 28  1  0  0  0
 28 45  1  0  0  0
 28 46  1  0  0  0
 28 47  1  0  0  0
M  CHG  2  13  -1  18  -1
M  END
>  <COMPND>
    ligand_BC.pdb 

>  <AUTHOR>
    GENERATED BY OPEN BABEL 2.2.1

>  <MASTER>
        0    0    0    0    0    0    0    0   47    0   47    0

$$$$
PMC1IJY_out_4.pdb_24887_ChemDiv_0131-0.pdb
 OpenBabel06131016443D

 66 67  0  0  0  0  0  0  0  0999 V2000
   62.8280   47.5930   97.7960 C   0  0  0  0  0
   63.3080   47.9700   98.5660 C   0  0  0  0  0
   64.0220   48.6130   98.4270 C   0  0  0  0  0
   64.2570   48.8780   97.5140 C   0  0  0  0  0
   63.7870   48.5090   96.7490 C   0  0  0  0  0
   63.0620   47.8570   96.8870 C   0  0  0  0  0
   64.9590   49.5100   97.3690 N   0  0  0  0  0
   64.7790   50.4640   97.3510 C   0  0  0  0  0
   63.8590   50.7830   97.4840 O   0  0  0  0  0
   65.5160   51.1110   97.1990 C   0  0  0  0  0
   65.2980   52.0470   97.0290 C   0  0  0  0  0
   66.0060   52.6540   96.8860 C   0  0  0  0  0
   66.9100   52.3770   96.9050 C   0  0  0  0  0
   66.6510   51.8590   97.0140 C   0  0  0  0  0
   67.1230   51.4620   97.0720 C   0  0  0  0  0
   66.4350   50.8080   97.2230 C   0  0  0  0  0
   68.2570   50.9110   97.1350 C   0  0  0  0  0
   66.8910   50.8280   97.2020 C   0  0  0  0  0
   65.4980   50.3980   97.3360 C   0  0  0  0  0
   62.1040   46.9410   97.9380 S   0  0  0  0  0
   61.4560   47.6750   97.9240 O   0  0  0  0  0
   62.7610   46.2220   97.9510 O   0  0  0  0  0
   61.3880   46.3040   98.0780 N   0  0  0  0  0
   60.9900   45.8420   97.3300 C   0  0  0  0  0
   60.2850   45.2150   97.4790 N   0  0  0  0  0
   61.3050   46.0130   96.4180 N   0  0  0  0  0
   59.9010   44.7660   96.7250 C   0  0  0  0  0
   60.2030   44.9300   95.8490 C   0  0  0  0  0
   59.1770   44.1170   96.8330 C   0  0  0  0  0
   60.9070   45.5520   95.6760 C   0  0  0  0  0
   61.2160   45.7190   94.7840 C   0  0  0  0  0
   63.0360   47.6630   99.5880 H   0  0  0  0  0
   64.5620   49.0400   99.2870 H   0  0  0  0  0
   64.0640   48.8190   95.7290 H   0  0  0  0  0
   63.2990   46.9180   96.2860 H   0  0  0  0  0
   62.1370   48.4250   96.5390 H   0  0  0  0  0
   65.9720   49.1570   97.2220 H   0  0  0  0  0
   63.8400   51.8820   97.4330 H   0  0  0  0  0
   64.2500   52.3870   97.0050 H   0  0  0  0  0
   65.7740   53.7130   96.6920 H   0  0  0  0  0
   67.4690   53.0210   97.6610 H   0  0  0  0  0
   67.2310   52.5110   95.8190 H   0  0  0  0  0
   67.7910   51.8590   97.0140 H   0  0  0  0  0
   66.2700   52.9340   97.0140 H   0  0  0  0  0
   66.2560   51.3010   97.9260 H   0  0  0  0  0
   66.2760   51.3290   96.0770 H   0  0  0  0  0
   68.2220   51.3900   97.0440 H   0  0  0  0  0
   67.1310   51.6890   97.0270 H   0  0  0  0  0
   66.6020   49.9920   96.4440 H   0  0  0  0  0
   66.6600   50.3740   98.2530 H   0  0  0  0  0
   69.3970   50.9110   97.1350 H   0  0  0  0  0
   67.8760   51.9860   97.1350 H   0  0  0  0  0
   67.8620   50.3530   98.0470 H   0  0  0  0  0
   67.8820   50.3810   96.1980 H   0  0  0  0  0
   65.8080   50.6430   97.2780 H   0  0  0  0  0
   67.6020   49.9980   97.3340 H   0  0  0  0  0
   65.9720   50.0870   98.3250 H   0  0  0  0  0
   66.0250   49.6370   96.6710 H   0  0  0  0  0
   61.0310   46.1090   99.0810 H   0  0  0  0  0
   59.7360   44.3950   95.0070 H   0  0  0  0  0
   58.8760   43.7090   95.8120 H   0  0  0  0  0
   58.2820   44.6050   97.3430 H   0  0  0  0  0
   59.5390   43.2570   97.4880 H   0  0  0  0  0
   60.6230   45.0800   94.0500 H   0  0  0  0  0
   62.3290   45.4850   94.7010 H   0  0  0  0  0
   61.0600   46.8200   94.5330 H   0  0  0  0  0
  1  6  1  0  0  0
  1 21  1  0  0  0
  1 20  1  0  0  0
  1  2  1  0  0  0
  2  3  2  0  0  0
  2 32  1  0  0  0
  3  4  1  0  0  0
  3 33  1  0  0  0
  4  5  2  0  0  0
  4  7  1  0  0  0
  5  6  1  0  0  0
  5 34  1  0  0  0
  6 35  1  0  0  0
  6 36  1  0  0  0
  7  8  1  0  0  0
  7 37  1  0  0  0
  8 10  1  0  0  0
  8 19  1  0  0  0
  8  9  1  0  0  0
  9 38  1  0  0  0
 10 11  1  0  0  0
 10 16  1  0  0  0
 10 19  1  0  0  0
 11 12  2  0  0  0
 11 39  1  0  0  0
 12 13  1  0  0  0
 12 40  1  0  0  0
 13 15  1  0  0  0
 13 41  1  0  0  0
 13 42  1  0  0  0
 14 43  1  0  0  0
 14 44  1  0  0  0
 14 45  1  0  0  0
 14 46  1  0  0  0
 15 18  2  0  0  0
 15 47  1  0  0  0
 16 48  1  0  0  0
 16 49  1  0  0  0
 16 50  1  0  0  0
 17 51  1  0  0  0
 17 52  1  0  0  0
 17 53  1  0  0  0
 17 54  1  0  0  0
 18 55  1  0  0  0
 18 56  1  0  0  0
 19 57  1  0  0  0
 19 58  1  0  0  0
 20 21  1  0  0  0
 20 22  2  0  0  0
 20 23  1  0  0  0
 23 24  1  0  0  0
 23 59  1  0  0  0
 24 26  2  0  0  0
 24 25  1  0  0  0
 25 27  2  0  0  0
 26 30  1  0  0  0
 27 28  1  0  0  0
 27 29  1  0  0  0
 28 30  2  0  0  0
 28 60  1  0  0  0
 29 61  1  0  0  0
 29 62  1  0  0  0
 29 63  1  0  0  0
 30 31  1  0  0  0
 31 64  1  0  0  0
 31 65  1  0  0  0
 31 66  1  0  0  0
M  CHG  1  22  -1
M  END
>  <COMPND>
    ligand_BC.pdb 

>  <AUTHOR>
    GENERATED BY OPEN BABEL 2.2.1

>  <MASTER>
        0    0    0    0    0    0    0    0   66    0   66    0

$$$$
PMC1IJY_out_4.pdb_24104_ChemDiv_C561-2.pdb
 OpenBabel06131016443D

 64 68  0  0  0  0  0  0  0  0999 V2000
   62.9880   50.7610   99.6040 C   0  0  0  0  0
   63.1880   51.7230   99.7480 N   0  0  0  0  0
   63.8190   52.0120   99.0260 N   0  0  0  0  0
   64.0020   51.2420   98.4520 C   0  0  0  0  0
   63.4940   50.4620   98.7990 C   0  0  0  0  0
   63.4250   49.5120   98.4850 C   0  0  0  0  0
   62.8470   48.8680   98.9850 C   0  0  0  0  0
   62.3410   49.1670   99.7890 C   0  0  0  0  0
   62.4120   50.1110  100.0970 N   0  0  0  0  0
   61.7620   48.5100  100.2830 C   0  0  0  0  0
   63.9310   49.2130   97.6810 C   0  0  0  0  0
   64.6020   51.2480   97.6510 C   0  0  0  0  0
   62.7800   47.9080   98.6640 C   0  0  0  0  0
   62.0470   47.6500   98.0010 C   0  0  0  0  0
   61.9740   46.6890   97.7010 C   0  0  0  0  0
   62.1750   46.4290   96.7480 N   0  0  0  0  0
   62.4530   47.1350   96.0810 C   0  0  0  0  0
   62.0980   45.4640   96.4620 C   0  0  0  0  0
   62.6540   46.8750   95.1270 C   0  0  0  0  0
   62.5780   45.9080   94.8370 N   0  0  0  0  0
   62.7740   45.6440   93.8970 C   0  0  0  0  0
   62.2990   45.2050   95.5120 C   0  0  0  0  0
   62.6990   44.6930   93.6160 O   0  0  0  0  0
   61.6980   45.9820   98.3640 O   0  0  0  0  0
   63.0490   46.3480   93.2390 C   0  0  0  0  0
   62.4390   46.9500   92.7390 O   0  0  0  0  0
   63.0020   47.5360   92.1660 C   0  0  0  0  0
   63.9540   47.2850   92.3220 C   0  0  0  0  0
   63.9790   46.5480   92.9880 C   0  0  0  0  0
   62.8260   52.2800  100.4690 C   0  0  0  0  0
   63.2930   52.3160  101.3590 C   0  0  0  0  0
   62.9250   52.8810  102.0870 C   0  0  0  0  0
   62.0970   53.4140  101.9520 C   0  0  0  0  0
   63.3850   52.9180  102.9670 C   0  0  0  0  0
   61.6220   53.3850  101.0670 C   0  0  0  0  0
   61.7250   53.9810  102.6820 C   0  0  0  0  0
   61.9930   52.8160  100.3320 C   0  0  0  0  0
   61.8190   47.4930   99.7720 H   0  0  0  0  0
   60.6830   48.8770  100.3110 H   0  0  0  0  0
   62.1370   48.4120  101.3550 H   0  0  0  0  0
   64.5250   50.0890   97.2580 H   0  0  0  0  0
   63.2150   48.8050   96.8930 H   0  0  0  0  0
   64.6510   48.3810   97.9790 H   0  0  0  0  0
   64.6210   50.2090   97.1820 H   0  0  0  0  0
   65.6550   51.5660   97.9490 H   0  0  0  0  0
   64.2020   51.9960   96.8890 H   0  0  0  0  0
   63.4920   47.1500   99.0270 H   0  0  0  0  0
   61.3460   48.4090   97.6190 H   0  0  0  0  0
   62.5370   48.1880   96.3950 H   0  0  0  0  0
   61.7940   44.6960   97.1900 H   0  0  0  0  0
   62.9570   47.6450   94.4000 H   0  0  0  0  0
   62.2160   44.1510   95.2020 H   0  0  0  0  0
   62.6390   48.3200   91.4830 H   0  0  0  0  0
   64.8300   47.7460   91.8380 H   0  0  0  0  0
   64.8810   46.0470   93.3740 H   0  0  0  0  0
   64.2110   51.7300  101.5250 H   0  0  0  0  0
   64.3090   52.2510  102.9420 H   0  0  0  0  0
   62.6780   52.5830  103.7960 H   0  0  0  0  0
   63.7040   53.9920  103.1780 H   0  0  0  0  0
   60.7040   53.9720  100.9080 H   0  0  0  0  0
   60.7790   54.5020  102.3150 H   0  0  0  0  0
   62.4960   54.7520  103.0150 H   0  0  0  0  0
   61.4670   53.3210  103.5750 H   0  0  0  0  0
   61.4770   52.7800   99.3590 H   0  0  0  0  0
  1  5  2  0  0  0
  1  2  1  0  0  0
  1  9  1  0  0  0
  2  3  1  0  0  0
  2 30  1  0  0  0
  3  4  2  0  0  0
  4 12  1  0  0  0
  4  5  1  0  0  0
  5  6  1  0  0  0
  6 11  1  0  0  0
  6  7  2  0  0  0
  7 13  1  0  0  0
  7  8  1  0  0  0
  8  9  2  0  0  0
  8 10  1  0  0  0
 10 38  1  0  0  0
 10 39  1  0  0  0
 10 40  1  0  0  0
 11 41  1  0  0  0
 11 42  1  0  0  0
 11 43  1  0  0  0
 12 44  1  0  0  0
 12 45  1  0  0  0
 12 46  1  0  0  0
 13 14  2  0  0  0
 13 47  1  0  0  0
 14 15  1  0  0  0
 14 48  1  0  0  0
 15 16  1  0  0  0
 15 24  2  0  0  0
 16 17  2  0  0  0
 16 18  1  0  0  0
 17 19  1  0  0  0
 17 49  1  0  0  0
 18 22  2  0  0  0
 18 50  1  0  0  0
 19 20  2  0  0  0
 19 51  1  0  0  0
 20 21  1  0  0  0
 20 22  1  0  0  0
 21 25  1  0  0  0
 21 23  2  0  0  0
 22 52  1  0  0  0
 25 26  1  0  0  0
 25 29  2  0  0  0
 26 27  1  0  0  0
 27 28  2  0  0  0
 27 53  1  0  0  0
 28 29  1  0  0  0
 28 54  1  0  0  0
 29 55  1  0  0  0
 30 37  2  0  0  0
 30 31  1  0  0  0
 31 32  2  0  0  0
 31 56  1  0  0  0
 32 33  1  0  0  0
 32 34  1  0  0  0
 33 35  2  0  0  0
 33 36  1  0  0  0
 34 57  1  0  0  0
 34 58  1  0  0  0
 34 59  1  0  0  0
 35 37  1  0  0  0
 35 60  1  0  0  0
 36 61  1  0  0  0
 36 62  1  0  0  0
 36 63  1  0  0  0
 37 64  1  0  0  0
M  CHG  2  23  -1  24  -1
M  END
>  <COMPND>
    ligand_BC.pdb 

>  <AUTHOR>
    GENERATED BY OPEN BABEL 2.2.1

>  <MASTER>
        0    0    0    0    0    0    0    0   64    0   64    0

$$$$
PMC1IJY_out_4.pdb_24697_ChemDiv_3359-0.pdb
 OpenBabel06131016443D

 55 61  0  0  0  0  0  0  0  0999 V2000
   62.0050   48.4250   97.8270 N   0  0  0  0  0
   61.4000   48.9910   98.1660 C   0  0  0  0  0
   61.8350   49.6560   98.5630 C   0  0  0  0  0
   62.6970   49.5050   98.4720 C   0  0  0  0  0
   62.7930   48.7470   98.0190 C   0  0  0  0  0
   63.5680   48.3630   97.7890 O   0  0  0  0  0
   63.6870   52.1100  100.0270 C   0  0  0  0  0
   63.4130   52.8310  100.4570 C   0  0  0  0  0
   62.5560   52.9810  100.5480 C   0  0  0  0  0
   61.9720   52.4080  100.2060 C   0  0  0  0  0
   62.2490   51.6950   99.7800 C   0  0  0  0  0
   63.1060   51.5450   99.6890 C   0  0  0  0  0
   63.3860   50.8300   99.2630 C   0  0  0  0  0
   62.8140   50.2660   98.9260 C   0  0  0  0  0
   61.9550   50.4100   99.0130 C   0  0  0  0  0
   61.6650   51.1210   99.4380 C   0  0  0  0  0
   62.2760   53.6840  100.9680 C   0  0  0  0  0
   62.8460   54.2550  101.3090 C   0  0  0  0  0
   63.7030   54.1200  101.2270 C   0  0  0  0  0
   63.9940   53.3970  100.7950 C   0  0  0  0  0
   60.5110   48.8990   98.1120 O   0  0  0  0  0
   61.8310   47.6930   97.3900 C   0  0  0  0  0
   61.6550   47.7090   96.5120 C   0  0  0  0  0
   61.3820   46.9990   96.0970 N   0  0  0  0  0
   61.2100   47.0230   95.2280 C   0  0  0  0  0
   61.2700   46.2350   96.5380 C   0  0  0  0  0
   60.9370   46.3140   94.8130 C   0  0  0  0  0
   60.8280   45.5580   95.2550 O   0  0  0  0  0
   60.9970   45.5250   96.1230 C   0  0  0  0  0
   61.8340   48.5580   96.2900 O   0  0  0  0  0
   61.8200   46.9030   97.7960 C   0  0  0  0  0
   61.1440   46.6580   98.3090 C   0  0  0  0  0
   60.9380   45.8020   98.4040 S   0  0  0  0  0
   60.2520   45.5580   98.9050 C   0  0  0  0  0
   63.7980   49.2530   98.3210 H   0  0  0  0  0
   64.7660   51.9180   99.9140 H   0  0  0  0  0
   60.8920   52.5940  100.3180 H   0  0  0  0  0
   64.0950   51.1610   98.4340 H   0  0  0  0  0
   63.8580   50.2200  100.1030 H   0  0  0  0  0
   60.5830   51.3000   99.5460 H   0  0  0  0  0
   61.1940   53.8620  101.0750 H   0  0  0  0  0
   62.4790   55.1460  101.8430 H   0  0  0  0  0
   64.4210   54.8380  101.6540 H   0  0  0  0  0
   65.0750   53.2140  100.6850 H   0  0  0  0  0
   62.1000   48.6020   98.0230 H   0  0  0  0  0
   61.3450   47.9640   94.6710 H   0  0  0  0  0
   61.4800   46.1910   97.6180 H   0  0  0  0  0
   60.7260   46.3560   93.7330 H   0  0  0  0  0
   60.8600   44.5820   96.6760 H   0  0  0  0  0
   62.7810   46.8010   98.4010 H   0  0  0  0  0
   61.6980   46.1960   96.9100 H   0  0  0  0  0
   60.5520   47.4240   98.8350 H   0  0  0  0  0
   60.1590   44.4220   98.8950 H   0  0  0  0  0
   59.2920   46.0360   98.5190 H   0  0  0  0  0
   60.4250   45.9100   99.9750 H   0  0  0  0  0
  1 22  1  0  0  0
  1  5  1  0  0  0
  1  2  1  0  0  0
  2 21  2  0  0  0
  2  3  1  0  0  0
  3  4  1  0  0  0
  3 14  1  0  0  0
  3 15  1  0  0  0
  4  5  1  0  0  0
  4 14  1  0  0  0
  4 35  1  0  0  0
  5  6  2  0  0  0
  7 12  2  0  0  0
  7  8  1  0  0  0
  7 36  1  0  0  0
  8  9  2  0  0  0
  8 20  1  0  0  0
  9 10  1  0  0  0
  9 17  1  0  0  0
 10 11  2  0  0  0
 10 37  1  0  0  0
 11 16  1  0  0  0
 11 12  1  0  0  0
 12 13  1  0  0  0
 13 14  1  0  0  0
 13 38  1  0  0  0
 13 39  1  0  0  0
 14 15  1  0  0  0
 15 16  2  0  0  0
 16 40  1  0  0  0
 17 18  2  0  0  0
 17 41  1  0  0  0
 18 19  1  0  0  0
 18 42  1  0  0  0
 19 20  2  0  0  0
 19 43  1  0  0  0
 20 44  1  0  0  0
 22 23  1  0  0  0
 22 31  1  0  0  0
 22 45  1  0  0  0
 23 24  1  0  0  0
 23 30  2  0  0  0
 24 25  2  0  0  0
 24 26  1  0  0  0
 25 27  1  0  0  0
 25 46  1  0  0  0
 26 29  2  0  0  0
 26 47  1  0  0  0
 27 28  2  0  0  0
 27 48  1  0  0  0
 28 29  1  0  0  0
 29 49  1  0  0  0
 31 32  1  0  0  0
 31 50  1  0  0  0
 31 51  1  0  0  0
 32 33  2  0  0  0
 32 52  1  0  0  0
 33 34  1  0  0  0
 34 53  1  0  0  0
 34 54  1  0  0  0
 34 55  1  0  0  0
M  CHG  3   6  -1  21  -1  30  -1
M  END
>  <COMPND>
    ligand_BC.pdb 

>  <AUTHOR>
    GENERATED BY OPEN BABEL 2.2.1

>  <MASTER>
        0    0    0    0    0    0    0    0   55    0   55    0

$$$$
PMC1IJY_out_4.pdb_24329_ChemDiv_000A-0.pdb
 OpenBabel06131016443D

 56 60  0  0  0  0  0  0  0  0999 V2000
   61.7040   47.8370   97.0710 C   0  0  0  0  0
   62.0970   47.6340   96.1600 C   0  0  0  0  0
   61.9020   46.6870   95.9590 C   0  0  0  0  0
   61.4050   46.3010   96.7120 C   0  0  0  0  0
   61.2700   47.0150   97.4250 N   0  0  0  0  0
   61.1090   45.3460   96.7100 C   0  0  0  0  0
   61.3130   44.7440   95.9270 C   0  0  0  0  0
   61.8330   45.1420   95.1350 C   0  0  0  0  0
   62.1150   46.0940   95.1650 C   0  0  0  0  0
   62.5720   48.3600   95.6610 N   0  0  0  0  0
   62.6670   49.2700   96.0400 N   0  0  0  0  0
   62.2740   49.4740   96.9510 C   0  0  0  0  0
   61.7930   48.7650   97.4710 N   0  0  0  0  0
   62.3630   50.4010   97.3510 S   0  0  0  0  0
   63.1230   50.6220   97.9710 C   0  0  0  0  0
   62.9700   51.0550   98.8560 C   0  0  0  0  0
   63.0230   52.0380   98.9650 N   0  0  0  0  0
   62.7570   50.4750   99.6590 O   0  0  0  0  0
   62.8670   52.4510   99.8570 C   0  0  0  0  0
   61.9570   52.7480  100.1160 C   0  0  0  0  0
   61.7900   53.1590  100.9970 C   0  0  0  0  0
   62.5200   53.2900  101.6560 C   0  0  0  0  0
   63.4540   52.9850  101.3900 C   0  0  0  0  0
   63.6110   52.5760  100.5080 C   0  0  0  0  0
   62.3340   53.7020  102.5330 S   0  0  0  0  0
   62.3890   54.6180  102.1160 O   0  0  0  0  0
   62.2780   52.7970  102.9560 O   0  0  0  0  0
   62.1480   54.1180  103.4060 N   0  0  0  0  0
   60.8140   46.9410   98.2910 C   0  0  0  0  0
   61.3150   46.6480   99.0870 C   0  0  0  0  0
   60.8940   46.7050  100.0160 C   0  0  0  0  0
   60.9780   47.4960  100.5730 C   0  0  0  0  0
   60.5670   47.5420  101.4730 C   0  0  0  0  0
   60.0550   46.7930  101.8430 C   0  0  0  0  0
   59.9480   45.9530  101.2870 C   0  0  0  0  0
   60.3680   45.9080  100.3720 C   0  0  0  0  0
   60.5530   44.9470   97.5730 H   0  0  0  0  0
   60.9880   43.6910   95.9210 H   0  0  0  0  0
   62.0760   44.5180   94.2600 H   0  0  0  0  0
   62.6730   46.5160   94.3140 H   0  0  0  0  0
   63.8790   51.2510   97.3950 H   0  0  0  0  0
   63.4580   49.5800   98.2900 H   0  0  0  0  0
   63.2510   52.6640   98.1120 H   0  0  0  0  0
   61.1210   52.6170   99.4100 H   0  0  0  0  0
   60.7690   53.4800  101.2550 H   0  0  0  0  0
   64.2930   53.1130  102.0920 H   0  0  0  0  0
   64.6280   52.2510  100.2360 H   0  0  0  0  0
   62.1360   55.2320  103.2940 H   0  0  0  0  0
   62.9230   53.8120  104.1540 H   0  0  0  0  0
   59.7430   47.1850   98.3730 H   0  0  0  0  0
   62.3380   46.2560   98.9740 H   0  0  0  0  0
   61.5440   48.3620  100.1950 H   0  0  0  0  0
   60.6890   48.4580  102.0730 H   0  0  0  0  0
   59.6040   46.8630  102.8450 H   0  0  0  0  0
   59.3780   45.0960  101.6790 H   0  0  0  0  0
   60.2590   45.0000   99.7580 H   0  0  0  0  0
  1  2  2  0  0  0
  1  5  1  0  0  0
  1 13  1  0  0  0
  2 10  1  0  0  0
  2  3  1  0  0  0
  3  9  2  0  0  0
  3  4  1  0  0  0
  4  6  2  0  0  0
  4  5  1  0  0  0
  5 29  1  0  0  0
  6  7  1  0  0  0
  6 37  1  0  0  0
  7  8  2  0  0  0
  7 38  1  0  0  0
  8  9  1  0  0  0
  8 39  1  0  0  0
  9 40  1  0  0  0
 10 11  2  0  0  0
 11 12  1  0  0  0
 12 14  1  0  0  0
 12 13  2  0  0  0
 14 15  1  0  0  0
 15 16  1  0  0  0
 15 41  1  0  0  0
 15 42  1  0  0  0
 16 17  1  0  0  0
 16 18  2  0  0  0
 17 19  1  0  0  0
 17 43  1  0  0  0
 19 20  2  0  0  0
 19 24  1  0  0  0
 20 21  1  0  0  0
 20 44  1  0  0  0
 21 22  2  0  0  0
 21 45  1  0  0  0
 22 23  1  0  0  0
 22 25  1  0  0  0
 23 24  2  0  0  0
 23 46  1  0  0  0
 24 47  1  0  0  0
 25 26  2  0  0  0
 25 27  2  0  0  0
 25 28  1  0  0  0
 28 48  1  0  0  0
 28 49  1  0  0  0
 29 30  2  0  0  0
 29 50  1  0  0  0
 30 31  1  0  0  0
 30 51  1  0  0  0
 31 36  2  0  0  0
 31 32  1  0  0  0
 32 33  2  0  0  0
 32 52  1  0  0  0
 33 34  1  0  0  0
 33 53  1  0  0  0
 34 35  2  0  0  0
 34 54  1  0  0  0
 35 36  1  0  0  0
 35 55  1  0  0  0
 36 56  1  0  0  0
M  CHG  3  18  -1  26  -1  27  -1
M  END
>  <COMPND>
    ligand_BC.pdb 

>  <AUTHOR>
    GENERATED BY OPEN BABEL 2.2.1

>  <MASTER>
        0    0    0    0    0    0    0    0   56    0   56    0

$$$$
PMC1IJY_out_4.pdb_24733_ChemDiv_8008-4.pdb
 OpenBabel06131016443D

 52 60  0  0  0  0  0  0  0  0999 V2000
   61.5370   45.5200   96.4380 N   0  0  0  0  0
   61.6960   46.1140   95.6850 C   0  0  0  0  0
   61.9500   46.9850   96.0360 C   0  0  0  0  0
   62.2920   48.2130   95.4750 C   0  0  0  0  0
   62.5150   48.9610   96.1180 C   0  0  0  0  0
   62.3780   48.4410   96.9370 C   0  0  0  0  0
   62.1470   47.6590   96.3940 C   0  0  0  0  0
   61.9490   46.9330   97.0060 C   0  0  0  0  0
   61.6910   46.0180   97.2570 C   0  0  0  0  0
   61.6040   45.6680   98.2090 O   0  0  0  0  0
   62.1350   47.6700   95.3440 C   0  0  0  0  0
   62.2600   48.1490   94.4940 C   0  0  0  0  0
   62.1130   47.6770   93.6470 C   0  0  0  0  0
   61.8440   46.7340   93.6380 C   0  0  0  0  0
   61.7220   46.2650   94.4810 C   0  0  0  0  0
   61.8670   46.7310   95.3310 C   0  0  0  0  0
   62.5110   48.8590   97.8170 C   0  0  0  0  0
   62.7810   49.8000   97.8850 C   0  0  0  0  0
   62.9220   50.3380   97.0670 C   0  0  0  0  0
   62.7860   49.9040   96.1920 C   0  0  0  0  0
   62.5000   48.9680   94.9030 C   0  0  0  0  0
   62.7150   49.7500   94.3180 N   0  0  0  0  0
   61.6080   45.8560   94.7350 O   0  0  0  0  0
   61.2620   44.5620   96.3860 C   0  0  0  0  0
   60.2980   44.3280   96.3610 C   0  0  0  0  0
   59.8160   44.2860   95.4920 C   0  0  0  0  0
   58.8410   44.0500   95.4620 C   0  0  0  0  0
   58.3530   43.8560   96.3080 C   0  0  0  0  0
   58.8370   43.8970   97.1900 C   0  0  0  0  0
   59.8190   44.1360   97.2080 C   0  0  0  0  0
   62.0350   47.2840   96.0830 H   0  0  0  0  0
   61.9960   47.0390   98.1400 H   0  0  0  0  0
   61.3630   48.3790   94.8960 H   0  0  0  0  0
   63.0540   48.0120   94.7630 H   0  0  0  0  0
   62.2520   48.2120   92.6940 H   0  0  0  0  0
   61.6820   46.2110   92.6820 H   0  0  0  0  0
   61.4200   45.2060   94.4810 H   0  0  0  0  0
   62.3560   48.2670   98.7330 H   0  0  0  0  0
   62.9280   50.2590   98.8760 H   0  0  0  0  0
   63.2230   51.3950   97.1320 H   0  0  0  0  0
   62.0460   50.5330   95.5950 H   0  0  0  0  0
   63.8550   49.8580   95.8000 H   0  0  0  0  0
   62.6150   49.4520   93.2430 H   0  0  0  0  0
   63.7540   50.1140   94.5240 H   0  0  0  0  0
   61.8460   46.7200   94.0960 H   0  0  0  0  0
   61.7720   44.0880   95.4840 H   0  0  0  0  0
   61.5910   44.1540   97.3980 H   0  0  0  0  0
   60.3560   44.5000   94.5560 H   0  0  0  0  0
   58.3130   44.0060   94.4970 H   0  0  0  0  0
   57.2830   43.5960   96.2790 H   0  0  0  0  0
   58.3010   43.6830   98.1280 H   0  0  0  0  0
   60.3570   44.1830   98.1680 H   0  0  0  0  0
  1  2  1  0  0  0
  1 24  1  0  0  0
  1  9  1  0  0  0
  2 23  1  0  0  0
  2 16  1  0  0  0
  2  3  1  0  0  0
  3 16  1  0  0  0
  3  7  1  0  0  0
  3  8  1  0  0  0
  4 12  1  0  0  0
  4 21  1  0  0  0
  4  5  1  0  0  0
  4 31  1  0  0  0
  5 21  1  0  0  0
  5 20  1  0  0  0
  5  6  1  0  0  0
  6  7  1  0  0  0
  6 17  2  0  0  0
  7 11  1  0  0  0
  7  8  1  0  0  0
  8  9  1  0  0  0
  8 32  1  0  0  0
  9 10  2  0  0  0
 11 16  1  0  0  0
 11 33  1  0  0  0
 11 34  1  0  0  0
 12 13  2  0  0  0
 12 21  1  0  0  0
 13 14  1  0  0  0
 13 35  1  0  0  0
 14 15  2  0  0  0
 14 36  1  0  0  0
 15 16  1  0  0  0
 15 37  1  0  0  0
 17 18  1  0  0  0
 17 38  1  0  0  0
 18 19  2  0  0  0
 18 39  1  0  0  0
 19 20  1  0  0  0
 19 40  1  0  0  0
 20 41  1  0  0  0
 20 42  1  0  0  0
 21 22  1  0  0  0
 22 43  1  0  0  0
 22 44  1  0  0  0
 23 45  1  0  0  0
 24 25  1  0  0  0
 24 46  1  0  0  0
 24 47  1  0  0  0
 25 26  2  0  0  0
 25 30  1  0  0  0
 26 27  1  0  0  0
 26 48  1  0  0  0
 27 28  2  0  0  0
 27 49  1  0  0  0
 28 29  1  0  0  0
 28 50  1  0  0  0
 29 30  2  0  0  0
 29 51  1  0  0  0
 30 52  1  0  0  0
M  CHG  1  10  -1
M  END
>  <COMPND>
    ligand_BC.pdb 

>  <AUTHOR>
    GENERATED BY OPEN BABEL 2.2.1

>  <MASTER>
        0    0    0    0    0    0    0    0   52    0   52    0

$$$$
PMC1IJY_out_4.pdb_24887_ChemDiv_0131-0.pdb
 OpenBabel06131016443D

 66 67  0  0  0  0  0  0  0  0999 V2000
   62.8280   47.5930   97.7960 C   0  0  0  0  0
   63.3080   47.9700   98.5660 C   0  0  0  0  0
   64.0220   48.6130   98.4270 C   0  0  0  0  0
   64.2570   48.8780   97.5140 C   0  0  0  0  0
   63.7870   48.5090   96.7490 C   0  0  0  0  0
   63.0620   47.8570   96.8870 C   0  0  0  0  0
   64.9590   49.5100   97.3690 N   0  0  0  0  0
   64.7790   50.4640   97.3510 C   0  0  0  0  0
   63.8590   50.7830   97.4840 O   0  0  0  0  0
   65.5160   51.1110   97.1990 C   0  0  0  0  0
   65.2980   52.0470   97.0290 C   0  0  0  0  0
   66.0060   52.6540   96.8860 C   0  0  0  0  0
   66.9100   52.3770   96.9050 C   0  0  0  0  0
   66.6510   51.8590   97.0140 C   0  0  0  0  0
   67.1230   51.4620   97.0720 C   0  0  0  0  0
   66.4350   50.8080   97.2230 C   0  0  0  0  0
   68.2570   50.9110   97.1350 C   0  0  0  0  0
   66.8910   50.8280   97.2020 C   0  0  0  0  0
   65.4980   50.3980   97.3360 C   0  0  0  0  0
   62.1040   46.9410   97.9380 S   0  0  0  0  0
   61.4560   47.6750   97.9240 O   0  0  0  0  0
   62.7610   46.2220   97.9510 O   0  0  0  0  0
   61.3880   46.3040   98.0780 N   0  0  0  0  0
   60.9900   45.8420   97.3300 C   0  0  0  0  0
   60.2850   45.2150   97.4790 N   0  0  0  0  0
   61.3050   46.0130   96.4180 N   0  0  0  0  0
   59.9010   44.7660   96.7250 C   0  0  0  0  0
   60.2030   44.9300   95.8490 C   0  0  0  0  0
   59.1770   44.1170   96.8330 C   0  0  0  0  0
   60.9070   45.5520   95.6760 C   0  0  0  0  0
   61.2160   45.7190   94.7840 C   0  0  0  0  0
   63.0360   47.6630   99.5880 H   0  0  0  0  0
   64.5620   49.0400   99.2870 H   0  0  0  0  0
   64.0640   48.8190   95.7290 H   0  0  0  0  0
   63.2990   46.9180   96.2860 H   0  0  0  0  0
   62.1370   48.4250   96.5390 H   0  0  0  0  0
   65.9720   49.1570   97.2220 H   0  0  0  0  0
   63.8400   51.8820   97.4330 H   0  0  0  0  0
   64.2500   52.3870   97.0050 H   0  0  0  0  0
   65.7740   53.7130   96.6920 H   0  0  0  0  0
   67.4690   53.0210   97.6610 H   0  0  0  0  0
   67.2310   52.5110   95.8190 H   0  0  0  0  0
   67.7910   51.8590   97.0140 H   0  0  0  0  0
   66.2700   52.9340   97.0140 H   0  0  0  0  0
   66.2560   51.3010   97.9260 H   0  0  0  0  0
   66.2760   51.3290   96.0770 H   0  0  0  0  0
   68.2220   51.3900   97.0440 H   0  0  0  0  0
   67.1310   51.6890   97.0270 H   0  0  0  0  0
   66.6020   49.9920   96.4440 H   0  0  0  0  0
   66.6600   50.3740   98.2530 H   0  0  0  0  0
   69.3970   50.9110   97.1350 H   0  0  0  0  0
   67.8760   51.9860   97.1350 H   0  0  0  0  0
   67.8620   50.3530   98.0470 H   0  0  0  0  0
   67.8820   50.3810   96.1980 H   0  0  0  0  0
   65.8080   50.6430   97.2780 H   0  0  0  0  0
   67.6020   49.9980   97.3340 H   0  0  0  0  0
   65.9720   50.0870   98.3250 H   0  0  0  0  0
   66.0250   49.6370   96.6710 H   0  0  0  0  0
   61.0310   46.1090   99.0810 H   0  0  0  0  0
   59.7360   44.3950   95.0070 H   0  0  0  0  0
   58.8760   43.7090   95.8120 H   0  0  0  0  0
   58.2820   44.6050   97.3430 H   0  0  0  0  0
   59.5390   43.2570   97.4880 H   0  0  0  0  0
   60.6230   45.0800   94.0500 H   0  0  0  0  0
   62.3290   45.4850   94.7010 H   0  0  0  0  0
   61.0600   46.8200   94.5330 H   0  0  0  0  0
  1  6  1  0  0  0
  1 21  1  0  0  0
  1 20  1  0  0  0
  1  2  1  0  0  0
  2  3  2  0  0  0
  2 32  1  0  0  0
  3  4  1  0  0  0
  3 33  1  0  0  0
  4  5  2  0  0  0
  4  7  1  0  0  0
  5  6  1  0  0  0
  5 34  1  0  0  0
  6 35  1  0  0  0
  6 36  1  0  0  0
  7  8  1  0  0  0
  7 37  1  0  0  0
  8 10  1  0  0  0
  8 19  1  0  0  0
  8  9  1  0  0  0
  9 38  1  0  0  0
 10 11  1  0  0  0
 10 16  1  0  0  0
 10 19  1  0  0  0
 11 12  2  0  0  0
 11 39  1  0  0  0
 12 13  1  0  0  0
 12 40  1  0  0  0
 13 15  1  0  0  0
 13 41  1  0  0  0
 13 42  1  0  0  0
 14 43  1  0  0  0
 14 44  1  0  0  0
 14 45  1  0  0  0
 14 46  1  0  0  0
 15 18  2  0  0  0
 15 47  1  0  0  0
 16 48  1  0  0  0
 16 49  1  0  0  0
 16 50  1  0  0  0
 17 51  1  0  0  0
 17 52  1  0  0  0
 17 53  1  0  0  0
 17 54  1  0  0  0
 18 55  1  0  0  0
 18 56  1  0  0  0
 19 57  1  0  0  0
 19 58  1  0  0  0
 20 21  1  0  0  0
 20 22  2  0  0  0
 20 23  1  0  0  0
 23 24  1  0  0  0
 23 59  1  0  0  0
 24 26  2  0  0  0
 24 25  1  0  0  0
 25 27  2  0  0  0
 26 30  1  0  0  0
 27 28  1  0  0  0
 27 29  1  0  0  0
 28 30  2  0  0  0
 28 60  1  0  0  0
 29 61  1  0  0  0
 29 62  1  0  0  0
 29 63  1  0  0  0
 30 31  1  0  0  0
 31 64  1  0  0  0
 31 65  1  0  0  0
 31 66  1  0  0  0
M  CHG  1  22  -1
M  END
>  <COMPND>
    ligand_BC.pdb 

>  <AUTHOR>
    GENERATED BY OPEN BABEL 2.2.1

>  <MASTER>
        0    0    0    0    0    0    0    0   66    0   66    0

$$$$
PMC1IJY_out_4.pdb_24125_ChemDiv_000A-0.pdb
 OpenBabel06131016443D

 47 54  0  0  0  0  0  0  0  0999 V2000
   60.9390   46.0040   97.1420 C   0  0  0  0  0
   60.3300   45.7640   97.9150 C   0  0  0  0  0
   59.5970   45.1000   97.8020 O   0  0  0  0  0
   59.4820   44.6840   96.9120 C   0  0  0  0  0
   60.0910   44.9250   96.1390 C   0  0  0  0  0
   60.8060   45.5770   96.2660 C   0  0  0  0  0
   59.9390   44.4740   95.2410 C   0  0  0  0  0
   59.2200   43.8160   95.1090 C   0  0  0  0  0
   58.6110   43.5760   95.8820 C   0  0  0  0  0
   58.7300   43.9970   96.7770 C   0  0  0  0  0
   57.8510   43.0380   96.1850 C   0  0  0  0  0
   58.2950   43.0260   95.0950 C   0  0  0  0  0
   60.5250   44.6940   94.4660 O   0  0  0  0  0
   60.4670   46.2090   98.8320 C   0  0  0  0  0
   61.1950   46.8640   98.9370 C   0  0  0  0  0
   61.8030   47.1040   98.1640 C   0  0  0  0  0
   61.6760   46.6860   97.2960 C   0  0  0  0  0
   62.2870   46.9380   96.5510 O   0  0  0  0  0
   60.7240   46.7770   99.8110 C   0  0  0  0  0
   61.4840   47.3930   99.7280 C   0  0  0  0  0
   61.3890   45.7940   95.4880 C   0  0  0  0  0
   62.2210   45.2790   95.2570 C   0  0  0  0  0
   62.7610   45.5480   94.4650 C   0  0  0  0  0
   62.5350   46.2810   93.8960 C   0  0  0  0  0
   61.7050   46.8270   94.0950 C   0  0  0  0  0
   61.1400   46.5870   94.8780 C   0  0  0  0  0
   63.1230   46.5010   93.1120 O   0  0  0  0  0
   63.8260   47.2020   93.1990 C   0  0  0  0  0
   59.8680   44.0390   94.1980 H   0  0  0  0  0
   58.8490   43.1710   97.5540 H   0  0  0  0  0
   57.7860   44.6270   96.8900 H   0  0  0  0  0
   57.9060   42.1770   96.9300 H   0  0  0  0  0
   56.8380   43.2200   96.6750 H   0  0  0  0  0
   57.9360   42.4050   94.2090 H   0  0  0  0  0
   59.6090   45.4610   98.7710 H   0  0  0  0  0
   61.7800   48.2350   98.0260 H   0  0  0  0  0
   62.8030   46.6710   98.4980 H   0  0  0  0  0
   60.1640   46.6540  100.7960 H   0  0  0  0  0
   61.3740   48.5260   99.7900 H   0  0  0  0  0
   62.4690   47.5330  100.2840 H   0  0  0  0  0
   62.5330   44.4230   95.8760 H   0  0  0  0  0
   63.6680   44.9690   94.2320 H   0  0  0  0  0
   61.4310   47.6780   93.4510 H   0  0  0  0  0
   60.2360   47.1770   95.0960 H   0  0  0  0  0
   64.3840   47.3060   92.2100 H   0  0  0  0  0
   64.5520   46.9310   94.0350 H   0  0  0  0  0
   63.3330   48.1970   93.4580 H   0  0  0  0  0
  1  6  2  0  0  0
  1 17  1  0  0  0
  1  2  1  0  0  0
  2  3  2  0  0  0
  2 14  1  0  0  0
  3  4  1  0  0  0
  4  5  2  0  0  0
  4 10  1  0  0  0
  5  7  1  0  0  0
  5  6  1  0  0  0
  6 21  1  0  0  0
  7 13  2  0  0  0
  7  8  1  0  0  0
  8 12  1  0  0  0
  8  9  1  0  0  0
  8 29  1  0  0  0
  9 12  1  0  0  0
  9 11  1  0  0  0
  9 10  1  0  0  0
 10 30  1  0  0  0
 10 31  1  0  0  0
 11 12  1  0  0  0
 11 32  1  0  0  0
 11 33  1  0  0  0
 12 34  1  0  0  0
 14 15  1  0  0  0
 14 19  1  0  0  0
 14 35  1  0  0  0
 15 16  1  0  0  0
 15 20  1  0  0  0
 15 19  1  0  0  0
 16 17  1  0  0  0
 16 36  1  0  0  0
 16 37  1  0  0  0
 17 18  2  0  0  0
 19 20  1  0  0  0
 19 38  1  0  0  0
 20 39  1  0  0  0
 20 40  1  0  0  0
 21 26  2  0  0  0
 21 22  1  0  0  0
 22 23  2  0  0  0
 22 41  1  0  0  0
 23 24  1  0  0  0
 23 42  1  0  0  0
 24 27  1  0  0  0
 24 25  2  0  0  0
 25 26  1  0  0  0
 25 43  1  0  0  0
 26 44  1  0  0  0
 27 28  1  0  0  0
 28 45  1  0  0  0
 28 46  1  0  0  0
 28 47  1  0  0  0
M  CHG  2  13  -1  18  -1
M  END
>  <COMPND>
    ligand_BC.pdb 

>  <AUTHOR>
    GENERATED BY OPEN BABEL 2.2.1

>  <MASTER>
        0    0    0    0    0    0    0    0   47    0   47    0

$$$$
PMC1IJY_out_4.pdb_24697_ChemDiv_3359-0.pdb
 OpenBabel06131016443D

 55 61  0  0  0  0  0  0  0  0999 V2000
   62.0050   48.4250   97.8270 N   0  0  0  0  0
   61.4000   48.9910   98.1660 C   0  0  0  0  0
   61.8350   49.6560   98.5630 C   0  0  0  0  0
   62.6970   49.5050   98.4720 C   0  0  0  0  0
   62.7930   48.7470   98.0190 C   0  0  0  0  0
   63.5680   48.3630   97.7890 O   0  0  0  0  0
   63.6870   52.1100  100.0270 C   0  0  0  0  0
   63.4130   52.8310  100.4570 C   0  0  0  0  0
   62.5560   52.9810  100.5480 C   0  0  0  0  0
   61.9720   52.4080  100.2060 C   0  0  0  0  0
   62.2490   51.6950   99.7800 C   0  0  0  0  0
   63.1060   51.5450   99.6890 C   0  0  0  0  0
   63.3860   50.8300   99.2630 C   0  0  0  0  0
   62.8140   50.2660   98.9260 C   0  0  0  0  0
   61.9550   50.4100   99.0130 C   0  0  0  0  0
   61.6650   51.1210   99.4380 C   0  0  0  0  0
   62.2760   53.6840  100.9680 C   0  0  0  0  0
   62.8460   54.2550  101.3090 C   0  0  0  0  0
   63.7030   54.1200  101.2270 C   0  0  0  0  0
   63.9940   53.3970  100.7950 C   0  0  0  0  0
   60.5110   48.8990   98.1120 O   0  0  0  0  0
   61.8310   47.6930   97.3900 C   0  0  0  0  0
   61.6550   47.7090   96.5120 C   0  0  0  0  0
   61.3820   46.9990   96.0970 N   0  0  0  0  0
   61.2100   47.0230   95.2280 C   0  0  0  0  0
   61.2700   46.2350   96.5380 C   0  0  0  0  0
   60.9370   46.3140   94.8130 C   0  0  0  0  0
   60.8280   45.5580   95.2550 O   0  0  0  0  0
   60.9970   45.5250   96.1230 C   0  0  0  0  0
   61.8340   48.5580   96.2900 O   0  0  0  0  0
   61.8200   46.9030   97.7960 C   0  0  0  0  0
   61.1440   46.6580   98.3090 C   0  0  0  0  0
   60.9380   45.8020   98.4040 S   0  0  0  0  0
   60.2520   45.5580   98.9050 C   0  0  0  0  0
   63.7980   49.2530   98.3210 H   0  0  0  0  0
   64.7660   51.9180   99.9140 H   0  0  0  0  0
   60.8920   52.5940  100.3180 H   0  0  0  0  0
   64.0950   51.1610   98.4340 H   0  0  0  0  0
   63.8580   50.2200  100.1030 H   0  0  0  0  0
   60.5830   51.3000   99.5460 H   0  0  0  0  0
   61.1940   53.8620  101.0750 H   0  0  0  0  0
   62.4790   55.1460  101.8430 H   0  0  0  0  0
   64.4210   54.8380  101.6540 H   0  0  0  0  0
   65.0750   53.2140  100.6850 H   0  0  0  0  0
   62.1000   48.6020   98.0230 H   0  0  0  0  0
   61.3450   47.9640   94.6710 H   0  0  0  0  0
   61.4800   46.1910   97.6180 H   0  0  0  0  0
   60.7260   46.3560   93.7330 H   0  0  0  0  0
   60.8600   44.5820   96.6760 H   0  0  0  0  0
   62.7810   46.8010   98.4010 H   0  0  0  0  0
   61.6980   46.1960   96.9100 H   0  0  0  0  0
   60.5520   47.4240   98.8350 H   0  0  0  0  0
   60.1590   44.4220   98.8950 H   0  0  0  0  0
   59.2920   46.0360   98.5190 H   0  0  0  0  0
   60.4250   45.9100   99.9750 H   0  0  0  0  0
  1 22  1  0  0  0
  1  5  1  0  0  0
  1  2  1  0  0  0
  2 21  2  0  0  0
  2  3  1  0  0  0
  3  4  1  0  0  0
  3 14  1  0  0  0
  3 15  1  0  0  0
  4  5  1  0  0  0
  4 14  1  0  0  0
  4 35  1  0  0  0
  5  6  2  0  0  0
  7 12  2  0  0  0
  7  8  1  0  0  0
  7 36  1  0  0  0
  8  9  2  0  0  0
  8 20  1  0  0  0
  9 10  1  0  0  0
  9 17  1  0  0  0
 10 11  2  0  0  0
 10 37  1  0  0  0
 11 16  1  0  0  0
 11 12  1  0  0  0
 12 13  1  0  0  0
 13 14  1  0  0  0
 13 38  1  0  0  0
 13 39  1  0  0  0
 14 15  1  0  0  0
 15 16  2  0  0  0
 16 40  1  0  0  0
 17 18  2  0  0  0
 17 41  1  0  0  0
 18 19  1  0  0  0
 18 42  1  0  0  0
 19 20  2  0  0  0
 19 43  1  0  0  0
 20 44  1  0  0  0
 22 23  1  0  0  0
 22 31  1  0  0  0
 22 45  1  0  0  0
 23 24  1  0  0  0
 23 30  2  0  0  0
 24 25  2  0  0  0
 24 26  1  0  0  0
 25 27  1  0  0  0
 25 46  1  0  0  0
 26 29  2  0  0  0
 26 47  1  0  0  0
 27 28  2  0  0  0
 27 48  1  0  0  0
 28 29  1  0  0  0
 29 49  1  0  0  0
 31 32  1  0  0  0
 31 50  1  0  0  0
 31 51  1  0  0  0
 32 33  2  0  0  0
 32 52  1  0  0  0
 33 34  1  0  0  0
 34 53  1  0  0  0
 34 54  1  0  0  0
 34 55  1  0  0  0
M  CHG  3   6  -1  21  -1  30  -1
M  END
>  <COMPND>
    ligand_BC.pdb 

>  <AUTHOR>
    GENERATED BY OPEN BABEL 2.2.1

>  <MASTER>
        0    0    0    0    0    0    0    0   55    0   55    0

$$$$
PMC1IJY_out_4.pdb_24148_ChemDiv_C248-0.pdb
 OpenBabel06131016443D

 56 58  0  0  0  0  0  0  0  0999 V2000
   59.3780   43.9600   96.5900 N   0  0  0  0  0
   59.6390   44.4790   95.7910 C   0  0  0  0  0
   60.1510   45.3230   95.8980 N   0  0  0  0  0
   60.4080   45.6600   96.8080 C   0  0  0  0  0
   60.1470   45.1410   97.6070 C   0  0  0  0  0
   59.6300   44.2890   97.4920 C   0  0  0  0  0
   59.3830   43.7980   98.2480 O   0  0  0  0  0
   60.4030   45.4750   98.5140 N   0  0  0  0  0
   60.9190   46.3270   98.6290 C   0  0  0  0  0
   61.1810   46.8460   97.8300 C   0  0  0  0  0
   60.9240   46.5100   96.9200 N   0  0  0  0  0
   61.6940   47.6930   97.9390 C   0  0  0  0  0
   61.9450   48.0210   98.8420 C   0  0  0  0  0
   61.6840   47.5020   99.6410 C   0  0  0  0  0
   61.1730   46.6580   99.5330 C   0  0  0  0  0
   61.9760   47.9040  100.4850 C   0  0  0  0  0
   59.3960   44.1570   94.9610 O   0  0  0  0  0
   60.3450   45.7080   95.3050 H   0  0  0  0  0
   62.5380   48.9930   99.0170 N   0  0  0  0  0
   62.1170   50.1650   99.1620 C   0  0  0  0  0
   61.0110   50.2860   99.1140 O   0  0  0  0  0
   63.4030   48.8990   99.0540 H   0  0  0  0  0
   62.6790   51.0570   99.3240 C   0  0  0  0  0
   62.9000   51.4260  100.2670 C   0  0  0  0  0
   63.4650   52.3210  100.3600 C   0  0  0  0  0
   63.8000   52.8340   99.4810 C   0  0  0  0  0
   63.5680   52.4480   98.5170 C   0  0  0  0  0
   63.0120   51.5670   98.4370 C   0  0  0  0  0
   58.8710   43.1110   96.5990 C   0  0  0  0  0
   58.5220   43.2560   95.6750 C   0  0  0  0  0
   57.8930   42.4630   95.3550 C   0  0  0  0  0
   57.4410   42.2200   94.7070 C   0  0  0  0  0
   57.8000   42.0850   95.6400 C   0  0  0  0  0
   58.4220   42.9130   95.9010 C   0  0  0  0  0
   61.9860   48.2720   97.0480 H   0  0  0  0  0
   60.8830   46.0800  100.4250 H   0  0  0  0  0
   61.1970   48.3050  101.2140 H   0  0  0  0  0
   62.5750   47.4590  101.3470 H   0  0  0  0  0
   62.5520   50.8940  101.1660 H   0  0  0  0  0
   63.7060   52.7210  101.3580 H   0  0  0  0  0
   64.3850   53.7620   99.5750 H   0  0  0  0  0
   63.9110   52.9730   97.6110 H   0  0  0  0  0
   62.7660   51.1600   97.4430 H   0  0  0  0  0
   59.5880   42.2560   96.8310 H   0  0  0  0  0
   58.0780   43.2700   97.4020 H   0  0  0  0  0
   59.6620   43.2560   95.6750 H   0  0  0  0  0
   58.1410   44.3310   95.6750 H   0  0  0  0  0
   58.1270   42.6980   96.5870 H   0  0  0  0  0
   58.1470   42.7260   94.7380 H   0  0  0  0  0
   56.8600   41.9080   93.8740 H   0  0  0  0  0
   58.9400   42.0850   95.6400 H   0  0  0  0  0
   57.4190   43.1600   95.6400 H   0  0  0  0  0
   57.4050   41.5270   96.5520 H   0  0  0  0  0
   57.4250   41.5550   94.7030 H   0  0  0  0  0
   58.2380   43.9650   95.5020 H   0  0  0  0  0
   58.8010   41.8660   96.1450 H   0  0  0  0  0
  1  2  1  0  0  0
  1 29  1  0  0  0
  1  6  1  0  0  0
  2 17  2  0  0  0
  2  3  1  0  0  0
  3 18  1  0  0  0
  3  4  1  0  0  0
  4 11  2  0  0  0
  4  5  1  0  0  0
  5  6  1  0  0  0
  5  8  2  0  0  0
  6  7  2  0  0  0
  8  9  1  0  0  0
  9 10  2  0  0  0
  9 15  1  0  0  0
 10 11  1  0  0  0
 10 12  1  0  0  0
 12 13  2  0  0  0
 12 35  1  0  0  0
 13 19  1  0  0  0
 13 14  1  0  0  0
 14 15  2  0  0  0
 14 16  1  0  0  0
 15 36  1  0  0  0
 16 19  1  0  0  0
 16 37  1  0  0  0
 16 38  1  0  0  0
 19 22  1  0  0  0
 19 20  1  0  0  0
 20 21  2  0  0  0
 20 23  1  0  0  0
 23 28  2  0  0  0
 23 24  1  0  0  0
 24 25  2  0  0  0
 24 39  1  0  0  0
 25 26  1  0  0  0
 25 40  1  0  0  0
 26 27  2  0  0  0
 26 41  1  0  0  0
 27 28  1  0  0  0
 27 42  1  0  0  0
 28 43  1  0  0  0
 29 34  1  0  0  0
 29 44  1  0  0  0
 29 45  1  0  0  0
 30 46  1  0  0  0
 30 47  1  0  0  0
 30 48  1  0  0  0
 30 49  1  0  0  0
 31 32  3  0  0  0
 31 34  1  0  0  0
 32 50  1  0  0  0
 33 51  1  0  0  0
 33 52  1  0  0  0
 33 53  1  0  0  0
 33 54  1  0  0  0
 34 55  1  0  0  0
 34 56  1  0  0  0
M  CHG  3   7  -1  17  -1  21  -1
M  END
>  <COMPND>
    ligand_BC.pdb 

>  <AUTHOR>
    GENERATED BY OPEN BABEL 2.2.1

>  <MASTER>
        0    0    0    0    0    0    0    0   56    0   56    0

$$$$
PMC1IJY_out_4.pdb_25494_ChemDiv_0627-0.pdb
 OpenBabel06131016443D

 48 53  0  0  0  0  0  0  0  0999 V2000
   61.7470   46.5170   97.0790 N   0  0  0  0  0
   61.6310   46.1610   96.2780 C   0  0  0  0  0
   61.2390   45.6420   95.7010 C   0  0  0  0  0
   60.4190   45.5880   97.7020 C   0  0  0  0  0
   61.1610   46.1740   97.5580 C   0  0  0  0  0
   61.0720   46.3600   98.3740 O   0  0  0  0  0
   58.6740   43.7150   96.4930 C   0  0  0  0  0
   59.2420   44.1610   96.3760 C   0  0  0  0  0
   59.5400   44.1940   95.6930 C   0  0  0  0  0
   59.2650   43.7810   95.1340 C   0  0  0  0  0
   58.6720   43.3210   95.2730 C   0  0  0  0  0
   58.3750   43.2880   95.9560 C   0  0  0  0  0
   57.7890   42.8260   96.0660 C   0  0  0  0  0
   57.5020   42.4100   95.5340 C   0  0  0  0  0
   57.8000   42.4430   94.8510 C   0  0  0  0  0
   58.3810   42.8910   94.7060 C   0  0  0  0  0
   60.1380   44.6590   95.5560 C   0  0  0  0  0
   60.4240   45.0830   96.1200 C   0  0  0  0  0
   60.1260   45.0500   96.8040 C   0  0  0  0  0
   59.5460   44.5930   96.9160 C   0  0  0  0  0
   62.0990   46.3270   95.5580 O   0  0  0  0  0
   62.4030   47.1770   97.3960 C   0  0  0  0  0
   62.1950   48.1400   97.3340 C   0  0  0  0  0
   62.8570   48.8300   97.6550 C   0  0  0  0  0
   63.7400   48.5280   98.0430 C   0  0  0  0  0
   63.9380   47.5600   98.1000 C   0  0  0  0  0
   63.2730   46.8800   97.7780 C   0  0  0  0  0
   64.3970   49.1890   98.3600 O   0  0  0  0  0
   65.0730   49.5460   97.7170 C   0  0  0  0  0
   61.2350   46.1690   97.3470 H   0  0  0  0  0
   60.8120   45.0080   94.8560 H   0  0  0  0  0
   60.6720   44.8450   98.5290 H   0  0  0  0  0
   59.5330   46.2380   98.0080 H   0  0  0  0  0
   58.2400   43.6700   97.5040 H   0  0  0  0  0
   59.7080   43.8350   94.1270 H   0  0  0  0  0
   57.3430   42.7730   97.0720 H   0  0  0  0  0
   56.6460   41.7480   95.7400 H   0  0  0  0  0
   57.3780   41.8230   94.0440 H   0  0  0  0  0
   58.8140   42.9340   93.6940 H   0  0  0  0  0
   60.5780   44.7110   94.5480 H   0  0  0  0  0
   59.1090   44.5460   97.9260 H   0  0  0  0  0
   61.2310   48.4640   96.9100 H   0  0  0  0  0
   62.6200   49.9030   97.5830 H   0  0  0  0  0
   64.8990   47.2250   98.5210 H   0  0  0  0  0
   63.5060   45.8060   97.8470 H   0  0  0  0  0
   65.7480   50.2940   98.2510 H   0  0  0  0  0
   64.5530   50.0440   96.8330 H   0  0  0  0  0
   65.7070   48.6840   97.3230 H   0  0  0  0  0
  1  2  1  0  0  0
  1 22  1  0  0  0
  1  5  1  0  0  0
  2 21  1  0  0  0
  2  3  1  0  0  0
  2 30  1  0  0  0
  3 21  1  0  0  0
  3 18  1  0  0  0
  3 31  1  0  0  0
  4 19  1  0  0  0
  4  5  1  0  0  0
  4 32  1  0  0  0
  4 33  1  0  0  0
  5  6  2  0  0  0
  7 12  2  0  0  0
  7  8  1  0  0  0
  7 34  1  0  0  0
  8  9  2  0  0  0
  8 20  1  0  0  0
  9 10  1  0  0  0
  9 17  1  0  0  0
 10 11  2  0  0  0
 10 35  1  0  0  0
 11 16  1  0  0  0
 11 12  1  0  0  0
 12 13  1  0  0  0
 13 14  2  0  0  0
 13 36  1  0  0  0
 14 15  1  0  0  0
 14 37  1  0  0  0
 15 16  2  0  0  0
 15 38  1  0  0  0
 16 39  1  0  0  0
 17 18  2  0  0  0
 17 40  1  0  0  0
 18 19  1  0  0  0
 19 20  2  0  0  0
 20 41  1  0  0  0
 22 23  2  0  0  0
 22 27  1  0  0  0
 23 24  1  0  0  0
 23 42  1  0  0  0
 24 25  2  0  0  0
 24 43  1  0  0  0
 25 26  1  0  0  0
 25 28  1  0  0  0
 26 27  2  0  0  0
 26 44  1  0  0  0
 27 45  1  0  0  0
 28 29  1  0  0  0
 29 46  1  0  0  0
 29 47  1  0  0  0
 29 48  1  0  0  0
M  CHG  1   6  -1
M  END
>  <COMPND>
    ligand_BC.pdb 

>  <AUTHOR>
    GENERATED BY OPEN BABEL 2.2.1

>  <MASTER>
        0    0    0    0    0    0    0    0   48    0   48    0

$$$$
PMC1IJY_out_4.pdb_24329_ChemDiv_000A-0.pdb
 OpenBabel06131016443D

 56 60  0  0  0  0  0  0  0  0999 V2000
   61.7040   47.8370   97.0710 C   0  0  0  0  0
   62.0970   47.6340   96.1600 C   0  0  0  0  0
   61.9020   46.6870   95.9590 C   0  0  0  0  0
   61.4050   46.3010   96.7120 C   0  0  0  0  0
   61.2700   47.0150   97.4250 N   0  0  0  0  0
   61.1090   45.3460   96.7100 C   0  0  0  0  0
   61.3130   44.7440   95.9270 C   0  0  0  0  0
   61.8330   45.1420   95.1350 C   0  0  0  0  0
   62.1150   46.0940   95.1650 C   0  0  0  0  0
   62.5720   48.3600   95.6610 N   0  0  0  0  0
   62.6670   49.2700   96.0400 N   0  0  0  0  0
   62.2740   49.4740   96.9510 C   0  0  0  0  0
   61.7930   48.7650   97.4710 N   0  0  0  0  0
   62.3630   50.4010   97.3510 S   0  0  0  0  0
   63.1230   50.6220   97.9710 C   0  0  0  0  0
   62.9700   51.0550   98.8560 C   0  0  0  0  0
   63.0230   52.0380   98.9650 N   0  0  0  0  0
   62.7570   50.4750   99.6590 O   0  0  0  0  0
   62.8670   52.4510   99.8570 C   0  0  0  0  0
   61.9570   52.7480  100.1160 C   0  0  0  0  0
   61.7900   53.1590  100.9970 C   0  0  0  0  0
   62.5200   53.2900  101.6560 C   0  0  0  0  0
   63.4540   52.9850  101.3900 C   0  0  0  0  0
   63.6110   52.5760  100.5080 C   0  0  0  0  0
   62.3340   53.7020  102.5330 S   0  0  0  0  0
   62.3890   54.6180  102.1160 O   0  0  0  0  0
   62.2780   52.7970  102.9560 O   0  0  0  0  0
   62.1480   54.1180  103.4060 N   0  0  0  0  0
   60.8140   46.9410   98.2910 C   0  0  0  0  0
   61.3150   46.6480   99.0870 C   0  0  0  0  0
   60.8940   46.7050  100.0160 C   0  0  0  0  0
   60.9780   47.4960  100.5730 C   0  0  0  0  0
   60.5670   47.5420  101.4730 C   0  0  0  0  0
   60.0550   46.7930  101.8430 C   0  0  0  0  0
   59.9480   45.9530  101.2870 C   0  0  0  0  0
   60.3680   45.9080  100.3720 C   0  0  0  0  0
   60.5530   44.9470   97.5730 H   0  0  0  0  0
   60.9880   43.6910   95.9210 H   0  0  0  0  0
   62.0760   44.5180   94.2600 H   0  0  0  0  0
   62.6730   46.5160   94.3140 H   0  0  0  0  0
   63.8790   51.2510   97.3950 H   0  0  0  0  0
   63.4580   49.5800   98.2900 H   0  0  0  0  0
   63.2510   52.6640   98.1120 H   0  0  0  0  0
   61.1210   52.6170   99.4100 H   0  0  0  0  0
   60.7690   53.4800  101.2550 H   0  0  0  0  0
   64.2930   53.1130  102.0920 H   0  0  0  0  0
   64.6280   52.2510  100.2360 H   0  0  0  0  0
   62.1360   55.2320  103.2940 H   0  0  0  0  0
   62.9230   53.8120  104.1540 H   0  0  0  0  0
   59.7430   47.1850   98.3730 H   0  0  0  0  0
   62.3380   46.2560   98.9740 H   0  0  0  0  0
   61.5440   48.3620  100.1950 H   0  0  0  0  0
   60.6890   48.4580  102.0730 H   0  0  0  0  0
   59.6040   46.8630  102.8450 H   0  0  0  0  0
   59.3780   45.0960  101.6790 H   0  0  0  0  0
   60.2590   45.0000   99.7580 H   0  0  0  0  0
  1  2  2  0  0  0
  1  5  1  0  0  0
  1 13  1  0  0  0
  2 10  1  0  0  0
  2  3  1  0  0  0
  3  9  2  0  0  0
  3  4  1  0  0  0
  4  6  2  0  0  0
  4  5  1  0  0  0
  5 29  1  0  0  0
  6  7  1  0  0  0
  6 37  1  0  0  0
  7  8  2  0  0  0
  7 38  1  0  0  0
  8  9  1  0  0  0
  8 39  1  0  0  0
  9 40  1  0  0  0
 10 11  2  0  0  0
 11 12  1  0  0  0
 12 14  1  0  0  0
 12 13  2  0  0  0
 14 15  1  0  0  0
 15 16  1  0  0  0
 15 41  1  0  0  0
 15 42  1  0  0  0
 16 17  1  0  0  0
 16 18  2  0  0  0
 17 19  1  0  0  0
 17 43  1  0  0  0
 19 20  2  0  0  0
 19 24  1  0  0  0
 20 21  1  0  0  0
 20 44  1  0  0  0
 21 22  2  0  0  0
 21 45  1  0  0  0
 22 23  1  0  0  0
 22 25  1  0  0  0
 23 24  2  0  0  0
 23 46  1  0  0  0
 24 47  1  0  0  0
 25 26  2  0  0  0
 25 27  2  0  0  0
 25 28  1  0  0  0
 28 48  1  0  0  0
 28 49  1  0  0  0
 29 30  2  0  0  0
 29 50  1  0  0  0
 30 31  1  0  0  0
 30 51  1  0  0  0
 31 36  2  0  0  0
 31 32  1  0  0  0
 32 33  2  0  0  0
 32 52  1  0  0  0
 33 34  1  0  0  0
 33 53  1  0  0  0
 34 35  2  0  0  0
 34 54  1  0  0  0
 35 36  1  0  0  0
 35 55  1  0  0  0
 36 56  1  0  0  0
M  CHG  3  18  -1  26  -1  27  -1
M  END
>  <COMPND>
    ligand_BC.pdb 

>  <AUTHOR>
    GENERATED BY OPEN BABEL 2.2.1

>  <MASTER>
        0    0    0    0    0    0    0    0   56    0   56    0

$$$$
PMC1IJY_out_4.pdb_24733_ChemDiv_8008-4.pdb
 OpenBabel06131016443D

 52 60  0  0  0  0  0  0  0  0999 V2000
   61.5370   45.5200   96.4380 N   0  0  0  0  0
   61.6960   46.1140   95.6850 C   0  0  0  0  0
   61.9500   46.9850   96.0360 C   0  0  0  0  0
   62.2920   48.2130   95.4750 C   0  0  0  0  0
   62.5150   48.9610   96.1180 C   0  0  0  0  0
   62.3780   48.4410   96.9370 C   0  0  0  0  0
   62.1470   47.6590   96.3940 C   0  0  0  0  0
   61.9490   46.9330   97.0060 C   0  0  0  0  0
   61.6910   46.0180   97.2570 C   0  0  0  0  0
   61.6040   45.6680   98.2090 O   0  0  0  0  0
   62.1350   47.6700   95.3440 C   0  0  0  0  0
   62.2600   48.1490   94.4940 C   0  0  0  0  0
   62.1130   47.6770   93.6470 C   0  0  0  0  0
   61.8440   46.7340   93.6380 C   0  0  0  0  0
   61.7220   46.2650   94.4810 C   0  0  0  0  0
   61.8670   46.7310   95.3310 C   0  0  0  0  0
   62.5110   48.8590   97.8170 C   0  0  0  0  0
   62.7810   49.8000   97.8850 C   0  0  0  0  0
   62.9220   50.3380   97.0670 C   0  0  0  0  0
   62.7860   49.9040   96.1920 C   0  0  0  0  0
   62.5000   48.9680   94.9030 C   0  0  0  0  0
   62.7150   49.7500   94.3180 N   0  0  0  0  0
   61.6080   45.8560   94.7350 O   0  0  0  0  0
   61.2620   44.5620   96.3860 C   0  0  0  0  0
   60.2980   44.3280   96.3610 C   0  0  0  0  0
   59.8160   44.2860   95.4920 C   0  0  0  0  0
   58.8410   44.0500   95.4620 C   0  0  0  0  0
   58.3530   43.8560   96.3080 C   0  0  0  0  0
   58.8370   43.8970   97.1900 C   0  0  0  0  0
   59.8190   44.1360   97.2080 C   0  0  0  0  0
   62.0350   47.2840   96.0830 H   0  0  0  0  0
   61.9960   47.0390   98.1400 H   0  0  0  0  0
   61.3630   48.3790   94.8960 H   0  0  0  0  0
   63.0540   48.0120   94.7630 H   0  0  0  0  0
   62.2520   48.2120   92.6940 H   0  0  0  0  0
   61.6820   46.2110   92.6820 H   0  0  0  0  0
   61.4200   45.2060   94.4810 H   0  0  0  0  0
   62.3560   48.2670   98.7330 H   0  0  0  0  0
   62.9280   50.2590   98.8760 H   0  0  0  0  0
   63.2230   51.3950   97.1320 H   0  0  0  0  0
   62.0460   50.5330   95.5950 H   0  0  0  0  0
   63.8550   49.8580   95.8000 H   0  0  0  0  0
   62.6150   49.4520   93.2430 H   0  0  0  0  0
   63.7540   50.1140   94.5240 H   0  0  0  0  0
   61.8460   46.7200   94.0960 H   0  0  0  0  0
   61.7720   44.0880   95.4840 H   0  0  0  0  0
   61.5910   44.1540   97.3980 H   0  0  0  0  0
   60.3560   44.5000   94.5560 H   0  0  0  0  0
   58.3130   44.0060   94.4970 H   0  0  0  0  0
   57.2830   43.5960   96.2790 H   0  0  0  0  0
   58.3010   43.6830   98.1280 H   0  0  0  0  0
   60.3570   44.1830   98.1680 H   0  0  0  0  0
  1  2  1  0  0  0
  1 24  1  0  0  0
  1  9  1  0  0  0
  2 23  1  0  0  0
  2 16  1  0  0  0
  2  3  1  0  0  0
  3 16  1  0  0  0
  3  7  1  0  0  0
  3  8  1  0  0  0
  4 12  1  0  0  0
  4 21  1  0  0  0
  4  5  1  0  0  0
  4 31  1  0  0  0
  5 21  1  0  0  0
  5 20  1  0  0  0
  5  6  1  0  0  0
  6  7  1  0  0  0
  6 17  2  0  0  0
  7 11  1  0  0  0
  7  8  1  0  0  0
  8  9  1  0  0  0
  8 32  1  0  0  0
  9 10  2  0  0  0
 11 16  1  0  0  0
 11 33  1  0  0  0
 11 34  1  0  0  0
 12 13  2  0  0  0
 12 21  1  0  0  0
 13 14  1  0  0  0
 13 35  1  0  0  0
 14 15  2  0  0  0
 14 36  1  0  0  0
 15 16  1  0  0  0
 15 37  1  0  0  0
 17 18  1  0  0  0
 17 38  1  0  0  0
 18 19  2  0  0  0
 18 39  1  0  0  0
 19 20  1  0  0  0
 19 40  1  0  0  0
 20 41  1  0  0  0
 20 42  1  0  0  0
 21 22  1  0  0  0
 22 43  1  0  0  0
 22 44  1  0  0  0
 23 45  1  0  0  0
 24 25  1  0  0  0
 24 46  1  0  0  0
 24 47  1  0  0  0
 25 26  2  0  0  0
 25 30  1  0  0  0
 26 27  1  0  0  0
 26 48  1  0  0  0
 27 28  2  0  0  0
 27 49  1  0  0  0
 28 29  1  0  0  0
 28 50  1  0  0  0
 29 30  2  0  0  0
 29 51  1  0  0  0
 30 52  1  0  0  0
M  CHG  1  10  -1
M  END
>  <COMPND>
    ligand_BC.pdb 

>  <AUTHOR>
    GENERATED BY OPEN BABEL 2.2.1

>  <MASTER>
        0    0    0    0    0    0    0    0   52    0   52    0

$$$$
PMC1IJY_out_4.pdb_24329_ChemDiv_000A-0.pdb
 OpenBabel06131016443D

 58 62  0  0  0  0  0  0  0  0999 V2000
   61.3600   47.9620   98.3390 C   0  0  0  0  0
   60.7980   48.1040   99.1700 C   0  0  0  0  0
   60.5130   47.2140   99.4900 C   0  0  0  0  0
   60.8780   46.5310   98.8880 C   0  0  0  0  0
   61.4180   46.9860   98.1530 N   0  0  0  0  0
   60.7070   45.5580   99.0340 C   0  0  0  0  0
   60.1480   45.2430   99.8120 C   0  0  0  0  0
   59.7620   45.9530  100.4460 C   0  0  0  0  0
   59.9490   46.9140  100.2760 C   0  0  0  0  0
   60.6400   49.0370   99.4970 N   0  0  0  0  0
   61.0200   49.8210   99.0270 N   0  0  0  0  0
   61.5830   49.6790   98.1970 C   0  0  0  0  0
   61.7570   48.7550   97.8480 N   0  0  0  0  0
   61.9790   50.4720   97.7050 S   0  0  0  0  0
   62.8810   50.8360   97.9610 C   0  0  0  0  0
   63.0590   51.2100   98.8680 C   0  0  0  0  0
   62.8390   52.1500   99.0910 N   0  0  0  0  0
   63.4730   50.6150   99.5760 O   0  0  0  0  0
   63.0240   52.5050  100.0020 C   0  0  0  0  0
   62.3240   52.4610  100.7030 C   0  0  0  0  0
   62.4950   52.8090  101.6110 C   0  0  0  0  0
   63.3680   53.2140  101.8560 C   0  0  0  0  0
   64.0850   53.2580  101.1350 C   0  0  0  0  0
   63.9050   52.9080  100.2330 C   0  0  0  0  0
   63.5200   53.5570  102.7690 S   0  0  0  0  0
   63.7860   52.6340  103.0730 O   0  0  0  0  0
   63.2580   54.4770  102.4750 O   0  0  0  0  0
   63.6740   53.8950  103.6800 N   0  0  0  0  0
   61.9050   46.5790   97.4050 C   0  0  0  0  0
   61.4430   46.4150   96.5500 C   0  0  0  0  0
   61.9770   46.2290   95.6990 C   0  0  0  0  0
   62.2050   45.3280   95.4200 C   0  0  0  0  0
   62.7230   45.1560   94.5940 C   0  0  0  0  0
   63.0300   45.8880   94.0180 C   0  0  0  0  0
   62.8080   46.8410   94.2810 C   0  0  0  0  0
   62.2810   47.0130   95.1230 C   0  0  0  0  0
   61.1340   44.8200   98.3370 H   0  0  0  0  0
   59.9570   44.1710   99.9770 H   0  0  0  0  0
   59.1460   45.6510  101.3080 H   0  0  0  0  0
   59.5330   47.6710  100.9590 H   0  0  0  0  0
   63.1780   51.6210   97.1890 H   0  0  0  0  0
   63.5030   49.8810   97.9910 H   0  0  0  0  0
   62.3960   52.7930   98.3410 H   0  0  0  0  0
   61.3440   52.0180  100.4660 H   0  0  0  0  0
   61.6990   52.7470  102.3700 H   0  0  0  0  0
   65.0670   53.7000  101.3650 H   0  0  0  0  0
   64.6920   52.9630   99.4650 H   0  0  0  0  0
   63.4550   54.9930  103.7130 H   0  0  0  0  0
   64.7320   53.7010  103.9920 H   0  0  0  0  0
   62.8360   47.2030   97.1980 H   0  0  0  0  0
   62.1020   45.5220   97.7850 H   0  0  0  0  0
   60.7010   45.5630   96.7010 H   0  0  0  0  0
   60.9880   47.4360   96.3260 H   0  0  0  0  0
   61.8800   44.4760   96.0370 H   0  0  0  0  0
   62.9600   44.1170   94.3150 H   0  0  0  0  0
   63.6050   45.6780   93.1020 H   0  0  0  0  0
   63.1400   47.6820   93.6520 H   0  0  0  0  0
   62.0350   48.0450   95.4200 H   0  0  0  0  0
  1 13  2  0  0  0
  1  5  1  0  0  0
  1  2  1  0  0  0
  2  3  1  0  0  0
  2 10  2  0  0  0
  3  4  2  0  0  0
  3  9  1  0  0  0
  4  5  1  0  0  0
  4  6  1  0  0  0
  5 29  1  0  0  0
  6  7  2  0  0  0
  6 37  1  0  0  0
  7  8  1  0  0  0
  7 38  1  0  0  0
  8  9  2  0  0  0
  8 39  1  0  0  0
  9 40  1  0  0  0
 10 11  1  0  0  0
 11 12  2  0  0  0
 12 14  1  0  0  0
 12 13  1  0  0  0
 14 15  1  0  0  0
 15 16  1  0  0  0
 15 41  1  0  0  0
 15 42  1  0  0  0
 16 17  1  0  0  0
 16 18  2  0  0  0
 17 19  1  0  0  0
 17 43  1  0  0  0
 19 24  2  0  0  0
 19 20  1  0  0  0
 20 21  2  0  0  0
 20 44  1  0  0  0
 21 22  1  0  0  0
 21 45  1  0  0  0
 22 23  2  0  0  0
 22 25  1  0  0  0
 23 24  1  0  0  0
 23 46  1  0  0  0
 24 47  1  0  0  0
 25 27  2  0  0  0
 25 26  2  0  0  0
 25 28  1  0  0  0
 28 48  1  0  0  0
 28 49  1  0  0  0
 29 30  1  0  0  0
 29 50  1  0  0  0
 29 51  1  0  0  0
 30 31  1  0  0  0
 30 52  1  0  0  0
 30 53  1  0  0  0
 31 36  2  0  0  0
 31 32  1  0  0  0
 32 33  2  0  0  0
 32 54  1  0  0  0
 33 34  1  0  0  0
 33 55  1  0  0  0
 34 35  2  0  0  0
 34 56  1  0  0  0
 35 36  1  0  0  0
 35 57  1  0  0  0
 36 58  1  0  0  0
M  CHG  3  18  -1  26  -1  27  -1
M  END
>  <COMPND>
    ligand_BC.pdb 

>  <AUTHOR>
    GENERATED BY OPEN BABEL 2.2.1

>  <MASTER>
        0    0    0    0    0    0    0    0   58    0   58    0

$$$$
PMC1IJY_out_4.pdb_24923_ChemDiv_D038-0.pdb
 OpenBabel06131016443D

 55 59  0  0  0  0  0  0  0  0999 V2000
   62.9450   47.6490   98.1920 C   0  0  0  0  0
   63.8500   47.7370   98.6280 C   0  0  0  0  0
   64.1250   48.5980   99.0460 C   0  0  0  0  0
   63.5060   49.3780   99.0380 C   0  0  0  0  0
   62.6000   49.3040   98.6060 C   0  0  0  0  0
   62.3240   48.4400   98.1860 C   0  0  0  0  0
   63.7810   50.2380   99.4560 N   0  0  0  0  0
   64.2380   50.9470   98.9090 C   0  0  0  0  0
   64.5140   51.8120   99.3300 O   0  0  0  0  0
   63.6020   50.4010  100.4270 H   0  0  0  0  0
   64.4130   50.7760   97.9350 C   0  0  0  0  0
   65.3650   50.8020   97.5960 C   0  0  0  0  0
   65.7960   51.5730   97.1380 C   0  0  0  0  0
   66.7400   51.3250   96.9110 C   0  0  0  0  0
   65.4600   52.4830   96.8910 C   0  0  0  0  0
   66.8910   50.3810   97.2360 O   0  0  0  0  0
   67.3380   51.9610   96.4500 C   0  0  0  0  0
   66.0400   50.0640   97.6570 C   0  0  0  0  0
   67.0080   52.8640   96.2040 C   0  0  0  0  0
   66.0630   53.1310   96.4230 C   0  0  0  0  0
   65.7250   54.0400   96.1770 C   0  0  0  0  0
   62.6640   46.7870   97.7700 S   0  0  0  0  0
   62.9340   47.1350   96.8780 O   0  0  0  0  0
   62.3940   46.4410   98.6690 O   0  0  0  0  0
   62.3830   45.9270   97.3550 N   0  0  0  0  0
   61.7880   45.9400   96.5530 C   0  0  0  0  0
   61.8970   46.6640   95.8710 N   0  0  0  0  0
   61.3050   46.6850   95.0650 C   0  0  0  0  0
   60.6030   45.9790   94.9430 N   0  0  0  0  0
   61.4210   47.4140   94.3850 C   0  0  0  0  0
   60.4990   45.2620   95.6260 C   0  0  0  0  0
   61.0860   45.2400   96.4250 C   0  0  0  0  0
   59.8030   44.5570   95.5110 C   0  0  0  0  0
   64.6450   47.4360   97.8690 H   0  0  0  0  0
   63.7480   47.0520   99.5340 H   0  0  0  0  0
   65.1160   48.6880   99.5180 H   0  0  0  0  0
   61.9180   50.1690   98.5960 H   0  0  0  0  0
   61.3330   48.3540   97.7130 H   0  0  0  0  0
   63.9540   49.7710   97.6540 H   0  0  0  0  0
   63.9340   51.6760   97.4250 H   0  0  0  0  0
   64.4250   52.7720   97.1340 H   0  0  0  0  0
   68.3720   51.6680   96.2090 H   0  0  0  0  0
   65.8740   49.0740   98.1100 H   0  0  0  0  0
   67.6760   53.5740   95.6910 H   0  0  0  0  0
   66.5530   54.6260   95.6560 H   0  0  0  0  0
   65.3740   54.5960   97.1080 H   0  0  0  0  0
   64.8390   53.9310   95.4680 H   0  0  0  0  0
   62.7200   44.9850   97.7700 H   0  0  0  0  0
   60.6640   47.2740   93.5440 H   0  0  0  0  0
   62.4820   47.3990   93.9670 H   0  0  0  0  0
   61.2450   48.4240   94.8840 H   0  0  0  0  0
   60.9640   44.4420   97.1740 H   0  0  0  0  0
   59.2290   44.7430   94.5430 H   0  0  0  0  0
   59.0890   44.5590   96.4000 H   0  0  0  0  0
   60.3080   43.5370   95.4570 H   0  0  0  0  0
  1 22  1  0  0  0
  1  6  1  0  0  0
  1  2  1  0  0  0
  1 24  1  0  0  0
  2  3  1  0  0  0
  2 34  1  0  0  0
  2 35  1  0  0  0
  3  4  2  0  0  0
  3 36  1  0  0  0
  4  5  1  0  0  0
  4  7  1  0  0  0
  5  6  2  0  0  0
  5 37  1  0  0  0
  6 38  1  0  0  0
  7  8  1  0  0  0
  7 10  1  0  0  0
  8 11  1  0  0  0
  8  9  2  0  0  0
 11 12  1  0  0  0
 11 39  1  0  0  0
 11 40  1  0  0  0
 12 13  1  0  0  0
 12 18  2  0  0  0
 13 15  1  0  0  0
 13 14  2  0  0  0
 14 17  1  0  0  0
 14 16  1  0  0  0
 15 20  2  0  0  0
 15 41  1  0  0  0
 16 18  1  0  0  0
 17 19  2  0  0  0
 17 42  1  0  0  0
 18 43  1  0  0  0
 19 20  1  0  0  0
 19 44  1  0  0  0
 20 21  1  0  0  0
 21 45  1  0  0  0
 21 46  1  0  0  0
 21 47  1  0  0  0
 22 23  2  0  0  0
 22 25  1  0  0  0
 22 24  1  0  0  0
 25 26  1  0  0  0
 25 48  1  0  0  0
 26 27  2  0  0  0
 26 32  1  0  0  0
 27 28  1  0  0  0
 28 30  1  0  0  0
 28 29  2  0  0  0
 29 31  1  0  0  0
 30 49  1  0  0  0
 30 50  1  0  0  0
 30 51  1  0  0  0
 31 33  1  0  0  0
 31 32  2  0  0  0
 32 52  1  0  0  0
 33 53  1  0  0  0
 33 54  1  0  0  0
 33 55  1  0  0  0
M  CHG  2   9  -1  23  -1
M  END
>  <COMPND>
    ligand_BC.pdb 

>  <AUTHOR>
    GENERATED BY OPEN BABEL 2.2.1

>  <MASTER>
        0    0    0    0    0    0    0    0   55    0   55    0

$$$$
PMC1IJY_out_4.pdb_24324_ChemDiv_8009-4.pdb
 OpenBabel06131016443D

 45 49  0  0  0  0  0  0  0  0999 V2000
   60.1440   44.7610   96.5820 C   0  0  0  0  0
   60.0180   44.5420   95.6080 C   0  0  0  0  0
   60.5750   44.9970   94.9180 O   0  0  0  0  0
   61.2640   45.6760   95.1950 C   0  0  0  0  0
   61.3900   45.8950   96.1690 C   0  0  0  0  0
   60.8330   45.4410   96.8580 C   0  0  0  0  0
   60.9530   45.6540   97.8240 C   0  0  0  0  0
   61.6400   46.3300   98.0960 C   0  0  0  0  0
   62.1970   46.7850   97.4070 C   0  0  0  0  0
   62.0730   46.5680   96.4360 C   0  0  0  0  0
   59.2980   43.8560   95.5440 C   0  0  0  0  0
   58.9870   43.6550   96.4480 C   0  0  0  0  0
   59.5020   44.2090   97.1020 C   0  0  0  0  0
   59.3960   44.2090   98.0830 O   0  0  0  0  0
   58.2610   42.9820   96.5800 C   0  0  0  0  0
   57.8570   42.5200   95.7940 C   0  0  0  0  0
   58.1520   42.7070   94.9030 C   0  0  0  0  0
   58.8920   43.3910   94.7600 C   0  0  0  0  0
   61.8320   46.1400   94.4900 C   0  0  0  0  0
   62.6970   45.7270   94.2130 C   0  0  0  0  0
   63.2650   46.1910   93.5080 C   0  0  0  0  0
   62.9420   47.0470   93.1150 C   0  0  0  0  0
   62.0800   47.4620   93.3900 C   0  0  0  0  0
   63.5110   47.5120   92.4100 Br  0  0  0  0  0
   61.5110   46.9980   94.0940 C   0  0  0  0  0
   62.9000   47.4760   97.6650 O   0  0  0  0  0
   63.8410   47.1610   97.8250 C   0  0  0  0  0
   61.7660   46.5490   99.0700 O   0  0  0  0  0
   61.1860   47.2170   99.5200 C   0  0  0  0  0
   60.3360   45.1510   98.5850 H   0  0  0  0  0
   62.6870   47.0700   95.6720 H   0  0  0  0  0
   57.9060   42.7490   97.5960 H   0  0  0  0  0
   57.0560   41.7810   95.9540 H   0  0  0  0  0
   57.6970   42.1890   94.0440 H   0  0  0  0  0
   59.2440   43.6180   93.7410 H   0  0  0  0  0
   63.0330   44.7800   94.6650 H   0  0  0  0  0
   64.2230   45.7530   93.1840 H   0  0  0  0  0
   61.7470   48.4100   92.9380 H   0  0  0  0  0
   60.5530   47.4370   94.4150 H   0  0  0  0  0
   64.4980   48.0500   98.1030 H   0  0  0  0  0
   64.2480   46.6450   96.8940 H   0  0  0  0  0
   63.8440   46.4110   98.6830 H   0  0  0  0  0
   61.4950   47.3140  100.6130 H   0  0  0  0  0
   60.0920   46.9040   99.4450 H   0  0  0  0  0
   61.3080   48.2270   99.0050 H   0  0  0  0  0
  1  2  2  0  0  0
  1  6  1  0  0  0
  1 13  1  0  0  0
  2  3  1  0  0  0
  2 11  1  0  0  0
  3  4  2  0  0  0
  4 19  1  0  0  0
  4  5  1  0  0  0
  5 10  2  0  0  0
  5  6  1  0  0  0
  6  7  2  0  0  0
  7  8  1  0  0  0
  7 30  1  0  0  0
  8  9  2  0  0  0
  8 28  1  0  0  0
  9 10  1  0  0  0
  9 26  1  0  0  0
 10 31  1  0  0  0
 11 18  2  0  0  0
 11 12  1  0  0  0
 12 15  2  0  0  0
 12 13  1  0  0  0
 13 14  2  0  0  0
 15 16  1  0  0  0
 15 32  1  0  0  0
 16 17  2  0  0  0
 16 33  1  0  0  0
 17 18  1  0  0  0
 17 34  1  0  0  0
 18 35  1  0  0  0
 19 25  2  0  0  0
 19 20  1  0  0  0
 20 21  2  0  0  0
 20 36  1  0  0  0
 21 22  1  0  0  0
 21 37  1  0  0  0
 22 24  1  0  0  0
 22 23  2  0  0  0
 23 25  1  0  0  0
 23 38  1  0  0  0
 25 39  1  0  0  0
 26 27  1  0  0  0
 27 40  1  0  0  0
 27 41  1  0  0  0
 27 42  1  0  0  0
 28 29  1  0  0  0
 29 43  1  0  0  0
 29 44  1  0  0  0
 29 45  1  0  0  0
M  CHG  1  14  -1
M  END
>  <COMPND>
    ligand_BC.pdb 

>  <AUTHOR>
    GENERATED BY OPEN BABEL 2.2.1

>  <MASTER>
        0    0    0    0    0    0    0    0   45    0   45    0

$$$$
PMC1IJY_out_4.pdb_24095_ChemDiv_0879-0.pdb
 OpenBabel06131016443D

 46 48  0  0  0  0  0  0  0  0999 V2000
   60.7710   45.5140   96.2270 C   0  0  0  0  0
   60.9900   45.7700   97.1080 C   0  0  0  0  0
   60.5110   45.3730   97.8850 C   0  0  0  0  0
   59.8420   44.7430   97.7330 N   0  0  0  0  0
   59.6250   44.4890   96.8540 C   0  0  0  0  0
   60.0920   44.8760   96.0970 C   0  0  0  0  0
   59.8520   44.6000   95.1920 C   0  0  0  0  0
   59.1730   43.9620   95.0630 C   0  0  0  0  0
   58.6950   43.5650   95.8390 C   0  0  0  0  0
   58.9230   43.8290   96.6980 C   0  0  0  0  0
   58.1570   43.0300   95.2330 C   0  0  0  0  0
   58.2470   43.1960   96.6080 C   0  0  0  0  0
   60.3010   44.9700   94.4260 O   0  0  0  0  0
   60.7150   45.6190   98.8420 C   0  0  0  0  0
   61.8050   46.3740   94.5820 C   0  0  0  0  0
   62.6220   46.0200   94.2920 C   0  0  0  0  0
   63.0770   46.4110   93.5550 C   0  0  0  0  0
   62.9830   45.2830   94.7320 Cl  0  0  0  0  0
   62.7260   47.1630   93.0920 C   0  0  0  0  0
   61.8650   47.5330   93.4000 C   0  0  0  0  0
   63.1880   47.5590   92.3460 Cl  0  0  0  0  0
   61.4100   47.1420   94.1370 C   0  0  0  0  0
   61.6910   46.4280   97.2200 C   0  0  0  0  0
   62.5940   46.1770   97.4210 O   0  0  0  0  0
   61.5200   47.3830   97.1350 O   0  0  0  0  0
   61.4720   47.9280   97.9100 C   0  0  0  0  0
   61.3710   48.8640   97.8380 C   0  0  0  0  0
   61.3000   45.9540   95.3670 H   0  0  0  0  0
   59.5950   43.1130   94.4300 H   0  0  0  0  0
   58.3530   44.5870   94.5770 H   0  0  0  0  0
   59.2280   44.1770   97.7400 H   0  0  0  0  0
   58.4650   43.2480   94.1570 H   0  0  0  0  0
   57.0500   43.2590   95.3810 H   0  0  0  0  0
   58.3290   41.9250   95.4550 H   0  0  0  0  0
   58.3470   42.1100   96.9400 H   0  0  0  0  0
   57.1650   43.1020   96.9550 H   0  0  0  0  0
   61.5500   46.3950   98.8660 H   0  0  0  0  0
   61.0210   44.6920   99.4310 H   0  0  0  0  0
   59.7800   46.0590   99.3230 H   0  0  0  0  0
   61.2860   45.9140   95.4380 H   0  0  0  0  0
   64.0370   45.9810   93.2290 H   0  0  0  0  0
   61.4280   48.4040   92.8870 H   0  0  0  0  0
   60.4480   47.5540   94.4820 H   0  0  0  0  0
   61.5350   47.4630   98.9070 H   0  0  0  0  0
   61.3070   49.3360   96.8450 H   0  0  0  0  0
   61.3170   49.4840   98.7470 H   0  0  0  0  0
  1  6  2  0  0  0
  1  2  1  0  0  0
  1 28  1  0  0  0
  2 23  1  0  0  0
  2  3  2  0  0  0
  3  4  1  0  0  0
  3 14  1  0  0  0
  4  5  2  0  0  0
  5  6  1  0  0  0
  5 10  1  0  0  0
  6  7  1  0  0  0
  7 13  2  0  0  0
  7  8  1  0  0  0
  8  9  1  0  0  0
  8 29  1  0  0  0
  8 30  1  0  0  0
  9 11  1  0  0  0
  9 12  1  0  0  0
  9 10  1  0  0  0
 10 12  1  0  0  0
 10 31  1  0  0  0
 11 32  1  0  0  0
 11 33  1  0  0  0
 11 34  1  0  0  0
 12 35  1  0  0  0
 12 36  1  0  0  0
 14 37  1  0  0  0
 14 38  1  0  0  0
 14 39  1  0  0  0
 15 22  2  0  0  0
 15 16  1  0  0  0
 15 40  1  0  0  0
 16 17  2  0  0  0
 16 18  1  0  0  0
 17 19  1  0  0  0
 17 41  1  0  0  0
 19 21  1  0  0  0
 19 20  2  0  0  0
 20 22  1  0  0  0
 20 42  1  0  0  0
 22 43  1  0  0  0
 23 25  1  0  0  0
 23 24  2  0  0  0
 25 26  1  0  0  0
 26 27  2  0  0  0
 26 44  1  0  0  0
 27 45  1  0  0  0
 27 46  1  0  0  0
M  CHG  2  13  -1  24  -1
M  END
>  <COMPND>
    ligand_BC.pdb 

>  <AUTHOR>
    GENERATED BY OPEN BABEL 2.2.1

>  <MASTER>
        0    0    0    0    0    0    0    0   46    0   46    0

$$$$
PMC1IJY_out_4.pdb_24193_ChemDiv_5498-2.pdb
 OpenBabel06131016443D

 55 59  0  0  0  0  0  0  0  0999 V2000
   61.1680   46.2310   98.0220 N   0  0  0  0  0
   61.5490   46.9340   97.4420 C   0  0  0  0  0
   61.4970   46.8000   96.4530 C   0  0  0  0  0
   61.0770   45.9880   96.0470 C   0  0  0  0  0
   60.6890   45.2700   96.6100 C   0  0  0  0  0
   60.7330   45.3890   97.6000 N   0  0  0  0  0
   61.0420   45.8840   95.0180 C   0  0  0  0  0
   61.4300   46.6000   94.4590 C   0  0  0  0  0
   61.8650   47.4430   94.8810 C   0  0  0  0  0
   61.9020   47.5480   95.8510 C   0  0  0  0  0
   61.9730   47.7570   97.8540 C   0  0  0  0  0
   62.9860   47.7850   98.0340 C   0  0  0  0  0
   63.3930   48.5730   98.4290 C   0  0  0  0  0
   62.8080   49.3740   98.6630 C   0  0  0  0  0
   61.8340   49.3480   98.4900 C   0  0  0  0  0
   61.4100   48.5250   98.0780 C   0  0  0  0  0
   63.2060   50.1880   99.0660 O   0  0  0  0  0
   63.5130   50.9080   98.4900 C   0  0  0  0  0
   64.0800   51.6350   98.8690 C   0  0  0  0  0
   63.7090   52.5510   98.9830 N   0  0  0  0  0
   62.7750   52.7400   98.7190 C   0  0  0  0  0
   64.2680   53.2680   99.3570 C   0  0  0  0  0
   62.3790   53.6930   98.8340 C   0  0  0  0  0
   62.9310   54.4020   99.2040 C   0  0  0  0  0
   63.8820   54.1880   99.4670 C   0  0  0  0  0
   65.0280   51.4240   99.1320 O   0  0  0  0  0
   60.2800   44.4780   96.2140 N   0  0  0  0  0
   59.2650   44.3640   96.2710 C   0  0  0  0  0
   58.8210   43.5310   95.9590 C   0  0  0  0  0
   58.7030   42.7700   96.5710 C   0  0  0  0  0
   58.2580   41.9330   96.2590 C   0  0  0  0  0
   57.9380   41.8820   95.3220 C   0  0  0  0  0
   58.0600   42.6580   94.7030 C   0  0  0  0  0
   58.5010   43.4660   95.0410 C   0  0  0  0  0
   60.5830   44.9950   94.5570 H   0  0  0  0  0
   61.4000   46.5020   93.3620 H   0  0  0  0  0
   62.2880   48.2240   94.2300 H   0  0  0  0  0
   62.3640   48.4410   96.3010 H   0  0  0  0  0
   63.6120   46.9160   97.7770 H   0  0  0  0  0
   64.4770   48.6010   98.6220 H   0  0  0  0  0
   61.2080   50.2170   98.7460 H   0  0  0  0  0
   60.3260   48.4950   97.8840 H   0  0  0  0  0
   64.0590   50.4510   97.6000 H   0  0  0  0  0
   62.5450   51.4540   98.2360 H   0  0  0  0  0
   62.1510   51.9350   98.3000 H   0  0  0  0  0
   65.3090   53.0630   99.6530 H   0  0  0  0  0
   61.3380   53.8990   98.5380 H   0  0  0  0  0
   62.5270   55.4190   99.3340 H   0  0  0  0  0
   64.5140   54.9870   99.8870 H   0  0  0  0  0
   58.6520   45.1800   96.6860 H   0  0  0  0  0
   59.0650   42.8420   97.6090 H   0  0  0  0  0
   58.1250   41.0810   96.9440 H   0  0  0  0  0
   57.4450   40.9650   94.9610 H   0  0  0  0  0
   57.7060   42.6060   93.6610 H   0  0  0  0  0
   58.6380   44.3240   94.3640 H   0  0  0  0  0
  1  2  2  0  0  0
  1  6  1  0  0  0
  2  3  1  0  0  0
  2 11  1  0  0  0
  3 10  2  0  0  0
  3  4  1  0  0  0
  4  7  2  0  0  0
  4  5  1  0  0  0
  5 27  1  0  0  0
  5  6  2  0  0  0
  7  8  1  0  0  0
  7 35  1  0  0  0
  8  9  2  0  0  0
  8 36  1  0  0  0
  9 10  1  0  0  0
  9 37  1  0  0  0
 10 38  1  0  0  0
 11 12  2  0  0  0
 11 16  1  0  0  0
 12 13  1  0  0  0
 12 39  1  0  0  0
 13 14  2  0  0  0
 13 40  1  0  0  0
 14 15  1  0  0  0
 14 17  1  0  0  0
 15 16  2  0  0  0
 15 41  1  0  0  0
 16 42  1  0  0  0
 17 18  1  0  0  0
 18 19  1  0  0  0
 18 43  1  0  0  0
 18 44  1  0  0  0
 19 20  1  0  0  0
 19 26  2  0  0  0
 20 21  2  0  0  0
 20 22  1  0  0  0
 21 23  1  0  0  0
 21 45  1  0  0  0
 22 25  2  0  0  0
 22 46  1  0  0  0
 23 24  2  0  0  0
 23 47  1  0  0  0
 24 25  1  0  0  0
 24 48  1  0  0  0
 25 49  1  0  0  0
 27 28  2  0  0  0
 28 29  1  0  0  0
 28 50  1  0  0  0
 29 34  2  0  0  0
 29 30  1  0  0  0
 30 31  2  0  0  0
 30 51  1  0  0  0
 31 32  1  0  0  0
 31 52  1  0  0  0
 32 33  2  0  0  0
 32 53  1  0  0  0
 33 34  1  0  0  0
 33 54  1  0  0  0
 34 55  1  0  0  0
M  CHG  1  26  -1
M  END
>  <COMPND>
    ligand_BC.pdb 

>  <AUTHOR>
    GENERATED BY OPEN BABEL 2.2.1

>  <MASTER>
        0    0    0    0    0    0    0    0   55    0   55    0

$$$$
PMC1IJY_out_4.pdb_25494_ChemDiv_0627-0.pdb
 OpenBabel06131016443D

 48 53  0  0  0  0  0  0  0  0999 V2000
   61.7470   46.5170   97.0790 N   0  0  0  0  0
   61.6310   46.1610   96.2780 C   0  0  0  0  0
   61.2390   45.6420   95.7010 C   0  0  0  0  0
   60.4190   45.5880   97.7020 C   0  0  0  0  0
   61.1610   46.1740   97.5580 C   0  0  0  0  0
   61.0720   46.3600   98.3740 O   0  0  0  0  0
   58.6740   43.7150   96.4930 C   0  0  0  0  0
   59.2420   44.1610   96.3760 C   0  0  0  0  0
   59.5400   44.1940   95.6930 C   0  0  0  0  0
   59.2650   43.7810   95.1340 C   0  0  0  0  0
   58.6720   43.3210   95.2730 C   0  0  0  0  0
   58.3750   43.2880   95.9560 C   0  0  0  0  0
   57.7890   42.8260   96.0660 C   0  0  0  0  0
   57.5020   42.4100   95.5340 C   0  0  0  0  0
   57.8000   42.4430   94.8510 C   0  0  0  0  0
   58.3810   42.8910   94.7060 C   0  0  0  0  0
   60.1380   44.6590   95.5560 C   0  0  0  0  0
   60.4240   45.0830   96.1200 C   0  0  0  0  0
   60.1260   45.0500   96.8040 C   0  0  0  0  0
   59.5460   44.5930   96.9160 C   0  0  0  0  0
   62.0990   46.3270   95.5580 O   0  0  0  0  0
   62.4030   47.1770   97.3960 C   0  0  0  0  0
   62.1950   48.1400   97.3340 C   0  0  0  0  0
   62.8570   48.8300   97.6550 C   0  0  0  0  0
   63.7400   48.5280   98.0430 C   0  0  0  0  0
   63.9380   47.5600   98.1000 C   0  0  0  0  0
   63.2730   46.8800   97.7780 C   0  0  0  0  0
   64.3970   49.1890   98.3600 O   0  0  0  0  0
   65.0730   49.5460   97.7170 C   0  0  0  0  0
   61.2350   46.1690   97.3470 H   0  0  0  0  0
   60.8120   45.0080   94.8560 H   0  0  0  0  0
   60.6720   44.8450   98.5290 H   0  0  0  0  0
   59.5330   46.2380   98.0080 H   0  0  0  0  0
   58.2400   43.6700   97.5040 H   0  0  0  0  0
   59.7080   43.8350   94.1270 H   0  0  0  0  0
   57.3430   42.7730   97.0720 H   0  0  0  0  0
   56.6460   41.7480   95.7400 H   0  0  0  0  0
   57.3780   41.8230   94.0440 H   0  0  0  0  0
   58.8140   42.9340   93.6940 H   0  0  0  0  0
   60.5780   44.7110   94.5480 H   0  0  0  0  0
   59.1090   44.5460   97.9260 H   0  0  0  0  0
   61.2310   48.4640   96.9100 H   0  0  0  0  0
   62.6200   49.9030   97.5830 H   0  0  0  0  0
   64.8990   47.2250   98.5210 H   0  0  0  0  0
   63.5060   45.8060   97.8470 H   0  0  0  0  0
   65.7480   50.2940   98.2510 H   0  0  0  0  0
   64.5530   50.0440   96.8330 H   0  0  0  0  0
   65.7070   48.6840   97.3230 H   0  0  0  0  0
  1  2  1  0  0  0
  1 22  1  0  0  0
  1  5  1  0  0  0
  2 21  1  0  0  0
  2  3  1  0  0  0
  2 30  1  0  0  0
  3 21  1  0  0  0
  3 18  1  0  0  0
  3 31  1  0  0  0
  4 19  1  0  0  0
  4  5  1  0  0  0
  4 32  1  0  0  0
  4 33  1  0  0  0
  5  6  2  0  0  0
  7 12  2  0  0  0
  7  8  1  0  0  0
  7 34  1  0  0  0
  8  9  2  0  0  0
  8 20  1  0  0  0
  9 10  1  0  0  0
  9 17  1  0  0  0
 10 11  2  0  0  0
 10 35  1  0  0  0
 11 16  1  0  0  0
 11 12  1  0  0  0
 12 13  1  0  0  0
 13 14  2  0  0  0
 13 36  1  0  0  0
 14 15  1  0  0  0
 14 37  1  0  0  0
 15 16  2  0  0  0
 15 38  1  0  0  0
 16 39  1  0  0  0
 17 18  2  0  0  0
 17 40  1  0  0  0
 18 19  1  0  0  0
 19 20  2  0  0  0
 20 41  1  0  0  0
 22 23  2  0  0  0
 22 27  1  0  0  0
 23 24  1  0  0  0
 23 42  1  0  0  0
 24 25  2  0  0  0
 24 43  1  0  0  0
 25 26  1  0  0  0
 25 28  1  0  0  0
 26 27  2  0  0  0
 26 44  1  0  0  0
 27 45  1  0  0  0
 28 29  1  0  0  0
 29 46  1  0  0  0
 29 47  1  0  0  0
 29 48  1  0  0  0
M  CHG  1   6  -1
M  END
>  <COMPND>
    ligand_BC.pdb 

>  <AUTHOR>
    GENERATED BY OPEN BABEL 2.2.1

>  <MASTER>
        0    0    0    0    0    0    0    0   48    0   48    0

$$$$
PMC1IJY_out_4.pdb_24193_ChemDiv_5498-2.pdb
 OpenBabel06131016443D

 55 59  0  0  0  0  0  0  0  0999 V2000
   61.1680   46.2310   98.0220 N   0  0  0  0  0
   61.5490   46.9340   97.4420 C   0  0  0  0  0
   61.4970   46.8000   96.4530 C   0  0  0  0  0
   61.0770   45.9880   96.0470 C   0  0  0  0  0
   60.6890   45.2700   96.6100 C   0  0  0  0  0
   60.7330   45.3890   97.6000 N   0  0  0  0  0
   61.0420   45.8840   95.0180 C   0  0  0  0  0
   61.4300   46.6000   94.4590 C   0  0  0  0  0
   61.8650   47.4430   94.8810 C   0  0  0  0  0
   61.9020   47.5480   95.8510 C   0  0  0  0  0
   61.9730   47.7570   97.8540 C   0  0  0  0  0
   62.9860   47.7850   98.0340 C   0  0  0  0  0
   63.3930   48.5730   98.4290 C   0  0  0  0  0
   62.8080   49.3740   98.6630 C   0  0  0  0  0
   61.8340   49.3480   98.4900 C   0  0  0  0  0
   61.4100   48.5250   98.0780 C   0  0  0  0  0
   63.2060   50.1880   99.0660 O   0  0  0  0  0
   63.5130   50.9080   98.4900 C   0  0  0  0  0
   64.0800   51.6350   98.8690 C   0  0  0  0  0
   63.7090   52.5510   98.9830 N   0  0  0  0  0
   62.7750   52.7400   98.7190 C   0  0  0  0  0
   64.2680   53.2680   99.3570 C   0  0  0  0  0
   62.3790   53.6930   98.8340 C   0  0  0  0  0
   62.9310   54.4020   99.2040 C   0  0  0  0  0
   63.8820   54.1880   99.4670 C   0  0  0  0  0
   65.0280   51.4240   99.1320 O   0  0  0  0  0
   60.2800   44.4780   96.2140 N   0  0  0  0  0
   59.2650   44.3640   96.2710 C   0  0  0  0  0
   58.8210   43.5310   95.9590 C   0  0  0  0  0
   58.7030   42.7700   96.5710 C   0  0  0  0  0
   58.2580   41.9330   96.2590 C   0  0  0  0  0
   57.9380   41.8820   95.3220 C   0  0  0  0  0
   58.0600   42.6580   94.7030 C   0  0  0  0  0
   58.5010   43.4660   95.0410 C   0  0  0  0  0
   60.5830   44.9950   94.5570 H   0  0  0  0  0
   61.4000   46.5020   93.3620 H   0  0  0  0  0
   62.2880   48.2240   94.2300 H   0  0  0  0  0
   62.3640   48.4410   96.3010 H   0  0  0  0  0
   63.6120   46.9160   97.7770 H   0  0  0  0  0
   64.4770   48.6010   98.6220 H   0  0  0  0  0
   61.2080   50.2170   98.7460 H   0  0  0  0  0
   60.3260   48.4950   97.8840 H   0  0  0  0  0
   64.0590   50.4510   97.6000 H   0  0  0  0  0
   62.5450   51.4540   98.2360 H   0  0  0  0  0
   62.1510   51.9350   98.3000 H   0  0  0  0  0
   65.3090   53.0630   99.6530 H   0  0  0  0  0
   61.3380   53.8990   98.5380 H   0  0  0  0  0
   62.5270   55.4190   99.3340 H   0  0  0  0  0
   64.5140   54.9870   99.8870 H   0  0  0  0  0
   58.6520   45.1800   96.6860 H   0  0  0  0  0
   59.0650   42.8420   97.6090 H   0  0  0  0  0
   58.1250   41.0810   96.9440 H   0  0  0  0  0
   57.4450   40.9650   94.9610 H   0  0  0  0  0
   57.7060   42.6060   93.6610 H   0  0  0  0  0
   58.6380   44.3240   94.3640 H   0  0  0  0  0
  1  2  2  0  0  0
  1  6  1  0  0  0
  2  3  1  0  0  0
  2 11  1  0  0  0
  3 10  2  0  0  0
  3  4  1  0  0  0
  4  7  2  0  0  0
  4  5  1  0  0  0
  5 27  1  0  0  0
  5  6  2  0  0  0
  7  8  1  0  0  0
  7 35  1  0  0  0
  8  9  2  0  0  0
  8 36  1  0  0  0
  9 10  1  0  0  0
  9 37  1  0  0  0
 10 38  1  0  0  0
 11 12  2  0  0  0
 11 16  1  0  0  0
 12 13  1  0  0  0
 12 39  1  0  0  0
 13 14  2  0  0  0
 13 40  1  0  0  0
 14 15  1  0  0  0
 14 17  1  0  0  0
 15 16  2  0  0  0
 15 41  1  0  0  0
 16 42  1  0  0  0
 17 18  1  0  0  0
 18 19  1  0  0  0
 18 43  1  0  0  0
 18 44  1  0  0  0
 19 20  1  0  0  0
 19 26  2  0  0  0
 20 21  2  0  0  0
 20 22  1  0  0  0
 21 23  1  0  0  0
 21 45  1  0  0  0
 22 25  2  0  0  0
 22 46  1  0  0  0
 23 24  2  0  0  0
 23 47  1  0  0  0
 24 25  1  0  0  0
 24 48  1  0  0  0
 25 49  1  0  0  0
 27 28  2  0  0  0
 28 29  1  0  0  0
 28 50  1  0  0  0
 29 34  2  0  0  0
 29 30  1  0  0  0
 30 31  2  0  0  0
 30 51  1  0  0  0
 31 32  1  0  0  0
 31 52  1  0  0  0
 32 33  2  0  0  0
 32 53  1  0  0  0
 33 34  1  0  0  0
 33 54  1  0  0  0
 34 55  1  0  0  0
M  CHG  1  26  -1
M  END
>  <COMPND>
    ligand_BC.pdb 

>  <AUTHOR>
    GENERATED BY OPEN BABEL 2.2.1

>  <MASTER>
        0    0    0    0    0    0    0    0   55    0   55    0

$$$$
PMC1IJY_out_4.pdb_24329_ChemDiv_000A-0.pdb
 OpenBabel06131016443D

 56 60  0  0  0  0  0  0  0  0999 V2000
   61.7040   47.8370   97.0710 C   0  0  0  0  0
   62.0970   47.6340   96.1600 C   0  0  0  0  0
   61.9020   46.6870   95.9590 C   0  0  0  0  0
   61.4050   46.3010   96.7120 C   0  0  0  0  0
   61.2700   47.0150   97.4250 N   0  0  0  0  0
   61.1090   45.3460   96.7100 C   0  0  0  0  0
   61.3130   44.7440   95.9270 C   0  0  0  0  0
   61.8330   45.1420   95.1350 C   0  0  0  0  0
   62.1150   46.0940   95.1650 C   0  0  0  0  0
   62.5720   48.3600   95.6610 N   0  0  0  0  0
   62.6670   49.2700   96.0400 N   0  0  0  0  0
   62.2740   49.4740   96.9510 C   0  0  0  0  0
   61.7930   48.7650   97.4710 N   0  0  0  0  0
   62.3630   50.4010   97.3510 S   0  0  0  0  0
   63.1230   50.6220   97.9710 C   0  0  0  0  0
   62.9700   51.0550   98.8560 C   0  0  0  0  0
   63.0230   52.0380   98.9650 N   0  0  0  0  0
   62.7570   50.4750   99.6590 O   0  0  0  0  0
   62.8670   52.4510   99.8570 C   0  0  0  0  0
   61.9570   52.7480  100.1160 C   0  0  0  0  0
   61.7900   53.1590  100.9970 C   0  0  0  0  0
   62.5200   53.2900  101.6560 C   0  0  0  0  0
   63.4540   52.9850  101.3900 C   0  0  0  0  0
   63.6110   52.5760  100.5080 C   0  0  0  0  0
   62.3340   53.7020  102.5330 S   0  0  0  0  0
   62.3890   54.6180  102.1160 O   0  0  0  0  0
   62.2780   52.7970  102.9560 O   0  0  0  0  0
   62.1480   54.1180  103.4060 N   0  0  0  0  0
   60.8140   46.9410   98.2910 C   0  0  0  0  0
   61.3150   46.6480   99.0870 C   0  0  0  0  0
   60.8940   46.7050  100.0160 C   0  0  0  0  0
   60.9780   47.4960  100.5730 C   0  0  0  0  0
   60.5670   47.5420  101.4730 C   0  0  0  0  0
   60.0550   46.7930  101.8430 C   0  0  0  0  0
   59.9480   45.9530  101.2870 C   0  0  0  0  0
   60.3680   45.9080  100.3720 C   0  0  0  0  0
   60.5530   44.9470   97.5730 H   0  0  0  0  0
   60.9880   43.6910   95.9210 H   0  0  0  0  0
   62.0760   44.5180   94.2600 H   0  0  0  0  0
   62.6730   46.5160   94.3140 H   0  0  0  0  0
   63.8790   51.2510   97.3950 H   0  0  0  0  0
   63.4580   49.5800   98.2900 H   0  0  0  0  0
   63.2510   52.6640   98.1120 H   0  0  0  0  0
   61.1210   52.6170   99.4100 H   0  0  0  0  0
   60.7690   53.4800  101.2550 H   0  0  0  0  0
   64.2930   53.1130  102.0920 H   0  0  0  0  0
   64.6280   52.2510  100.2360 H   0  0  0  0  0
   62.1360   55.2320  103.2940 H   0  0  0  0  0
   62.9230   53.8120  104.1540 H   0  0  0  0  0
   59.7430   47.1850   98.3730 H   0  0  0  0  0
   62.3380   46.2560   98.9740 H   0  0  0  0  0
   61.5440   48.3620  100.1950 H   0  0  0  0  0
   60.6890   48.4580  102.0730 H   0  0  0  0  0
   59.6040   46.8630  102.8450 H   0  0  0  0  0
   59.3780   45.0960  101.6790 H   0  0  0  0  0
   60.2590   45.0000   99.7580 H   0  0  0  0  0
  1  2  2  0  0  0
  1  5  1  0  0  0
  1 13  1  0  0  0
  2 10  1  0  0  0
  2  3  1  0  0  0
  3  9  2  0  0  0
  3  4  1  0  0  0
  4  6  2  0  0  0
  4  5  1  0  0  0
  5 29  1  0  0  0
  6  7  1  0  0  0
  6 37  1  0  0  0
  7  8  2  0  0  0
  7 38  1  0  0  0
  8  9  1  0  0  0
  8 39  1  0  0  0
  9 40  1  0  0  0
 10 11  2  0  0  0
 11 12  1  0  0  0
 12 14  1  0  0  0
 12 13  2  0  0  0
 14 15  1  0  0  0
 15 16  1  0  0  0
 15 41  1  0  0  0
 15 42  1  0  0  0
 16 17  1  0  0  0
 16 18  2  0  0  0
 17 19  1  0  0  0
 17 43  1  0  0  0
 19 20  2  0  0  0
 19 24  1  0  0  0
 20 21  1  0  0  0
 20 44  1  0  0  0
 21 22  2  0  0  0
 21 45  1  0  0  0
 22 23  1  0  0  0
 22 25  1  0  0  0
 23 24  2  0  0  0
 23 46  1  0  0  0
 24 47  1  0  0  0
 25 26  2  0  0  0
 25 27  2  0  0  0
 25 28  1  0  0  0
 28 48  1  0  0  0
 28 49  1  0  0  0
 29 30  2  0  0  0
 29 50  1  0  0  0
 30 31  1  0  0  0
 30 51  1  0  0  0
 31 36  2  0  0  0
 31 32  1  0  0  0
 32 33  2  0  0  0
 32 52  1  0  0  0
 33 34  1  0  0  0
 33 53  1  0  0  0
 34 35  2  0  0  0
 34 54  1  0  0  0
 35 36  1  0  0  0
 35 55  1  0  0  0
 36 56  1  0  0  0
M  CHG  3  18  -1  26  -1  27  -1
M  END
>  <COMPND>
    ligand_BC.pdb 

>  <AUTHOR>
    GENERATED BY OPEN BABEL 2.2.1

>  <MASTER>
        0    0    0    0    0    0    0    0   56    0   56    0

$$$$
PMC1IJY_out_4.pdb_24199_ChemDiv_5498-2.pdb
 OpenBabel06131016443D

 56 59  0  0  0  0  0  0  0  0999 V2000
   62.2260   46.4360   97.6800 N   0  0  0  0  0
   62.5590   46.4610   96.7020 N   0  0  0  0  0
   62.0190   46.0020   96.0000 C   0  0  0  0  0
   61.1800   45.5270   96.2080 C   0  0  0  0  0
   60.8460   45.5010   97.1860 C   0  0  0  0  0
   61.3760   45.9540   97.8890 C   0  0  0  0  0
   61.0470   45.9290   98.8550 O   0  0  0  0  0
   60.0100   45.0280   97.4000 C   0  0  0  0  0
   59.4640   44.5650   96.6910 C   0  0  0  0  0
   59.7970   44.5900   95.7130 C   0  0  0  0  0
   60.6530   45.0770   95.5110 C   0  0  0  0  0
   62.7470   46.8870   98.4060 C   0  0  0  0  0
   62.7960   47.8810   98.4510 C   0  0  0  0  0
   63.5960   48.3380   98.0870 N   0  0  0  0  0
   62.0470   48.3790   98.8550 O   0  0  0  0  0
   63.6460   49.3640   98.1330 C   0  0  0  0  0
   63.3150   49.9290   97.3720 C   0  0  0  0  0
   63.3640   50.9190   97.4170 C   0  0  0  0  0
   63.7450   51.3770   98.2230 C   0  0  0  0  0
   64.0780   50.8130   98.9880 C   0  0  0  0  0
   64.0290   49.8230   98.9430 C   0  0  0  0  0
   63.7930   52.3630   98.2670 C   0  0  0  0  0
   63.0080   52.9080   98.5970 N   0  0  0  0  0
   64.6250   52.8560   97.9860 O   0  0  0  0  0
   62.1770   52.4150   98.8780 C   0  0  0  0  0
   62.0150   52.2750   99.8730 C   0  0  0  0  0
   63.0570   53.9020   98.6410 C   0  0  0  0  0
   62.7250   54.4620   97.8810 C   0  0  0  0  0
   62.3370   46.0270   95.0660 C   0  0  0  0  0
   62.9390   45.3200   94.7320 C   0  0  0  0  0
   63.2570   45.3450   93.7980 C   0  0  0  0  0
   62.9770   46.0750   93.1880 C   0  0  0  0  0
   62.3770   46.7710   93.5360 C   0  0  0  0  0
   62.0590   46.7470   94.4700 C   0  0  0  0  0
   59.6610   45.0040   98.4450 H   0  0  0  0  0
   58.5300   44.0420   96.9530 H   0  0  0  0  0
   59.2270   44.0950   94.9110 H   0  0  0  0  0
   61.0130   45.1070   94.4710 H   0  0  0  0  0
   63.8100   46.4760   98.3930 H   0  0  0  0  0
   62.1300   46.6380   99.3310 H   0  0  0  0  0
   64.4040   47.7670   97.6480 H   0  0  0  0  0
   62.8930   49.4450   96.4770 H   0  0  0  0  0
   62.9960   51.5210   96.5720 H   0  0  0  0  0
   64.5000   51.2990   99.8820 H   0  0  0  0  0
   64.3970   49.2200   99.7880 H   0  0  0  0  0
   61.4630   52.0370   98.1300 H   0  0  0  0  0
   62.7400   52.6590  100.6080 H   0  0  0  0  0
   61.1150   51.7390  100.2140 H   0  0  0  0  0
   63.4800   54.3890   99.5340 H   0  0  0  0  0
   62.3010   53.9800   96.9860 H   0  0  0  0  0
   62.7840   55.5600   97.9400 H   0  0  0  0  0
   63.2560   44.5040   95.4010 H   0  0  0  0  0
   63.9300   44.5540   93.4300 H   0  0  0  0  0
   63.3300   46.1050   92.1450 H   0  0  0  0  0
   62.0550   47.5900   92.8740 H   0  0  0  0  0
   61.3870   47.5370   94.8410 H   0  0  0  0  0
  1  2  1  0  0  0
  1  6  1  0  0  0
  1 12  1  0  0  0
  2  3  2  0  0  0
  3 29  1  0  0  0
  3  4  1  0  0  0
  4 11  2  0  0  0
  4  5  1  0  0  0
  5  8  2  0  0  0
  5  6  1  0  0  0
  6  7  2  0  0  0
  8  9  1  0  0  0
  8 35  1  0  0  0
  9 10  2  0  0  0
  9 36  1  0  0  0
 10 11  1  0  0  0
 10 37  1  0  0  0
 11 38  1  0  0  0
 12 13  1  0  0  0
 12 39  1  0  0  0
 12 40  1  0  0  0
 13 14  1  0  0  0
 13 15  2  0  0  0
 14 16  1  0  0  0
 14 41  1  0  0  0
 16 17  2  0  0  0
 16 21  1  0  0  0
 17 18  1  0  0  0
 17 42  1  0  0  0
 18 19  2  0  0  0
 18 43  1  0  0  0
 19 22  1  0  0  0
 19 20  1  0  0  0
 20 21  2  0  0  0
 20 44  1  0  0  0
 21 45  1  0  0  0
 22 24  2  0  0  0
 22 23  1  0  0  0
 23 27  1  0  0  0
 23 25  1  0  0  0
 25 26  2  0  0  0
 25 46  1  0  0  0
 26 47  1  0  0  0
 26 48  1  0  0  0
 27 28  2  0  0  0
 27 49  1  0  0  0
 28 50  1  0  0  0
 28 51  1  0  0  0
 29 34  2  0  0  0
 29 30  1  0  0  0
 30 31  2  0  0  0
 30 52  1  0  0  0
 31 32  1  0  0  0
 31 53  1  0  0  0
 32 33  2  0  0  0
 32 54  1  0  0  0
 33 34  1  0  0  0
 33 55  1  0  0  0
 34 56  1  0  0  0
M  CHG  3   7  -1  15  -1  24  -1
M  END
>  <COMPND>
    ligand_BC.pdb 

>  <AUTHOR>
    GENERATED BY OPEN BABEL 2.2.1

>  <MASTER>
        0    0    0    0    0    0    0    0   56    0   56    0

$$$$
PMC1IJY_out_4.pdb_24923_ChemDiv_D038-0.pdb
 OpenBabel06131016443D

 55 59  0  0  0  0  0  0  0  0999 V2000
   62.2660   47.1620   98.0680 C   0  0  0  0  0
   63.0750   47.0770   98.6630 C   0  0  0  0  0
   63.7510   47.8080   98.6990 C   0  0  0  0  0
   63.6310   48.6280   98.1470 C   0  0  0  0  0
   62.8280   48.7250   97.5490 C   0  0  0  0  0
   62.1490   47.9920   97.5120 C   0  0  0  0  0
   64.3060   49.3580   98.1830 N   0  0  0  0  0
   64.2260   50.0930   98.8640 C   0  0  0  0  0
   64.9050   50.8260   98.9010 O   0  0  0  0  0
   65.0720   49.3630   97.5390 H   0  0  0  0  0
   63.4540   50.0810   99.5070 C   0  0  0  0  0
   62.8290   50.8740   99.5390 C   0  0  0  0  0
   62.8460   51.5970  100.2210 C   0  0  0  0  0
   62.1170   52.2530  100.0120 C   0  0  0  0  0
   63.4290   51.7580  101.0190 C   0  0  0  0  0
   61.6440   51.9250   99.1830 O   0  0  0  0  0
   61.9690   53.0490  100.5770 C   0  0  0  0  0
   62.0870   51.0740   98.8960 C   0  0  0  0  0
   62.5460   53.2110  101.3680 C   0  0  0  0  0
   63.2820   52.5640  101.5950 C   0  0  0  0  0
   63.8660   52.7220  102.3910 C   0  0  0  0  0
   61.5840   46.4310   98.0280 S   0  0  0  0  0
   62.0950   45.9940   97.2950 O   0  0  0  0  0
   61.0740   46.8740   98.7650 O   0  0  0  0  0
   60.9030   45.7060   97.9920 N   0  0  0  0  0
   60.5250   45.4300   97.1090 C   0  0  0  0  0
   60.9240   45.7960   96.2680 N   0  0  0  0  0
   60.5520   45.5250   95.3800 C   0  0  0  0  0
   59.7800   44.8870   95.3350 N   0  0  0  0  0
   60.9580   45.8960   94.5400 C   0  0  0  0  0
   59.3880   44.5260   96.1770 C   0  0  0  0  0
   59.7560   44.7950   97.0580 C   0  0  0  0  0
   58.6200   43.8910   96.1400 C   0  0  0  0  0
   63.6110   46.1040   98.4050 H   0  0  0  0  0
   62.6140   47.1240   99.7050 H   0  0  0  0  0
   64.6330   47.7090   99.3510 H   0  0  0  0  0
   62.6980   49.6330   96.9390 H   0  0  0  0  0
   61.2680   48.0940   96.8590 H   0  0  0  0  0
   63.8580   49.8940  100.5560 H   0  0  0  0  0
   62.7920   49.2490   99.0970 H   0  0  0  0  0
   64.2340   51.0470  101.2640 H   0  0  0  0  0
   61.1630   53.7580  100.3290 H   0  0  0  0  0
   61.8070   50.4630   98.0230 H   0  0  0  0  0
   62.3800   54.1000  101.9980 H   0  0  0  0  0
   64.6320   51.8820  102.4740 H   0  0  0  0  0
   63.2350   52.7760  103.3390 H   0  0  0  0  0
   64.4110   53.7150  102.2640 H   0  0  0  0  0
   60.5740   45.2200   98.9020 H   0  0  0  0  0
   60.4070   45.4780   93.6340 H   0  0  0  0  0
   62.0650   45.6300   94.4860 H   0  0  0  0  0
   60.8600   47.0320   94.5460 H   0  0  0  0  0
   59.3150   44.3920   97.9830 H   0  0  0  0  0
   58.3360   43.7000   95.0530 H   0  0  0  0  0
   57.7300   44.3150   96.7120 H   0  0  0  0  0
   58.9250   42.9060   96.6260 H   0  0  0  0  0
  1  6  1  0  0  0
  1 22  1  0  0  0
  1  2  1  0  0  0
  1 24  1  0  0  0
  2  3  1  0  0  0
  2 34  1  0  0  0
  2 35  1  0  0  0
  3  4  2  0  0  0
  3 36  1  0  0  0
  4  5  1  0  0  0
  4  7  1  0  0  0
  5  6  2  0  0  0
  5 37  1  0  0  0
  6 38  1  0  0  0
  7 10  1  0  0  0
  7  8  1  0  0  0
  8  9  2  0  0  0
  8 11  1  0  0  0
 11 12  1  0  0  0
 11 39  1  0  0  0
 11 40  1  0  0  0
 12 18  2  0  0  0
 12 13  1  0  0  0
 13 14  2  0  0  0
 13 15  1  0  0  0
 14 16  1  0  0  0
 14 17  1  0  0  0
 15 20  2  0  0  0
 15 41  1  0  0  0
 16 18  1  0  0  0
 17 19  2  0  0  0
 17 42  1  0  0  0
 18 43  1  0  0  0
 19 20  1  0  0  0
 19 44  1  0  0  0
 20 21  1  0  0  0
 21 45  1  0  0  0
 21 46  1  0  0  0
 21 47  1  0  0  0
 22 23  2  0  0  0
 22 25  1  0  0  0
 22 24  1  0  0  0
 25 26  1  0  0  0
 25 48  1  0  0  0
 26 27  2  0  0  0
 26 32  1  0  0  0
 27 28  1  0  0  0
 28 30  1  0  0  0
 28 29  2  0  0  0
 29 31  1  0  0  0
 30 49  1  0  0  0
 30 50  1  0  0  0
 30 51  1  0  0  0
 31 33  1  0  0  0
 31 32  2  0  0  0
 32 52  1  0  0  0
 33 53  1  0  0  0
 33 54  1  0  0  0
 33 55  1  0  0  0
M  CHG  2   9  -1  23  -1
M  END
>  <COMPND>
    ligand_BC.pdb 

>  <AUTHOR>
    GENERATED BY OPEN BABEL 2.2.1

>  <MASTER>
        0    0    0    0    0    0    0    0   55    0   55    0

$$$$
PMC1IJY_out_4.pdb_24289_ChemDiv_8015-7.pdb
 OpenBabel06131016443D

 52 58  0  0  0  0  0  0  0  0999 V2000
   61.0420   45.3830   96.2280 C   0  0  0  0  0
   60.3100   45.0310   96.7650 N   0  0  0  0  0
   59.6640   44.4630   96.3810 C   0  0  0  0  0
   59.7220   44.2200   95.4390 C   0  0  0  0  0
   61.0990   45.1390   95.2850 C   0  0  0  0  0
   61.8170   45.4780   94.7400 C   0  0  0  0  0
   62.4930   46.0690   95.1300 C   0  0  0  0  0
   62.4360   46.3130   96.0720 C   0  0  0  0  0
   61.7180   45.9710   96.6080 C   0  0  0  0  0
   61.6610   46.2140   97.5470 N   0  0  0  0  0
   62.3310   46.8060   97.9520 C   0  0  0  0  0
   62.2740   47.0480   98.8900 O   0  0  0  0  0
   60.9280   45.8640   98.0920 C   0  0  0  0  0
   60.2530   45.2740   97.7040 C   0  0  0  0  0
   59.0110   43.5920   95.0110 C   0  0  0  0  0
   58.2520   43.2360   95.5910 C   0  0  0  0  0
   58.1940   43.4850   96.5570 C   0  0  0  0  0
   58.8910   44.1020   96.9830 C   0  0  0  0  0
   57.5650   42.6270   95.1720 C   0  0  0  0  0
   63.0610   47.1480   97.3900 C   0  0  0  0  0
   63.3690   48.0680   97.5280 N   0  0  0  0  0
   62.9160   48.8110   97.0980 C   0  0  0  0  0
   63.2340   49.7260   97.2450 C   0  0  0  0  0
   64.0050   49.8920   97.8210 N   0  0  0  0  0
   64.4580   49.1490   98.2500 C   0  0  0  0  0
   64.1480   48.2270   98.1110 C   0  0  0  0  0
   64.3230   50.8070   97.9670 C   0  0  0  0  0
   63.9720   51.3340   98.7060 C   0  0  0  0  0
   64.2910   52.2490   98.8520 C   0  0  0  0  0
   63.9400   52.7830   99.5950 Cl  0  0  0  0  0
   64.9560   52.6270   98.2610 C   0  0  0  0  0
   65.3070   52.0930   97.5180 C   0  0  0  0  0
   64.9880   51.1850   97.3760 C   0  0  0  0  0
   61.8780   45.2000   93.6760 H   0  0  0  0  0
   63.3150   46.4570   94.5070 H   0  0  0  0  0
   63.1920   46.9780   96.5180 H   0  0  0  0  0
   60.8630   46.1390   99.1570 H   0  0  0  0  0
   59.0780   43.3160   93.9470 H   0  0  0  0  0
   57.3690   43.0900   97.1710 H   0  0  0  0  0
   57.8150   42.4720   94.0710 H   0  0  0  0  0
   56.5220   43.0740   95.2810 H   0  0  0  0  0
   57.5820   41.6200   95.7050 H   0  0  0  0  0
   63.9540   46.4460   97.4850 H   0  0  0  0  0
   62.5970   47.1800   96.3490 H   0  0  0  0  0
   62.0470   48.6260   96.4470 H   0  0  0  0  0
   62.7200   50.5700   96.7590 H   0  0  0  0  0
   65.3270   49.3410   98.8990 H   0  0  0  0  0
   64.6630   47.3840   98.5990 H   0  0  0  0  0
   63.2150   50.9010   99.3790 H   0  0  0  0  0
   65.3180   53.6550   98.4220 H   0  0  0  0  0
   66.0640   52.5220   96.8420 H   0  0  0  0  0
   65.3850   50.5870   96.5410 H   0  0  0  0  0
  1  5  2  0  0  0
  1  9  1  0  0  0
  1  2  1  0  0  0
  2  3  1  0  0  0
  2 14  1  0  0  0
  3  4  2  0  0  0
  3 18  1  0  0  0
  4 15  1  0  0  0
  4  5  1  0  0  0
  5  6  1  0  0  0
  6  7  2  0  0  0
  6 34  1  0  0  0
  7  8  1  0  0  0
  7 35  1  0  0  0
  8  9  2  0  0  0
  8 36  1  0  0  0
  9 10  1  0  0  0
 10 11  1  0  0  0
 10 13  1  0  0  0
 11 20  1  0  0  0
 11 12  2  0  0  0
 13 14  2  0  0  0
 13 37  1  0  0  0
 14 18  1  0  0  0
 15 16  2  0  0  0
 15 38  1  0  0  0
 16 19  1  0  0  0
 16 17  1  0  0  0
 17 18  2  0  0  0
 17 39  1  0  0  0
 19 40  1  0  0  0
 19 41  1  0  0  0
 19 42  1  0  0  0
 20 21  1  0  0  0
 20 43  1  0  0  0
 20 44  1  0  0  0
 21 22  2  0  0  0
 21 26  1  0  0  0
 22 23  1  0  0  0
 22 45  1  0  0  0
 23 24  2  0  0  0
 23 46  1  0  0  0
 24 27  1  0  0  0
 24 25  1  0  0  0
 25 26  2  0  0  0
 25 47  1  0  0  0
 26 48  1  0  0  0
 27 33  2  0  0  0
 27 28  1  0  0  0
 28 29  2  0  0  0
 28 49  1  0  0  0
 29 31  1  0  0  0
 29 30  1  0  0  0
 31 32  2  0  0  0
 31 50  1  0  0  0
 32 33  1  0  0  0
 32 51  1  0  0  0
 33 52  1  0  0  0
M  CHG  1  12  -1
M  END
>  <COMPND>
    ligand_BC.pdb 

>  <AUTHOR>
    GENERATED BY OPEN BABEL 2.2.1

>  <MASTER>
        0    0    0    0    0    0    0    0   52    0   52    0

$$$$
PMC1IJY_out_4.pdb_24364_ChemDiv_0075-0.pdb
 OpenBabel06131016443D

 44 49  0  0  0  0  0  0  0  0999 V2000
   62.7810   48.7530   97.1550 C   0  0  0  0  0
   63.1300   48.5240   98.0830 C   0  0  0  0  0
   64.0150   48.8910   98.3560 C   0  0  0  0  0
   64.5290   49.4710   97.7150 C   0  0  0  0  0
   64.1900   49.6910   96.8180 C   0  0  0  0  0
   63.3030   49.3240   96.5410 C   0  0  0  0  0
   65.4240   49.8290   98.0190 Cl  0  0  0  0  0
   61.8710   48.3780   96.8680 N   0  0  0  0  0
   61.8090   47.4240   96.4900 S   0  0  0  0  0
   62.3510   47.0690   97.2690 O   0  0  0  0  0
   61.2640   47.7710   95.7020 O   0  0  0  0  0
   61.7350   46.5000   96.1020 C   0  0  0  0  0
   62.1550   46.2280   95.2360 C   0  0  0  0  0
   62.7150   46.7530   94.5740 N   0  0  0  0  0
   62.0630   45.3160   94.8850 C   0  0  0  0  0
   62.9600   46.1600   93.8270 S   0  0  0  0  0
   62.5700   45.2760   94.0000 N   0  0  0  0  0
   61.5460   44.6350   95.3860 C   0  0  0  0  0
   61.1230   44.8980   96.2520 C   0  0  0  0  0
   61.2160   45.8300   96.6140 C   0  0  0  0  0
   62.6220   47.9410   98.7390 C   0  0  0  0  0
   61.9190   48.3450   99.3450 N   0  0  0  0  0
   62.8160   46.9590   98.7910 O   0  0  0  0  0
   61.4360   47.7740   99.9740 C   0  0  0  0  0
   60.4950   47.5120   99.8040 C   0  0  0  0  0
   59.8560   47.7310   99.0390 N   0  0  0  0  0
   60.0000   46.9350  100.4350 C   0  0  0  0  0
   59.0180   47.2950   99.2200 S   0  0  0  0  0
   59.0720   46.7920  100.0780 N   0  0  0  0  0
   60.4450   46.6000  101.2670 C   0  0  0  0  0
   61.3860   46.8590  101.4410 C   0  0  0  0  0
   61.8700   47.4330  100.8080 C   0  0  0  0  0
   64.4270   48.6630   99.3520 H   0  0  0  0  0
   64.7750   50.3270   96.1350 H   0  0  0  0  0
   62.9040   49.5580   95.5420 H   0  0  0  0  0
   60.9790   48.9840   96.9630 H   0  0  0  0  0
   62.2140   43.7290   95.5660 H   0  0  0  0  0
   60.6530   44.4320   94.7080 H   0  0  0  0  0
   60.5440   44.1520   96.8200 H   0  0  0  0  0
   60.7450   46.1040   97.5710 H   0  0  0  0  0
   61.7030   49.4050   99.2970 H   0  0  0  0  0
   59.9000   45.9560  101.9750 H   0  0  0  0  0
   61.8920   46.5000  102.3510 H   0  0  0  0  0
   62.9150   47.7080  101.0220 H   0  0  0  0  0
  1  6  2  0  0  0
  1  8  1  0  0  0
  1  2  1  0  0  0
  2  3  2  0  0  0
  2 21  1  0  0  0
  3  4  1  0  0  0
  3 33  1  0  0  0
  4  5  2  0  0  0
  4  7  1  0  0  0
  5  6  1  0  0  0
  5 34  1  0  0  0
  6 35  1  0  0  0
  8  9  1  0  0  0
  8 36  1  0  0  0
  9 11  1  0  0  0
  9 12  1  0  0  0
  9 10  2  0  0  0
 11 12  1  0  0  0
 12 13  1  0  0  0
 12 20  1  0  0  0
 13 14  2  0  0  0
 13 15  1  0  0  0
 14 16  1  0  0  0
 15 17  2  0  0  0
 15 18  1  0  0  0
 16 17  1  0  0  0
 18 19  1  0  0  0
 18 37  1  0  0  0
 18 38  1  0  0  0
 19 20  2  0  0  0
 19 39  1  0  0  0
 20 40  1  0  0  0
 21 23  2  0  0  0
 21 22  1  0  0  0
 22 24  1  0  0  0
 22 41  1  0  0  0
 24 25  1  0  0  0
 24 32  2  0  0  0
 25 26  2  0  0  0
 25 27  1  0  0  0
 26 28  1  0  0  0
 27 29  2  0  0  0
 27 30  1  0  0  0
 28 29  1  0  0  0
 30 31  2  0  0  0
 30 42  1  0  0  0
 31 32  1  0  0  0
 31 43  1  0  0  0
 32 44  1  0  0  0
M  CHG  2  10  -1  23  -1
M  END
>  <COMPND>
    ligand_BC.pdb 

>  <AUTHOR>
    GENERATED BY OPEN BABEL 2.2.1

>  <MASTER>
        0    0    0    0    0    0    0    0   44    0   44    0

$$$$
PMC1IJY_out_4.pdb_24697_ChemDiv_3359-0.pdb
 OpenBabel06131016443D

 55 61  0  0  0  0  0  0  0  0999 V2000
   62.0050   48.4250   97.8270 N   0  0  0  0  0
   61.4000   48.9910   98.1660 C   0  0  0  0  0
   61.8350   49.6560   98.5630 C   0  0  0  0  0
   62.6970   49.5050   98.4720 C   0  0  0  0  0
   62.7930   48.7470   98.0190 C   0  0  0  0  0
   63.5680   48.3630   97.7890 O   0  0  0  0  0
   63.6870   52.1100  100.0270 C   0  0  0  0  0
   63.4130   52.8310  100.4570 C   0  0  0  0  0
   62.5560   52.9810  100.5480 C   0  0  0  0  0
   61.9720   52.4080  100.2060 C   0  0  0  0  0
   62.2490   51.6950   99.7800 C   0  0  0  0  0
   63.1060   51.5450   99.6890 C   0  0  0  0  0
   63.3860   50.8300   99.2630 C   0  0  0  0  0
   62.8140   50.2660   98.9260 C   0  0  0  0  0
   61.9550   50.4100   99.0130 C   0  0  0  0  0
   61.6650   51.1210   99.4380 C   0  0  0  0  0
   62.2760   53.6840  100.9680 C   0  0  0  0  0
   62.8460   54.2550  101.3090 C   0  0  0  0  0
   63.7030   54.1200  101.2270 C   0  0  0  0  0
   63.9940   53.3970  100.7950 C   0  0  0  0  0
   60.5110   48.8990   98.1120 O   0  0  0  0  0
   61.8310   47.6930   97.3900 C   0  0  0  0  0
   61.6550   47.7090   96.5120 C   0  0  0  0  0
   61.3820   46.9990   96.0970 N   0  0  0  0  0
   61.2100   47.0230   95.2280 C   0  0  0  0  0
   61.2700   46.2350   96.5380 C   0  0  0  0  0
   60.9370   46.3140   94.8130 C   0  0  0  0  0
   60.8280   45.5580   95.2550 O   0  0  0  0  0
   60.9970   45.5250   96.1230 C   0  0  0  0  0
   61.8340   48.5580   96.2900 O   0  0  0  0  0
   61.8200   46.9030   97.7960 C   0  0  0  0  0
   61.1440   46.6580   98.3090 C   0  0  0  0  0
   60.9380   45.8020   98.4040 S   0  0  0  0  0
   60.2520   45.5580   98.9050 C   0  0  0  0  0
   63.7980   49.2530   98.3210 H   0  0  0  0  0
   64.7660   51.9180   99.9140 H   0  0  0  0  0
   60.8920   52.5940  100.3180 H   0  0  0  0  0
   64.0950   51.1610   98.4340 H   0  0  0  0  0
   63.8580   50.2200  100.1030 H   0  0  0  0  0
   60.5830   51.3000   99.5460 H   0  0  0  0  0
   61.1940   53.8620  101.0750 H   0  0  0  0  0
   62.4790   55.1460  101.8430 H   0  0  0  0  0
   64.4210   54.8380  101.6540 H   0  0  0  0  0
   65.0750   53.2140  100.6850 H   0  0  0  0  0
   62.1000   48.6020   98.0230 H   0  0  0  0  0
   61.3450   47.9640   94.6710 H   0  0  0  0  0
   61.4800   46.1910   97.6180 H   0  0  0  0  0
   60.7260   46.3560   93.7330 H   0  0  0  0  0
   60.8600   44.5820   96.6760 H   0  0  0  0  0
   62.7810   46.8010   98.4010 H   0  0  0  0  0
   61.6980   46.1960   96.9100 H   0  0  0  0  0
   60.5520   47.4240   98.8350 H   0  0  0  0  0
   60.1590   44.4220   98.8950 H   0  0  0  0  0
   59.2920   46.0360   98.5190 H   0  0  0  0  0
   60.4250   45.9100   99.9750 H   0  0  0  0  0
  1 22  1  0  0  0
  1  5  1  0  0  0
  1  2  1  0  0  0
  2 21  2  0  0  0
  2  3  1  0  0  0
  3  4  1  0  0  0
  3 14  1  0  0  0
  3 15  1  0  0  0
  4  5  1  0  0  0
  4 14  1  0  0  0
  4 35  1  0  0  0
  5  6  2  0  0  0
  7 12  2  0  0  0
  7  8  1  0  0  0
  7 36  1  0  0  0
  8  9  2  0  0  0
  8 20  1  0  0  0
  9 10  1  0  0  0
  9 17  1  0  0  0
 10 11  2  0  0  0
 10 37  1  0  0  0
 11 16  1  0  0  0
 11 12  1  0  0  0
 12 13  1  0  0  0
 13 14  1  0  0  0
 13 38  1  0  0  0
 13 39  1  0  0  0
 14 15  1  0  0  0
 15 16  2  0  0  0
 16 40  1  0  0  0
 17 18  2  0  0  0
 17 41  1  0  0  0
 18 19  1  0  0  0
 18 42  1  0  0  0
 19 20  2  0  0  0
 19 43  1  0  0  0
 20 44  1  0  0  0
 22 23  1  0  0  0
 22 31  1  0  0  0
 22 45  1  0  0  0
 23 24  1  0  0  0
 23 30  2  0  0  0
 24 25  2  0  0  0
 24 26  1  0  0  0
 25 27  1  0  0  0
 25 46  1  0  0  0
 26 29  2  0  0  0
 26 47  1  0  0  0
 27 28  2  0  0  0
 27 48  1  0  0  0
 28 29  1  0  0  0
 29 49  1  0  0  0
 31 32  1  0  0  0
 31 50  1  0  0  0
 31 51  1  0  0  0
 32 33  2  0  0  0
 32 52  1  0  0  0
 33 34  1  0  0  0
 34 53  1  0  0  0
 34 54  1  0  0  0
 34 55  1  0  0  0
M  CHG  3   6  -1  21  -1  30  -1
M  END
>  <COMPND>
    ligand_BC.pdb 

>  <AUTHOR>
    GENERATED BY OPEN BABEL 2.2.1

>  <MASTER>
        0    0    0    0    0    0    0    0   55    0   55    0

$$$$
PMC1IJY_out_4.pdb_24733_ChemDiv_8008-4.pdb
 OpenBabel06131016443D

 52 60  0  0  0  0  0  0  0  0999 V2000
   61.5370   45.5200   96.4380 N   0  0  0  0  0
   61.6960   46.1140   95.6850 C   0  0  0  0  0
   61.9500   46.9850   96.0360 C   0  0  0  0  0
   62.2920   48.2130   95.4750 C   0  0  0  0  0
   62.5150   48.9610   96.1180 C   0  0  0  0  0
   62.3780   48.4410   96.9370 C   0  0  0  0  0
   62.1470   47.6590   96.3940 C   0  0  0  0  0
   61.9490   46.9330   97.0060 C   0  0  0  0  0
   61.6910   46.0180   97.2570 C   0  0  0  0  0
   61.6040   45.6680   98.2090 O   0  0  0  0  0
   62.1350   47.6700   95.3440 C   0  0  0  0  0
   62.2600   48.1490   94.4940 C   0  0  0  0  0
   62.1130   47.6770   93.6470 C   0  0  0  0  0
   61.8440   46.7340   93.6380 C   0  0  0  0  0
   61.7220   46.2650   94.4810 C   0  0  0  0  0
   61.8670   46.7310   95.3310 C   0  0  0  0  0
   62.5110   48.8590   97.8170 C   0  0  0  0  0
   62.7810   49.8000   97.8850 C   0  0  0  0  0
   62.9220   50.3380   97.0670 C   0  0  0  0  0
   62.7860   49.9040   96.1920 C   0  0  0  0  0
   62.5000   48.9680   94.9030 C   0  0  0  0  0
   62.7150   49.7500   94.3180 N   0  0  0  0  0
   61.6080   45.8560   94.7350 O   0  0  0  0  0
   61.2620   44.5620   96.3860 C   0  0  0  0  0
   60.2980   44.3280   96.3610 C   0  0  0  0  0
   59.8160   44.2860   95.4920 C   0  0  0  0  0
   58.8410   44.0500   95.4620 C   0  0  0  0  0
   58.3530   43.8560   96.3080 C   0  0  0  0  0
   58.8370   43.8970   97.1900 C   0  0  0  0  0
   59.8190   44.1360   97.2080 C   0  0  0  0  0
   62.0350   47.2840   96.0830 H   0  0  0  0  0
   61.9960   47.0390   98.1400 H   0  0  0  0  0
   61.3630   48.3790   94.8960 H   0  0  0  0  0
   63.0540   48.0120   94.7630 H   0  0  0  0  0
   62.2520   48.2120   92.6940 H   0  0  0  0  0
   61.6820   46.2110   92.6820 H   0  0  0  0  0
   61.4200   45.2060   94.4810 H   0  0  0  0  0
   62.3560   48.2670   98.7330 H   0  0  0  0  0
   62.9280   50.2590   98.8760 H   0  0  0  0  0
   63.2230   51.3950   97.1320 H   0  0  0  0  0
   62.0460   50.5330   95.5950 H   0  0  0  0  0
   63.8550   49.8580   95.8000 H   0  0  0  0  0
   62.6150   49.4520   93.2430 H   0  0  0  0  0
   63.7540   50.1140   94.5240 H   0  0  0  0  0
   61.8460   46.7200   94.0960 H   0  0  0  0  0
   61.7720   44.0880   95.4840 H   0  0  0  0  0
   61.5910   44.1540   97.3980 H   0  0  0  0  0
   60.3560   44.5000   94.5560 H   0  0  0  0  0
   58.3130   44.0060   94.4970 H   0  0  0  0  0
   57.2830   43.5960   96.2790 H   0  0  0  0  0
   58.3010   43.6830   98.1280 H   0  0  0  0  0
   60.3570   44.1830   98.1680 H   0  0  0  0  0
  1  2  1  0  0  0
  1 24  1  0  0  0
  1  9  1  0  0  0
  2 23  1  0  0  0
  2 16  1  0  0  0
  2  3  1  0  0  0
  3 16  1  0  0  0
  3  7  1  0  0  0
  3  8  1  0  0  0
  4 12  1  0  0  0
  4 21  1  0  0  0
  4  5  1  0  0  0
  4 31  1  0  0  0
  5 21  1  0  0  0
  5 20  1  0  0  0
  5  6  1  0  0  0
  6  7  1  0  0  0
  6 17  2  0  0  0
  7 11  1  0  0  0
  7  8  1  0  0  0
  8  9  1  0  0  0
  8 32  1  0  0  0
  9 10  2  0  0  0
 11 16  1  0  0  0
 11 33  1  0  0  0
 11 34  1  0  0  0
 12 13  2  0  0  0
 12 21  1  0  0  0
 13 14  1  0  0  0
 13 35  1  0  0  0
 14 15  2  0  0  0
 14 36  1  0  0  0
 15 16  1  0  0  0
 15 37  1  0  0  0
 17 18  1  0  0  0
 17 38  1  0  0  0
 18 19  2  0  0  0
 18 39  1  0  0  0
 19 20  1  0  0  0
 19 40  1  0  0  0
 20 41  1  0  0  0
 20 42  1  0  0  0
 21 22  1  0  0  0
 22 43  1  0  0  0
 22 44  1  0  0  0
 23 45  1  0  0  0
 24 25  1  0  0  0
 24 46  1  0  0  0
 24 47  1  0  0  0
 25 26  2  0  0  0
 25 30  1  0  0  0
 26 27  1  0  0  0
 26 48  1  0  0  0
 27 28  2  0  0  0
 27 49  1  0  0  0
 28 29  1  0  0  0
 28 50  1  0  0  0
 29 30  2  0  0  0
 29 51  1  0  0  0
 30 52  1  0  0  0
M  CHG  1  10  -1
M  END
>  <COMPND>
    ligand_BC.pdb 

>  <AUTHOR>
    GENERATED BY OPEN BABEL 2.2.1

>  <MASTER>
        0    0    0    0    0    0    0    0   52    0   52    0

$$$$
PMC1IJY_out_4.pdb_24175_ChemDiv_5498-2.pdb
 OpenBabel06131016443D

 52 56  0  0  0  0  0  0  0  0999 V2000
   61.7360   47.6860   99.5280 C   0  0  0  0  0
   62.1670   48.4870   99.9410 N   0  0  0  0  0
   62.9260   48.9950   99.4570 N   0  0  0  0  0
   63.2380   48.6930   98.5700 C   0  0  0  0  0
   62.7960   47.8930   98.1740 C   0  0  0  0  0
   62.0650   47.4030   98.6400 C   0  0  0  0  0
   61.6310   46.5790   98.1980 C   0  0  0  0  0
   61.9600   46.2960   97.3110 C   0  0  0  0  0
   62.7180   46.8040   96.8280 C   0  0  0  0  0
   63.1330   47.5850   97.2400 C   0  0  0  0  0
   63.9790   49.1900   98.0980 C   0  0  0  0  0
   63.7600   49.9660   97.4670 C   0  0  0  0  0
   64.4720   50.4440   97.0130 C   0  0  0  0  0
   65.4340   50.1660   97.1700 C   0  0  0  0  0
   65.6480   49.4180   97.7780 C   0  0  0  0  0
   64.9050   48.9200   98.2520 C   0  0  0  0  0
   66.1760   50.6420   96.7150 O   0  0  0  0  0
   66.5590   51.4360   97.1240 C   0  0  0  0  0
   67.4430   51.7620   96.8270 C   0  0  0  0  0
   67.5200   52.5930   96.2890 N   0  0  0  0  0
   68.3970   52.9160   95.9930 C   0  0  0  0  0
   66.7000   53.0960   96.0530 C   0  0  0  0  0
   68.4580   53.7540   95.4530 C   0  0  0  0  0
   67.6360   54.2830   95.2000 C   0  0  0  0  0
   66.7670   53.9630   95.4930 C   0  0  0  0  0
   68.2670   51.2370   97.0760 O   0  0  0  0  0
   61.0240   47.2090   99.9810 N   0  0  0  0  0
   60.0540   47.4920   99.8170 C   0  0  0  0  0
   59.3100   46.9940  100.2910 C   0  0  0  0  0
   59.5380   46.2120  100.9290 C   0  0  0  0  0
   60.4860   45.9710  101.0600 C   0  0  0  0  0
   61.2300   46.4690  100.5860 C   0  0  0  0  0
   60.8210   46.0280   98.7020 H   0  0  0  0  0
   61.5070   45.4170   96.8250 H   0  0  0  0  0
   63.0610   46.4610   95.8390 H   0  0  0  0  0
   63.9420   48.1290   96.7260 H   0  0  0  0  0
   62.7110   50.2600   97.3030 H   0  0  0  0  0
   64.2370   51.2790   96.3350 H   0  0  0  0  0
   66.6970   49.1250   97.9410 H   0  0  0  0  0
   65.1380   48.0850   98.9320 H   0  0  0  0  0
   66.5920   51.2810   98.2530 H   0  0  0  0  0
   65.8580   52.2610   96.7680 H   0  0  0  0  0
   69.3100   52.3580   96.2540 H   0  0  0  0  0
   65.7160   52.7320   96.3870 H   0  0  0  0  0
   69.4470   54.1100   95.1250 H   0  0  0  0  0
   67.7230   55.2050   94.6030 H   0  0  0  0  0
   65.8550   54.5220   95.2300 H   0  0  0  0  0
   59.8230   48.3260   99.1350 H   0  0  0  0  0
   58.2600   47.2840  100.1270 H   0  0  0  0  0
   58.7400   45.6600  101.4510 H   0  0  0  0  0
   60.7410   45.1410  101.7380 H   0  0  0  0  0
   62.2780   46.1750  100.7530 H   0  0  0  0  0
  1  6  2  0  0  0
  1  2  1  0  0  0
  1 27  1  0  0  0
  2  3  2  0  0  0
  3  4  1  0  0  0
  4 11  1  0  0  0
  4  5  2  0  0  0
  5 10  1  0  0  0
  5  6  1  0  0  0
  6  7  1  0  0  0
  7  8  2  0  0  0
  7 33  1  0  0  0
  8  9  1  0  0  0
  8 34  1  0  0  0
  9 10  2  0  0  0
  9 35  1  0  0  0
 10 36  1  0  0  0
 11 12  2  0  0  0
 11 16  1  0  0  0
 12 13  1  0  0  0
 12 37  1  0  0  0
 13 14  2  0  0  0
 13 38  1  0  0  0
 14 17  1  0  0  0
 14 15  1  0  0  0
 15 16  2  0  0  0
 15 39  1  0  0  0
 16 40  1  0  0  0
 17 18  1  0  0  0
 18 19  1  0  0  0
 18 41  1  0  0  0
 18 42  1  0  0  0
 19 20  1  0  0  0
 19 26  2  0  0  0
 20 21  2  0  0  0
 20 22  1  0  0  0
 21 23  1  0  0  0
 21 43  1  0  0  0
 22 25  2  0  0  0
 22 44  1  0  0  0
 23 24  2  0  0  0
 23 45  1  0  0  0
 24 25  1  0  0  0
 24 46  1  0  0  0
 25 47  1  0  0  0
 27 28  2  0  0  0
 27 32  1  0  0  0
 28 29  1  0  0  0
 28 48  1  0  0  0
 29 30  2  0  0  0
 29 49  1  0  0  0
 30 31  1  0  0  0
 30 50  1  0  0  0
 31 32  2  0  0  0
 31 51  1  0  0  0
 32 52  1  0  0  0
M  CHG  1  26  -1
M  END
>  <COMPND>
    ligand_BC.pdb 

>  <AUTHOR>
    GENERATED BY OPEN BABEL 2.2.1

>  <MASTER>
        0    0    0    0    0    0    0    0   52    0   52    0

$$$$
PMC1IJY_out_4.pdb_24289_ChemDiv_8015-7.pdb
 OpenBabel06131016443D

 52 58  0  0  0  0  0  0  0  0999 V2000
   61.0420   45.3830   96.2280 C   0  0  0  0  0
   60.3100   45.0310   96.7650 N   0  0  0  0  0
   59.6640   44.4630   96.3810 C   0  0  0  0  0
   59.7220   44.2200   95.4390 C   0  0  0  0  0
   61.0990   45.1390   95.2850 C   0  0  0  0  0
   61.8170   45.4780   94.7400 C   0  0  0  0  0
   62.4930   46.0690   95.1300 C   0  0  0  0  0
   62.4360   46.3130   96.0720 C   0  0  0  0  0
   61.7180   45.9710   96.6080 C   0  0  0  0  0
   61.6610   46.2140   97.5470 N   0  0  0  0  0
   62.3310   46.8060   97.9520 C   0  0  0  0  0
   62.2740   47.0480   98.8900 O   0  0  0  0  0
   60.9280   45.8640   98.0920 C   0  0  0  0  0
   60.2530   45.2740   97.7040 C   0  0  0  0  0
   59.0110   43.5920   95.0110 C   0  0  0  0  0
   58.2520   43.2360   95.5910 C   0  0  0  0  0
   58.1940   43.4850   96.5570 C   0  0  0  0  0
   58.8910   44.1020   96.9830 C   0  0  0  0  0
   57.5650   42.6270   95.1720 C   0  0  0  0  0
   63.0610   47.1480   97.3900 C   0  0  0  0  0
   63.3690   48.0680   97.5280 N   0  0  0  0  0
   62.9160   48.8110   97.0980 C   0  0  0  0  0
   63.2340   49.7260   97.2450 C   0  0  0  0  0
   64.0050   49.8920   97.8210 N   0  0  0  0  0
   64.4580   49.1490   98.2500 C   0  0  0  0  0
   64.1480   48.2270   98.1110 C   0  0  0  0  0
   64.3230   50.8070   97.9670 C   0  0  0  0  0
   63.9720   51.3340   98.7060 C   0  0  0  0  0
   64.2910   52.2490   98.8520 C   0  0  0  0  0
   63.9400   52.7830   99.5950 Cl  0  0  0  0  0
   64.9560   52.6270   98.2610 C   0  0  0  0  0
   65.3070   52.0930   97.5180 C   0  0  0  0  0
   64.9880   51.1850   97.3760 C   0  0  0  0  0
   61.8780   45.2000   93.6760 H   0  0  0  0  0
   63.3150   46.4570   94.5070 H   0  0  0  0  0
   63.1920   46.9780   96.5180 H   0  0  0  0  0
   60.8630   46.1390   99.1570 H   0  0  0  0  0
   59.0780   43.3160   93.9470 H   0  0  0  0  0
   57.3690   43.0900   97.1710 H   0  0  0  0  0
   57.8150   42.4720   94.0710 H   0  0  0  0  0
   56.5220   43.0740   95.2810 H   0  0  0  0  0
   57.5820   41.6200   95.7050 H   0  0  0  0  0
   63.9540   46.4460   97.4850 H   0  0  0  0  0
   62.5970   47.1800   96.3490 H   0  0  0  0  0
   62.0470   48.6260   96.4470 H   0  0  0  0  0
   62.7200   50.5700   96.7590 H   0  0  0  0  0
   65.3270   49.3410   98.8990 H   0  0  0  0  0
   64.6630   47.3840   98.5990 H   0  0  0  0  0
   63.2150   50.9010   99.3790 H   0  0  0  0  0
   65.3180   53.6550   98.4220 H   0  0  0  0  0
   66.0640   52.5220   96.8420 H   0  0  0  0  0
   65.3850   50.5870   96.5410 H   0  0  0  0  0
  1  5  2  0  0  0
  1  9  1  0  0  0
  1  2  1  0  0  0
  2  3  1  0  0  0
  2 14  1  0  0  0
  3  4  2  0  0  0
  3 18  1  0  0  0
  4 15  1  0  0  0
  4  5  1  0  0  0
  5  6  1  0  0  0
  6  7  2  0  0  0
  6 34  1  0  0  0
  7  8  1  0  0  0
  7 35  1  0  0  0
  8  9  2  0  0  0
  8 36  1  0  0  0
  9 10  1  0  0  0
 10 11  1  0  0  0
 10 13  1  0  0  0
 11 20  1  0  0  0
 11 12  2  0  0  0
 13 14  2  0  0  0
 13 37  1  0  0  0
 14 18  1  0  0  0
 15 16  2  0  0  0
 15 38  1  0  0  0
 16 19  1  0  0  0
 16 17  1  0  0  0
 17 18  2  0  0  0
 17 39  1  0  0  0
 19 40  1  0  0  0
 19 41  1  0  0  0
 19 42  1  0  0  0
 20 21  1  0  0  0
 20 43  1  0  0  0
 20 44  1  0  0  0
 21 22  2  0  0  0
 21 26  1  0  0  0
 22 23  1  0  0  0
 22 45  1  0  0  0
 23 24  2  0  0  0
 23 46  1  0  0  0
 24 27  1  0  0  0
 24 25  1  0  0  0
 25 26  2  0  0  0
 25 47  1  0  0  0
 26 48  1  0  0  0
 27 33  2  0  0  0
 27 28  1  0  0  0
 28 29  2  0  0  0
 28 49  1  0  0  0
 29 31  1  0  0  0
 29 30  1  0  0  0
 31 32  2  0  0  0
 31 50  1  0  0  0
 32 33  1  0  0  0
 32 51  1  0  0  0
 33 52  1  0  0  0
M  CHG  1  12  -1
M  END
>  <COMPND>
    ligand_BC.pdb 

>  <AUTHOR>
    GENERATED BY OPEN BABEL 2.2.1

>  <MASTER>
        0    0    0    0    0    0    0    0   52    0   52    0

$$$$
PMC1IJY_out_4.pdb_24917_ChemDiv_4802-0.pdb
 OpenBabel06131016443D

 59 63  0  0  0  0  0  0  0  0999 V2000
   64.6300   50.9810   97.7050 C   0  0  0  0  0
   65.4410   51.2730   97.4100 N   0  0  0  0  0
   65.6940   51.9520   96.7020 C   0  0  0  0  0
   66.5280   52.0110   96.6510 C   0  0  0  0  0
   64.8950   52.4500   96.1710 O   0  0  0  0  0
   66.9660   51.4190   97.2770 C   0  0  0  0  0
   67.1970   52.6120   96.0310 C   0  0  0  0  0
   66.3160   50.9850   97.7220 C   0  0  0  0  0
   68.0650   51.3960   97.3150 C   0  0  0  0  0
   66.3530   50.2640   98.4780 O   0  0  0  0  0
   68.5560   51.9030   96.7910 C   0  0  0  0  0
   68.1580   52.6130   96.0420 C   0  0  0  0  0
   64.0680   50.2810   97.2650 C   0  0  0  0  0
   63.3400   50.4740   96.6190 N   0  0  0  0  0
   64.3740   49.3520   97.5940 O   0  0  0  0  0
   62.8090   49.7140   96.2100 C   0  0  0  0  0
   63.1130   49.2020   95.3540 C   0  0  0  0  0
   62.5160   48.4600   95.0250 C   0  0  0  0  0
   61.7030   48.2090   95.4470 C   0  0  0  0  0
   61.4410   48.6910   96.2320 C   0  0  0  0  0
   61.9350   49.4090   96.6240 C   0  0  0  0  0
   61.1610   47.4330   95.0290 S   0  0  0  0  0
   60.6270   46.6850   94.6190 O   0  0  0  0  0
   60.4710   48.1090   94.6930 O   0  0  0  0  0
   61.8520   46.7880   95.3700 N   0  0  0  0  0
   62.4120   46.2770   94.7090 C   0  0  0  0  0
   63.0870   45.6460   95.0470 N   0  0  0  0  0
   62.2350   46.4530   93.7840 N   0  0  0  0  0
   63.6220   45.1600   94.3390 C   0  0  0  0  0
   63.5080   45.2790   93.4000 C   0  0  0  0  0
   62.7630   45.9740   93.1170 C   0  0  0  0  0
   64.0240   51.2370   98.5360 C   0  0  0  0  0
   63.9190   52.2140   98.7740 C   0  0  0  0  0
   64.6120   52.6290   99.3490 C   0  0  0  0  0
   64.5120   53.6260   99.5970 C   0  0  0  0  0
   63.7370   54.1850   99.2740 C   0  0  0  0  0
   63.0480   53.7560   98.6970 C   0  0  0  0  0
   63.1550   52.7090   98.4380 C   0  0  0  0  0
   65.6190   51.5420   97.6230 H   0  0  0  0  0
   66.7160   53.2940   95.3120 H   0  0  0  0  0
   68.5630   50.7200   98.0280 H   0  0  0  0  0
   69.6510   51.8250   96.8880 H   0  0  0  0  0
   68.7850   53.2420   95.3900 H   0  0  0  0  0
   63.1130   51.4980   96.3510 H   0  0  0  0  0
   64.0470   49.4610   94.8310 H   0  0  0  0  0
   62.8240   47.9080   94.1230 H   0  0  0  0  0
   60.4990   48.3950   96.7200 H   0  0  0  0  0
   61.5530   49.9070   97.5290 H   0  0  0  0  0
   61.9920   46.6450   96.4340 H   0  0  0  0  0
   64.3890   44.4440   94.6760 H   0  0  0  0  0
   64.1110   44.7300   92.6600 H   0  0  0  0  0
   62.5790   46.1610   92.0470 H   0  0  0  0  0
   64.4050   50.6770   99.4530 H   0  0  0  0  0
   62.9770   50.9330   98.2030 H   0  0  0  0  0
   65.4680   52.0400   99.7140 H   0  0  0  0  0
   65.2770   54.0950  100.2360 H   0  0  0  0  0
   63.6550   55.2470   99.5540 H   0  0  0  0  0
   62.1890   54.3380   98.3270 H   0  0  0  0  0
   62.4060   52.2130   97.8010 H   0  0  0  0  0
  1 13  1  0  0  0
  1  2  1  0  0  0
  1 32  1  0  0  0
  1 39  1  0  0  0
  2  3  1  0  0  0
  2  8  1  0  0  0
  3  5  2  0  0  0
  3  4  1  0  0  0
  4  7  2  0  0  0
  4  6  1  0  0  0
  6  9  2  0  0  0
  6  8  1  0  0  0
  7 12  1  0  0  0
  7 40  1  0  0  0
  8 10  2  0  0  0
  9 11  1  0  0  0
  9 41  1  0  0  0
 11 12  2  0  0  0
 11 42  1  0  0  0
 12 43  1  0  0  0
 13 14  1  0  0  0
 13 15  2  0  0  0
 14 16  1  0  0  0
 14 44  1  0  0  0
 16 17  2  0  0  0
 16 21  1  0  0  0
 17 18  1  0  0  0
 17 45  1  0  0  0
 18 19  2  0  0  0
 18 46  1  0  0  0
 19 22  1  0  0  0
 19 20  1  0  0  0
 20 21  2  0  0  0
 20 47  1  0  0  0
 21 48  1  0  0  0
 22 23  2  0  0  0
 22 24  2  0  0  0
 22 25  1  0  0  0
 25 26  1  0  0  0
 25 49  1  0  0  0
 26 28  2  0  0  0
 26 27  1  0  0  0
 27 29  2  0  0  0
 28 31  1  0  0  0
 29 30  1  0  0  0
 29 50  1  0  0  0
 30 31  2  0  0  0
 30 51  1  0  0  0
 31 52  1  0  0  0
 32 33  1  0  0  0
 32 53  1  0  0  0
 32 54  1  0  0  0
 33 38  2  0  0  0
 33 34  1  0  0  0
 34 35  2  0  0  0
 34 55  1  0  0  0
 35 36  1  0  0  0
 35 56  1  0  0  0
 36 37  2  0  0  0
 36 57  1  0  0  0
 37 38  1  0  0  0
 37 58  1  0  0  0
 38 59  1  0  0  0
M  CHG  5   5  -1  10  -1  15  -1  23  -1  24  -1
M  END
>  <COMPND>
    ligand_BC.pdb 

>  <AUTHOR>
    GENERATED BY OPEN BABEL 2.2.1

>  <MASTER>
        0    0    0    0    0    0    0    0   59    0   59    0

$$$$
PMC1IJY_out_4.pdb_24166_ChemDiv_E568-0.pdb
 OpenBabel06131016443D

 49 53  0  0  0  0  0  0  0  0999 V2000
   62.7930   49.6170   98.5620 C   0  0  0  0  0
   62.0720   50.1050   99.0550 N   0  0  0  0  0
   61.2540   49.5280   99.0510 N   0  0  0  0  0
   61.4700   48.6850   98.5560 C   0  0  0  0  0
   62.4250   48.7430   98.2540 C   0  0  0  0  0
   63.0030   48.1100   97.7390 C   0  0  0  0  0
   63.9480   48.3510   97.5310 C   0  0  0  0  0
   64.3190   49.2280   97.8390 C   0  0  0  0  0
   63.7410   49.8610   98.3550 N   0  0  0  0  0
   65.2660   49.4710   97.6320 C   0  0  0  0  0
   60.8490   47.9230   98.3930 C   0  0  0  0  0
   62.6330   47.2330   97.4310 C   0  0  0  0  0
   62.1420   47.1750   96.5600 N   0  0  0  0  0
   61.7370   46.3520   96.1660 C   0  0  0  0  0
   61.9710   47.9340   95.9300 C   0  0  0  0  0
   61.3150   46.5980   95.2940 C   0  0  0  0  0
   61.6970   45.4020   96.4900 C   0  0  0  0  0
   61.4590   47.5760   95.1480 C   0  0  0  0  0
   60.8530   45.8980   94.7450 C   0  0  0  0  0
   60.8150   44.9540   95.0690 C   0  0  0  0  0
   61.2370   44.7090   95.9420 C   0  0  0  0  0
   62.7530   46.4150   97.9920 O   0  0  0  0  0
   62.1510   51.0060   99.4760 C   0  0  0  0  0
   61.9340   51.8270   98.9440 C   0  0  0  0  0
   62.0130   52.7290   99.3690 C   0  0  0  0  0
   62.3070   52.8130  100.3200 C   0  0  0  0  0
   62.5220   51.9970  100.8500 C   0  0  0  0  0
   62.3840   53.7180  100.7380 C   0  0  0  0  0
   62.4450   51.0920  100.4300 C   0  0  0  0  0
   64.5830   47.6530   96.9630 H   0  0  0  0  0
   65.7550   48.6270   97.0420 H   0  0  0  0  0
   65.8430   49.6650   98.5960 H   0  0  0  0  0
   65.2800   50.4240   97.0060 H   0  0  0  0  0
   61.3890   47.1120   97.8010 H   0  0  0  0  0
   59.9280   48.2790   97.8240 H   0  0  0  0  0
   60.5110   47.4940   99.3940 H   0  0  0  0  0
   62.2900   48.9790   96.0720 H   0  0  0  0  0
   62.1610   45.1270   97.4500 H   0  0  0  0  0
   61.1150   48.1580   94.2790 H   0  0  0  0  0
   60.3870   46.1700   93.7850 H   0  0  0  0  0
   60.3090   44.1840   94.4660 H   0  0  0  0  0
   61.1930   43.6680   96.2990 H   0  0  0  0  0
   61.6100   51.7360   97.8950 H   0  0  0  0  0
   61.7750   53.6330   98.7860 H   0  0  0  0  0
   62.8450   52.0910  101.8990 H   0  0  0  0  0
   62.0970   54.5150   99.9750 H   0  0  0  0  0
   63.4480   53.8920  101.1100 H   0  0  0  0  0
   61.6760   53.7800  101.6300 H   0  0  0  0  0
   62.6830   50.1910  101.0160 H   0  0  0  0  0
  1  5  2  0  0  0
  1  9  1  0  0  0
  1  2  1  0  0  0
  2  3  1  0  0  0
  2 23  1  0  0  0
  3  4  2  0  0  0
  4  5  1  0  0  0
  4 11  1  0  0  0
  5  6  1  0  0  0
  6 12  1  0  0  0
  6  7  2  0  0  0
  7  8  1  0  0  0
  7 30  1  0  0  0
  8 10  1  0  0  0
  8  9  2  0  0  0
 10 31  1  0  0  0
 10 32  1  0  0  0
 10 33  1  0  0  0
 11 34  1  0  0  0
 11 35  1  0  0  0
 11 36  1  0  0  0
 12 13  1  0  0  0
 12 22  2  0  0  0
 13 15  1  0  0  0
 13 14  1  0  0  0
 14 16  2  0  0  0
 14 17  1  0  0  0
 15 18  2  0  0  0
 15 37  1  0  0  0
 16 19  1  0  0  0
 16 18  1  0  0  0
 17 21  2  0  0  0
 17 38  1  0  0  0
 18 39  1  0  0  0
 19 20  2  0  0  0
 19 40  1  0  0  0
 20 21  1  0  0  0
 20 41  1  0  0  0
 21 42  1  0  0  0
 23 24  2  0  0  0
 23 29  1  0  0  0
 24 25  1  0  0  0
 24 43  1  0  0  0
 25 26  2  0  0  0
 25 44  1  0  0  0
 26 28  1  0  0  0
 26 27  1  0  0  0
 27 29  2  0  0  0
 27 45  1  0  0  0
 28 46  1  0  0  0
 28 47  1  0  0  0
 28 48  1  0  0  0
 29 49  1  0  0  0
M  CHG  1  22  -1
M  END
>  <COMPND>
    ligand_BC.pdb 

>  <AUTHOR>
    GENERATED BY OPEN BABEL 2.2.1

>  <MASTER>
        0    0    0    0    0    0    0    0   49    0   49    0

$$$$
PMC1IJY_out_4.pdb_24329_ChemDiv_000A-0.pdb
 OpenBabel06131016443D

 56 60  0  0  0  0  0  0  0  0999 V2000
   61.7040   47.8370   97.0710 C   0  0  0  0  0
   62.0970   47.6340   96.1600 C   0  0  0  0  0
   61.9020   46.6870   95.9590 C   0  0  0  0  0
   61.4050   46.3010   96.7120 C   0  0  0  0  0
   61.2700   47.0150   97.4250 N   0  0  0  0  0
   61.1090   45.3460   96.7100 C   0  0  0  0  0
   61.3130   44.7440   95.9270 C   0  0  0  0  0
   61.8330   45.1420   95.1350 C   0  0  0  0  0
   62.1150   46.0940   95.1650 C   0  0  0  0  0
   62.5720   48.3600   95.6610 N   0  0  0  0  0
   62.6670   49.2700   96.0400 N   0  0  0  0  0
   62.2740   49.4740   96.9510 C   0  0  0  0  0
   61.7930   48.7650   97.4710 N   0  0  0  0  0
   62.3630   50.4010   97.3510 S   0  0  0  0  0
   63.1230   50.6220   97.9710 C   0  0  0  0  0
   62.9700   51.0550   98.8560 C   0  0  0  0  0
   63.0230   52.0380   98.9650 N   0  0  0  0  0
   62.7570   50.4750   99.6590 O   0  0  0  0  0
   62.8670   52.4510   99.8570 C   0  0  0  0  0
   61.9570   52.7480  100.1160 C   0  0  0  0  0
   61.7900   53.1590  100.9970 C   0  0  0  0  0
   62.5200   53.2900  101.6560 C   0  0  0  0  0
   63.4540   52.9850  101.3900 C   0  0  0  0  0
   63.6110   52.5760  100.5080 C   0  0  0  0  0
   62.3340   53.7020  102.5330 S   0  0  0  0  0
   62.3890   54.6180  102.1160 O   0  0  0  0  0
   62.2780   52.7970  102.9560 O   0  0  0  0  0
   62.1480   54.1180  103.4060 N   0  0  0  0  0
   60.8140   46.9410   98.2910 C   0  0  0  0  0
   61.3150   46.6480   99.0870 C   0  0  0  0  0
   60.8940   46.7050  100.0160 C   0  0  0  0  0
   60.9780   47.4960  100.5730 C   0  0  0  0  0
   60.5670   47.5420  101.4730 C   0  0  0  0  0
   60.0550   46.7930  101.8430 C   0  0  0  0  0
   59.9480   45.9530  101.2870 C   0  0  0  0  0
   60.3680   45.9080  100.3720 C   0  0  0  0  0
   60.5530   44.9470   97.5730 H   0  0  0  0  0
   60.9880   43.6910   95.9210 H   0  0  0  0  0
   62.0760   44.5180   94.2600 H   0  0  0  0  0
   62.6730   46.5160   94.3140 H   0  0  0  0  0
   63.8790   51.2510   97.3950 H   0  0  0  0  0
   63.4580   49.5800   98.2900 H   0  0  0  0  0
   63.2510   52.6640   98.1120 H   0  0  0  0  0
   61.1210   52.6170   99.4100 H   0  0  0  0  0
   60.7690   53.4800  101.2550 H   0  0  0  0  0
   64.2930   53.1130  102.0920 H   0  0  0  0  0
   64.6280   52.2510  100.2360 H   0  0  0  0  0
   62.1360   55.2320  103.2940 H   0  0  0  0  0
   62.9230   53.8120  104.1540 H   0  0  0  0  0
   59.7430   47.1850   98.3730 H   0  0  0  0  0
   62.3380   46.2560   98.9740 H   0  0  0  0  0
   61.5440   48.3620  100.1950 H   0  0  0  0  0
   60.6890   48.4580  102.0730 H   0  0  0  0  0
   59.6040   46.8630  102.8450 H   0  0  0  0  0
   59.3780   45.0960  101.6790 H   0  0  0  0  0
   60.2590   45.0000   99.7580 H   0  0  0  0  0
  1  2  2  0  0  0
  1  5  1  0  0  0
  1 13  1  0  0  0
  2 10  1  0  0  0
  2  3  1  0  0  0
  3  9  2  0  0  0
  3  4  1  0  0  0
  4  6  2  0  0  0
  4  5  1  0  0  0
  5 29  1  0  0  0
  6  7  1  0  0  0
  6 37  1  0  0  0
  7  8  2  0  0  0
  7 38  1  0  0  0
  8  9  1  0  0  0
  8 39  1  0  0  0
  9 40  1  0  0  0
 10 11  2  0  0  0
 11 12  1  0  0  0
 12 14  1  0  0  0
 12 13  2  0  0  0
 14 15  1  0  0  0
 15 16  1  0  0  0
 15 41  1  0  0  0
 15 42  1  0  0  0
 16 17  1  0  0  0
 16 18  2  0  0  0
 17 19  1  0  0  0
 17 43  1  0  0  0
 19 20  2  0  0  0
 19 24  1  0  0  0
 20 21  1  0  0  0
 20 44  1  0  0  0
 21 22  2  0  0  0
 21 45  1  0  0  0
 22 23  1  0  0  0
 22 25  1  0  0  0
 23 24  2  0  0  0
 23 46  1  0  0  0
 24 47  1  0  0  0
 25 26  2  0  0  0
 25 27  2  0  0  0
 25 28  1  0  0  0
 28 48  1  0  0  0
 28 49  1  0  0  0
 29 30  2  0  0  0
 29 50  1  0  0  0
 30 31  1  0  0  0
 30 51  1  0  0  0
 31 36  2  0  0  0
 31 32  1  0  0  0
 32 33  2  0  0  0
 32 52  1  0  0  0
 33 34  1  0  0  0
 33 53  1  0  0  0
 34 35  2  0  0  0
 34 54  1  0  0  0
 35 36  1  0  0  0
 35 55  1  0  0  0
 36 56  1  0  0  0
M  CHG  3  18  -1  26  -1  27  -1
M  END
>  <COMPND>
    ligand_BC.pdb 

>  <AUTHOR>
    GENERATED BY OPEN BABEL 2.2.1

>  <MASTER>
        0    0    0    0    0    0    0    0   56    0   56    0

$$$$
PMC1IJY_out_4.pdb_24684_ChemDiv_K906-1.pdb
 OpenBabel06131016443D

 56 58  0  0  0  0  0  0  0  0999 V2000
   62.9640   50.7810   98.0620 C   0  0  0  0  0
   62.5510   50.6300   97.1720 N   0  0  0  0  0
   62.3840   49.7030   96.8480 S   0  0  0  0  0
   63.3460   49.6200   96.5890 O   0  0  0  0  0
   61.4260   49.7850   97.1060 O   0  0  0  0  0
   62.2160   48.7680   96.5210 C   0  0  0  0  0
   62.1890   48.5820   95.5440 C   0  0  0  0  0
   62.0210   47.6510   95.2190 C   0  0  0  0  0
   61.9560   47.2540   94.3010 O   0  0  0  0  0
   61.8820   46.9140   95.8740 C   0  0  0  0  0
   61.7800   46.2980   94.3850 C   0  0  0  0  0
   61.7300   46.0650   95.3470 N   0  0  0  0  0
   61.6700   45.6610   93.6130 O   0  0  0  0  0
   61.5630   45.1660   95.7380 C   0  0  0  0  0
   61.9080   47.0990   96.8590 C   0  0  0  0  0
   62.0760   48.0290   97.1840 C   0  0  0  0  0
   62.6020   51.4950   98.6750 C   0  0  0  0  0
   62.8200   52.4500   98.5140 N   0  0  0  0  0
   62.0210   51.2410   99.4490 O   0  0  0  0  0
   63.4020   52.7040   97.7400 C   0  0  0  0  0
   64.3620   52.9270   97.8910 C   0  0  0  0  0
   64.9460   53.1820   97.1160 C   0  0  0  0  0
   64.5610   53.2120   96.1850 C   0  0  0  0  0
   63.5940   52.9870   96.0370 C   0  0  0  0  0
   63.0160   52.7340   96.8090 C   0  0  0  0  0
   65.9120   53.4060   97.2700 C   0  0  0  0  0
   66.1810   54.3620   97.4150 O   0  0  0  0  0
   66.6070   52.6760   97.2800 O   0  0  0  0  0
   67.2760   52.6190   96.5400 C   0  0  0  0  0
   68.0330   51.9560   96.6010 C   0  0  0  0  0
   63.7490   50.2220   98.3550 C   0  0  0  0  0
   64.4580   49.9820   97.6980 C   0  0  0  0  0
   65.3590   49.6870   98.0140 S   0  0  0  0  0
   66.0740   49.4550   97.3550 C   0  0  0  0  0
   61.9850   50.5390   97.5310 H   0  0  0  0  0
   61.5870   51.1990   97.1290 H   0  0  0  0  0
   62.3440   49.3990   94.8220 H   0  0  0  0  0
   61.4290   44.4050   94.9000 H   0  0  0  0  0
   60.6360   45.1900   96.4010 H   0  0  0  0  0
   62.4560   44.8640   96.3790 H   0  0  0  0  0
   61.7520   46.2810   97.5800 H   0  0  0  0  0
   62.1070   48.2410   98.2640 H   0  0  0  0  0
   62.4300   53.2150   99.1730 H   0  0  0  0  0
   64.7820   52.8930   98.9090 H   0  0  0  0  0
   65.2000   53.4910   95.3320 H   0  0  0  0  0
   63.1710   53.0200   95.0210 H   0  0  0  0  0
   61.9550   52.4870   96.6450 H   0  0  0  0  0
   67.1870   53.2780   95.6620 H   0  0  0  0  0
   68.1200   51.2990   97.4810 H   0  0  0  0  0
   68.7730   51.8890   95.7880 H   0  0  0  0  0
   64.2420   50.7310   99.2480 H   0  0  0  0  0
   63.2660   49.2140   98.5770 H   0  0  0  0  0
   64.2480   50.0420   96.6180 H   0  0  0  0  0
   67.0190   49.1450   97.9120 H   0  0  0  0  0
   66.2900   50.3460   96.6770 H   0  0  0  0  0
   65.7190   48.5870   96.7070 H   0  0  0  0  0
  1  2  1  0  0  0
  1 31  1  0  0  0
  1 17  1  0  0  0
  1 35  1  0  0  0
  2  3  1  0  0  0
  2 36  1  0  0  0
  3  6  1  0  0  0
  3  4  2  0  0  0
  3  5  2  0  0  0
  6  7  2  0  0  0
  6 16  1  0  0  0
  7  8  1  0  0  0
  7 37  1  0  0  0
  8  9  1  0  0  0
  8 10  2  0  0  0
  9 11  1  0  0  0
 10 12  1  0  0  0
 10 15  1  0  0  0
 11 13  2  0  0  0
 11 12  1  0  0  0
 12 14  1  0  0  0
 14 38  1  0  0  0
 14 39  1  0  0  0
 14 40  1  0  0  0
 15 16  2  0  0  0
 15 41  1  0  0  0
 16 42  1  0  0  0
 17 18  1  0  0  0
 17 19  2  0  0  0
 18 20  1  0  0  0
 18 43  1  0  0  0
 20 25  2  0  0  0
 20 21  1  0  0  0
 21 22  2  0  0  0
 21 44  1  0  0  0
 22 23  1  0  0  0
 22 26  1  0  0  0
 23 24  2  0  0  0
 23 45  1  0  0  0
 24 25  1  0  0  0
 24 46  1  0  0  0
 25 47  1  0  0  0
 26 28  1  0  0  0
 26 27  2  0  0  0
 28 29  1  0  0  0
 29 30  2  0  0  0
 29 48  1  0  0  0
 30 49  1  0  0  0
 30 50  1  0  0  0
 31 32  1  0  0  0
 31 51  1  0  0  0
 31 52  1  0  0  0
 32 33  2  0  0  0
 32 53  1  0  0  0
 33 34  1  0  0  0
 34 54  1  0  0  0
 34 55  1  0  0  0
 34 56  1  0  0  0
M  CHG  5   4  -1   5  -1  13  -1  19  -1  27  -1
M  END
>  <COMPND>
    ligand_BC.pdb 

>  <AUTHOR>
    GENERATED BY OPEN BABEL 2.2.1

>  <MASTER>
        0    0    0    0    0    0    0    0   56    0   56    0

$$$$
PMC1IJY_out_4.pdb_24329_ChemDiv_000A-0.pdb
 OpenBabel06131016443D

 58 62  0  0  0  0  0  0  0  0999 V2000
   61.3600   47.9620   98.3390 C   0  0  0  0  0
   60.7980   48.1040   99.1700 C   0  0  0  0  0
   60.5130   47.2140   99.4900 C   0  0  0  0  0
   60.8780   46.5310   98.8880 C   0  0  0  0  0
   61.4180   46.9860   98.1530 N   0  0  0  0  0
   60.7070   45.5580   99.0340 C   0  0  0  0  0
   60.1480   45.2430   99.8120 C   0  0  0  0  0
   59.7620   45.9530  100.4460 C   0  0  0  0  0
   59.9490   46.9140  100.2760 C   0  0  0  0  0
   60.6400   49.0370   99.4970 N   0  0  0  0  0
   61.0200   49.8210   99.0270 N   0  0  0  0  0
   61.5830   49.6790   98.1970 C   0  0  0  0  0
   61.7570   48.7550   97.8480 N   0  0  0  0  0
   61.9790   50.4720   97.7050 S   0  0  0  0  0
   62.8810   50.8360   97.9610 C   0  0  0  0  0
   63.0590   51.2100   98.8680 C   0  0  0  0  0
   62.8390   52.1500   99.0910 N   0  0  0  0  0
   63.4730   50.6150   99.5760 O   0  0  0  0  0
   63.0240   52.5050  100.0020 C   0  0  0  0  0
   62.3240   52.4610  100.7030 C   0  0  0  0  0
   62.4950   52.8090  101.6110 C   0  0  0  0  0
   63.3680   53.2140  101.8560 C   0  0  0  0  0
   64.0850   53.2580  101.1350 C   0  0  0  0  0
   63.9050   52.9080  100.2330 C   0  0  0  0  0
   63.5200   53.5570  102.7690 S   0  0  0  0  0
   63.7860   52.6340  103.0730 O   0  0  0  0  0
   63.2580   54.4770  102.4750 O   0  0  0  0  0
   63.6740   53.8950  103.6800 N   0  0  0  0  0
   61.9050   46.5790   97.4050 C   0  0  0  0  0
   61.4430   46.4150   96.5500 C   0  0  0  0  0
   61.9770   46.2290   95.6990 C   0  0  0  0  0
   62.2050   45.3280   95.4200 C   0  0  0  0  0
   62.7230   45.1560   94.5940 C   0  0  0  0  0
   63.0300   45.8880   94.0180 C   0  0  0  0  0
   62.8080   46.8410   94.2810 C   0  0  0  0  0
   62.2810   47.0130   95.1230 C   0  0  0  0  0
   61.1340   44.8200   98.3370 H   0  0  0  0  0
   59.9570   44.1710   99.9770 H   0  0  0  0  0
   59.1460   45.6510  101.3080 H   0  0  0  0  0
   59.5330   47.6710  100.9590 H   0  0  0  0  0
   63.1780   51.6210   97.1890 H   0  0  0  0  0
   63.5030   49.8810   97.9910 H   0  0  0  0  0
   62.3960   52.7930   98.3410 H   0  0  0  0  0
   61.3440   52.0180  100.4660 H   0  0  0  0  0
   61.6990   52.7470  102.3700 H   0  0  0  0  0
   65.0670   53.7000  101.3650 H   0  0  0  0  0
   64.6920   52.9630   99.4650 H   0  0  0  0  0
   63.4550   54.9930  103.7130 H   0  0  0  0  0
   64.7320   53.7010  103.9920 H   0  0  0  0  0
   62.8360   47.2030   97.1980 H   0  0  0  0  0
   62.1020   45.5220   97.7850 H   0  0  0  0  0
   60.7010   45.5630   96.7010 H   0  0  0  0  0
   60.9880   47.4360   96.3260 H   0  0  0  0  0
   61.8800   44.4760   96.0370 H   0  0  0  0  0
   62.9600   44.1170   94.3150 H   0  0  0  0  0
   63.6050   45.6780   93.1020 H   0  0  0  0  0
   63.1400   47.6820   93.6520 H   0  0  0  0  0
   62.0350   48.0450   95.4200 H   0  0  0  0  0
  1 13  2  0  0  0
  1  5  1  0  0  0
  1  2  1  0  0  0
  2  3  1  0  0  0
  2 10  2  0  0  0
  3  4  2  0  0  0
  3  9  1  0  0  0
  4  5  1  0  0  0
  4  6  1  0  0  0
  5 29  1  0  0  0
  6  7  2  0  0  0
  6 37  1  0  0  0
  7  8  1  0  0  0
  7 38  1  0  0  0
  8  9  2  0  0  0
  8 39  1  0  0  0
  9 40  1  0  0  0
 10 11  1  0  0  0
 11 12  2  0  0  0
 12 14  1  0  0  0
 12 13  1  0  0  0
 14 15  1  0  0  0
 15 16  1  0  0  0
 15 41  1  0  0  0
 15 42  1  0  0  0
 16 17  1  0  0  0
 16 18  2  0  0  0
 17 19  1  0  0  0
 17 43  1  0  0  0
 19 24  2  0  0  0
 19 20  1  0  0  0
 20 21  2  0  0  0
 20 44  1  0  0  0
 21 22  1  0  0  0
 21 45  1  0  0  0
 22 23  2  0  0  0
 22 25  1  0  0  0
 23 24  1  0  0  0
 23 46  1  0  0  0
 24 47  1  0  0  0
 25 27  2  0  0  0
 25 26  2  0  0  0
 25 28  1  0  0  0
 28 48  1  0  0  0
 28 49  1  0  0  0
 29 30  1  0  0  0
 29 50  1  0  0  0
 29 51  1  0  0  0
 30 31  1  0  0  0
 30 52  1  0  0  0
 30 53  1  0  0  0
 31 36  2  0  0  0
 31 32  1  0  0  0
 32 33  2  0  0  0
 32 54  1  0  0  0
 33 34  1  0  0  0
 33 55  1  0  0  0
 34 35  2  0  0  0
 34 56  1  0  0  0
 35 36  1  0  0  0
 35 57  1  0  0  0
 36 58  1  0  0  0
M  CHG  3  18  -1  26  -1  27  -1
M  END
>  <COMPND>
    ligand_BC.pdb 

>  <AUTHOR>
    GENERATED BY OPEN BABEL 2.2.1

>  <MASTER>
        0    0    0    0    0    0    0    0   58    0   58    0

$$$$
PMC1IJY_out_4.pdb_24364_ChemDiv_0075-0.pdb
 OpenBabel06131016443D

 44 49  0  0  0  0  0  0  0  0999 V2000
   62.7810   48.7530   97.1550 C   0  0  0  0  0
   63.1300   48.5240   98.0830 C   0  0  0  0  0
   64.0150   48.8910   98.3560 C   0  0  0  0  0
   64.5290   49.4710   97.7150 C   0  0  0  0  0
   64.1900   49.6910   96.8180 C   0  0  0  0  0
   63.3030   49.3240   96.5410 C   0  0  0  0  0
   65.4240   49.8290   98.0190 Cl  0  0  0  0  0
   61.8710   48.3780   96.8680 N   0  0  0  0  0
   61.8090   47.4240   96.4900 S   0  0  0  0  0
   62.3510   47.0690   97.2690 O   0  0  0  0  0
   61.2640   47.7710   95.7020 O   0  0  0  0  0
   61.7350   46.5000   96.1020 C   0  0  0  0  0
   62.1550   46.2280   95.2360 C   0  0  0  0  0
   62.7150   46.7530   94.5740 N   0  0  0  0  0
   62.0630   45.3160   94.8850 C   0  0  0  0  0
   62.9600   46.1600   93.8270 S   0  0  0  0  0
   62.5700   45.2760   94.0000 N   0  0  0  0  0
   61.5460   44.6350   95.3860 C   0  0  0  0  0
   61.1230   44.8980   96.2520 C   0  0  0  0  0
   61.2160   45.8300   96.6140 C   0  0  0  0  0
   62.6220   47.9410   98.7390 C   0  0  0  0  0
   61.9190   48.3450   99.3450 N   0  0  0  0  0
   62.8160   46.9590   98.7910 O   0  0  0  0  0
   61.4360   47.7740   99.9740 C   0  0  0  0  0
   60.4950   47.5120   99.8040 C   0  0  0  0  0
   59.8560   47.7310   99.0390 N   0  0  0  0  0
   60.0000   46.9350  100.4350 C   0  0  0  0  0
   59.0180   47.2950   99.2200 S   0  0  0  0  0
   59.0720   46.7920  100.0780 N   0  0  0  0  0
   60.4450   46.6000  101.2670 C   0  0  0  0  0
   61.3860   46.8590  101.4410 C   0  0  0  0  0
   61.8700   47.4330  100.8080 C   0  0  0  0  0
   64.4270   48.6630   99.3520 H   0  0  0  0  0
   64.7750   50.3270   96.1350 H   0  0  0  0  0
   62.9040   49.5580   95.5420 H   0  0  0  0  0
   60.9790   48.9840   96.9630 H   0  0  0  0  0
   62.2140   43.7290   95.5660 H   0  0  0  0  0
   60.6530   44.4320   94.7080 H   0  0  0  0  0
   60.5440   44.1520   96.8200 H   0  0  0  0  0
   60.7450   46.1040   97.5710 H   0  0  0  0  0
   61.7030   49.4050   99.2970 H   0  0  0  0  0
   59.9000   45.9560  101.9750 H   0  0  0  0  0
   61.8920   46.5000  102.3510 H   0  0  0  0  0
   62.9150   47.7080  101.0220 H   0  0  0  0  0
  1  6  2  0  0  0
  1  8  1  0  0  0
  1  2  1  0  0  0
  2  3  2  0  0  0
  2 21  1  0  0  0
  3  4  1  0  0  0
  3 33  1  0  0  0
  4  5  2  0  0  0
  4  7  1  0  0  0
  5  6  1  0  0  0
  5 34  1  0  0  0
  6 35  1  0  0  0
  8  9  1  0  0  0
  8 36  1  0  0  0
  9 11  1  0  0  0
  9 12  1  0  0  0
  9 10  2  0  0  0
 11 12  1  0  0  0
 12 13  1  0  0  0
 12 20  1  0  0  0
 13 14  2  0  0  0
 13 15  1  0  0  0
 14 16  1  0  0  0
 15 17  2  0  0  0
 15 18  1  0  0  0
 16 17  1  0  0  0
 18 19  1  0  0  0
 18 37  1  0  0  0
 18 38  1  0  0  0
 19 20  2  0  0  0
 19 39  1  0  0  0
 20 40  1  0  0  0
 21 23  2  0  0  0
 21 22  1  0  0  0
 22 24  1  0  0  0
 22 41  1  0  0  0
 24 25  1  0  0  0
 24 32  2  0  0  0
 25 26  2  0  0  0
 25 27  1  0  0  0
 26 28  1  0  0  0
 27 29  2  0  0  0
 27 30  1  0  0  0
 28 29  1  0  0  0
 30 31  2  0  0  0
 30 42  1  0  0  0
 31 32  1  0  0  0
 31 43  1  0  0  0
 32 44  1  0  0  0
M  CHG  2  10  -1  23  -1
M  END
>  <COMPND>
    ligand_BC.pdb 

>  <AUTHOR>
    GENERATED BY OPEN BABEL 2.2.1

>  <MASTER>
        0    0    0    0    0    0    0    0   44    0   44    0

$$$$
PMC1IJY_out_4.pdb_24923_ChemDiv_D038-0.pdb
 OpenBabel06131016443D

 55 59  0  0  0  0  0  0  0  0999 V2000
   62.2660   47.1620   98.0680 C   0  0  0  0  0
   63.0750   47.0770   98.6630 C   0  0  0  0  0
   63.7510   47.8080   98.6990 C   0  0  0  0  0
   63.6310   48.6280   98.1470 C   0  0  0  0  0
   62.8280   48.7250   97.5490 C   0  0  0  0  0
   62.1490   47.9920   97.5120 C   0  0  0  0  0
   64.3060   49.3580   98.1830 N   0  0  0  0  0
   64.2260   50.0930   98.8640 C   0  0  0  0  0
   64.9050   50.8260   98.9010 O   0  0  0  0  0
   65.0720   49.3630   97.5390 H   0  0  0  0  0
   63.4540   50.0810   99.5070 C   0  0  0  0  0
   62.8290   50.8740   99.5390 C   0  0  0  0  0
   62.8460   51.5970  100.2210 C   0  0  0  0  0
   62.1170   52.2530  100.0120 C   0  0  0  0  0
   63.4290   51.7580  101.0190 C   0  0  0  0  0
   61.6440   51.9250   99.1830 O   0  0  0  0  0
   61.9690   53.0490  100.5770 C   0  0  0  0  0
   62.0870   51.0740   98.8960 C   0  0  0  0  0
   62.5460   53.2110  101.3680 C   0  0  0  0  0
   63.2820   52.5640  101.5950 C   0  0  0  0  0
   63.8660   52.7220  102.3910 C   0  0  0  0  0
   61.5840   46.4310   98.0280 S   0  0  0  0  0
   62.0950   45.9940   97.2950 O   0  0  0  0  0
   61.0740   46.8740   98.7650 O   0  0  0  0  0
   60.9030   45.7060   97.9920 N   0  0  0  0  0
   60.5250   45.4300   97.1090 C   0  0  0  0  0
   60.9240   45.7960   96.2680 N   0  0  0  0  0
   60.5520   45.5250   95.3800 C   0  0  0  0  0
   59.7800   44.8870   95.3350 N   0  0  0  0  0
   60.9580   45.8960   94.5400 C   0  0  0  0  0
   59.3880   44.5260   96.1770 C   0  0  0  0  0
   59.7560   44.7950   97.0580 C   0  0  0  0  0
   58.6200   43.8910   96.1400 C   0  0  0  0  0
   63.6110   46.1040   98.4050 H   0  0  0  0  0
   62.6140   47.1240   99.7050 H   0  0  0  0  0
   64.6330   47.7090   99.3510 H   0  0  0  0  0
   62.6980   49.6330   96.9390 H   0  0  0  0  0
   61.2680   48.0940   96.8590 H   0  0  0  0  0
   63.8580   49.8940  100.5560 H   0  0  0  0  0
   62.7920   49.2490   99.0970 H   0  0  0  0  0
   64.2340   51.0470  101.2640 H   0  0  0  0  0
   61.1630   53.7580  100.3290 H   0  0  0  0  0
   61.8070   50.4630   98.0230 H   0  0  0  0  0
   62.3800   54.1000  101.9980 H   0  0  0  0  0
   64.6320   51.8820  102.4740 H   0  0  0  0  0
   63.2350   52.7760  103.3390 H   0  0  0  0  0
   64.4110   53.7150  102.2640 H   0  0  0  0  0
   60.5740   45.2200   98.9020 H   0  0  0  0  0
   60.4070   45.4780   93.6340 H   0  0  0  0  0
   62.0650   45.6300   94.4860 H   0  0  0  0  0
   60.8600   47.0320   94.5460 H   0  0  0  0  0
   59.3150   44.3920   97.9830 H   0  0  0  0  0
   58.3360   43.7000   95.0530 H   0  0  0  0  0
   57.7300   44.3150   96.7120 H   0  0  0  0  0
   58.9250   42.9060   96.6260 H   0  0  0  0  0
  1  6  1  0  0  0
  1 22  1  0  0  0
  1  2  1  0  0  0
  1 24  1  0  0  0
  2  3  1  0  0  0
  2 34  1  0  0  0
  2 35  1  0  0  0
  3  4  2  0  0  0
  3 36  1  0  0  0
  4  5  1  0  0  0
  4  7  1  0  0  0
  5  6  2  0  0  0
  5 37  1  0  0  0
  6 38  1  0  0  0
  7 10  1  0  0  0
  7  8  1  0  0  0
  8  9  2  0  0  0
  8 11  1  0  0  0
 11 12  1  0  0  0
 11 39  1  0  0  0
 11 40  1  0  0  0
 12 18  2  0  0  0
 12 13  1  0  0  0
 13 14  2  0  0  0
 13 15  1  0  0  0
 14 16  1  0  0  0
 14 17  1  0  0  0
 15 20  2  0  0  0
 15 41  1  0  0  0
 16 18  1  0  0  0
 17 19  2  0  0  0
 17 42  1  0  0  0
 18 43  1  0  0  0
 19 20  1  0  0  0
 19 44  1  0  0  0
 20 21  1  0  0  0
 21 45  1  0  0  0
 21 46  1  0  0  0
 21 47  1  0  0  0
 22 23  2  0  0  0
 22 25  1  0  0  0
 22 24  1  0  0  0
 25 26  1  0  0  0
 25 48  1  0  0  0
 26 27  2  0  0  0
 26 32  1  0  0  0
 27 28  1  0  0  0
 28 30  1  0  0  0
 28 29  2  0  0  0
 29 31  1  0  0  0
 30 49  1  0  0  0
 30 50  1  0  0  0
 30 51  1  0  0  0
 31 33  1  0  0  0
 31 32  2  0  0  0
 32 52  1  0  0  0
 33 53  1  0  0  0
 33 54  1  0  0  0
 33 55  1  0  0  0
M  CHG  2   9  -1  23  -1
M  END
>  <COMPND>
    ligand_BC.pdb 

>  <AUTHOR>
    GENERATED BY OPEN BABEL 2.2.1

>  <MASTER>
        0    0    0    0    0    0    0    0   55    0   55    0

$$$$
PMC1IJY_out_4.pdb_24104_ChemDiv_C561-2.pdb
 OpenBabel06131016443D

 64 68  0  0  0  0  0  0  0  0999 V2000
   62.9880   50.7610   99.6040 C   0  0  0  0  0
   63.1880   51.7230   99.7480 N   0  0  0  0  0
   63.8190   52.0120   99.0260 N   0  0  0  0  0
   64.0020   51.2420   98.4520 C   0  0  0  0  0
   63.4940   50.4620   98.7990 C   0  0  0  0  0
   63.4250   49.5120   98.4850 C   0  0  0  0  0
   62.8470   48.8680   98.9850 C   0  0  0  0  0
   62.3410   49.1670   99.7890 C   0  0  0  0  0
   62.4120   50.1110  100.0970 N   0  0  0  0  0
   61.7620   48.5100  100.2830 C   0  0  0  0  0
   63.9310   49.2130   97.6810 C   0  0  0  0  0
   64.6020   51.2480   97.6510 C   0  0  0  0  0
   62.7800   47.9080   98.6640 C   0  0  0  0  0
   62.0470   47.6500   98.0010 C   0  0  0  0  0
   61.9740   46.6890   97.7010 C   0  0  0  0  0
   62.1750   46.4290   96.7480 N   0  0  0  0  0
   62.4530   47.1350   96.0810 C   0  0  0  0  0
   62.0980   45.4640   96.4620 C   0  0  0  0  0
   62.6540   46.8750   95.1270 C   0  0  0  0  0
   62.5780   45.9080   94.8370 N   0  0  0  0  0
   62.7740   45.6440   93.8970 C   0  0  0  0  0
   62.2990   45.2050   95.5120 C   0  0  0  0  0
   62.6990   44.6930   93.6160 O   0  0  0  0  0
   61.6980   45.9820   98.3640 O   0  0  0  0  0
   63.0490   46.3480   93.2390 C   0  0  0  0  0
   62.4390   46.9500   92.7390 O   0  0  0  0  0
   63.0020   47.5360   92.1660 C   0  0  0  0  0
   63.9540   47.2850   92.3220 C   0  0  0  0  0
   63.9790   46.5480   92.9880 C   0  0  0  0  0
   62.8260   52.2800  100.4690 C   0  0  0  0  0
   63.2930   52.3160  101.3590 C   0  0  0  0  0
   62.9250   52.8810  102.0870 C   0  0  0  0  0
   62.0970   53.4140  101.9520 C   0  0  0  0  0
   63.3850   52.9180  102.9670 C   0  0  0  0  0
   61.6220   53.3850  101.0670 C   0  0  0  0  0
   61.7250   53.9810  102.6820 C   0  0  0  0  0
   61.9930   52.8160  100.3320 C   0  0  0  0  0
   61.8190   47.4930   99.7720 H   0  0  0  0  0
   60.6830   48.8770  100.3110 H   0  0  0  0  0
   62.1370   48.4120  101.3550 H   0  0  0  0  0
   64.5250   50.0890   97.2580 H   0  0  0  0  0
   63.2150   48.8050   96.8930 H   0  0  0  0  0
   64.6510   48.3810   97.9790 H   0  0  0  0  0
   64.6210   50.2090   97.1820 H   0  0  0  0  0
   65.6550   51.5660   97.9490 H   0  0  0  0  0
   64.2020   51.9960   96.8890 H   0  0  0  0  0
   63.4920   47.1500   99.0270 H   0  0  0  0  0
   61.3460   48.4090   97.6190 H   0  0  0  0  0
   62.5370   48.1880   96.3950 H   0  0  0  0  0
   61.7940   44.6960   97.1900 H   0  0  0  0  0
   62.9570   47.6450   94.4000 H   0  0  0  0  0
   62.2160   44.1510   95.2020 H   0  0  0  0  0
   62.6390   48.3200   91.4830 H   0  0  0  0  0
   64.8300   47.7460   91.8380 H   0  0  0  0  0
   64.8810   46.0470   93.3740 H   0  0  0  0  0
   64.2110   51.7300  101.5250 H   0  0  0  0  0
   64.3090   52.2510  102.9420 H   0  0  0  0  0
   62.6780   52.5830  103.7960 H   0  0  0  0  0
   63.7040   53.9920  103.1780 H   0  0  0  0  0
   60.7040   53.9720  100.9080 H   0  0  0  0  0
   60.7790   54.5020  102.3150 H   0  0  0  0  0
   62.4960   54.7520  103.0150 H   0  0  0  0  0
   61.4670   53.3210  103.5750 H   0  0  0  0  0
   61.4770   52.7800   99.3590 H   0  0  0  0  0
  1  5  2  0  0  0
  1  2  1  0  0  0
  1  9  1  0  0  0
  2  3  1  0  0  0
  2 30  1  0  0  0
  3  4  2  0  0  0
  4 12  1  0  0  0
  4  5  1  0  0  0
  5  6  1  0  0  0
  6 11  1  0  0  0
  6  7  2  0  0  0
  7 13  1  0  0  0
  7  8  1  0  0  0
  8  9  2  0  0  0
  8 10  1  0  0  0
 10 38  1  0  0  0
 10 39  1  0  0  0
 10 40  1  0  0  0
 11 41  1  0  0  0
 11 42  1  0  0  0
 11 43  1  0  0  0
 12 44  1  0  0  0
 12 45  1  0  0  0
 12 46  1  0  0  0
 13 14  2  0  0  0
 13 47  1  0  0  0
 14 15  1  0  0  0
 14 48  1  0  0  0
 15 16  1  0  0  0
 15 24  2  0  0  0
 16 17  2  0  0  0
 16 18  1  0  0  0
 17 19  1  0  0  0
 17 49  1  0  0  0
 18 22  2  0  0  0
 18 50  1  0  0  0
 19 20  2  0  0  0
 19 51  1  0  0  0
 20 21  1  0  0  0
 20 22  1  0  0  0
 21 25  1  0  0  0
 21 23  2  0  0  0
 22 52  1  0  0  0
 25 26  1  0  0  0
 25 29  2  0  0  0
 26 27  1  0  0  0
 27 28  2  0  0  0
 27 53  1  0  0  0
 28 29  1  0  0  0
 28 54  1  0  0  0
 29 55  1  0  0  0
 30 37  2  0  0  0
 30 31  1  0  0  0
 31 32  2  0  0  0
 31 56  1  0  0  0
 32 33  1  0  0  0
 32 34  1  0  0  0
 33 35  2  0  0  0
 33 36  1  0  0  0
 34 57  1  0  0  0
 34 58  1  0  0  0
 34 59  1  0  0  0
 35 37  1  0  0  0
 35 60  1  0  0  0
 36 61  1  0  0  0
 36 62  1  0  0  0
 36 63  1  0  0  0
 37 64  1  0  0  0
M  CHG  2  23  -1  24  -1
M  END
>  <COMPND>
    ligand_BC.pdb 

>  <AUTHOR>
    GENERATED BY OPEN BABEL 2.2.1

>  <MASTER>
        0    0    0    0    0    0    0    0   64    0   64    0

$$$$
PMC1IJY_out_4.pdb_24193_ChemDiv_5498-2.pdb
 OpenBabel06131016443D

 55 59  0  0  0  0  0  0  0  0999 V2000
   61.1680   46.2310   98.0220 N   0  0  0  0  0
   61.5490   46.9340   97.4420 C   0  0  0  0  0
   61.4970   46.8000   96.4530 C   0  0  0  0  0
   61.0770   45.9880   96.0470 C   0  0  0  0  0
   60.6890   45.2700   96.6100 C   0  0  0  0  0
   60.7330   45.3890   97.6000 N   0  0  0  0  0
   61.0420   45.8840   95.0180 C   0  0  0  0  0
   61.4300   46.6000   94.4590 C   0  0  0  0  0
   61.8650   47.4430   94.8810 C   0  0  0  0  0
   61.9020   47.5480   95.8510 C   0  0  0  0  0
   61.9730   47.7570   97.8540 C   0  0  0  0  0
   62.9860   47.7850   98.0340 C   0  0  0  0  0
   63.3930   48.5730   98.4290 C   0  0  0  0  0
   62.8080   49.3740   98.6630 C   0  0  0  0  0
   61.8340   49.3480   98.4900 C   0  0  0  0  0
   61.4100   48.5250   98.0780 C   0  0  0  0  0
   63.2060   50.1880   99.0660 O   0  0  0  0  0
   63.5130   50.9080   98.4900 C   0  0  0  0  0
   64.0800   51.6350   98.8690 C   0  0  0  0  0
   63.7090   52.5510   98.9830 N   0  0  0  0  0
   62.7750   52.7400   98.7190 C   0  0  0  0  0
   64.2680   53.2680   99.3570 C   0  0  0  0  0
   62.3790   53.6930   98.8340 C   0  0  0  0  0
   62.9310   54.4020   99.2040 C   0  0  0  0  0
   63.8820   54.1880   99.4670 C   0  0  0  0  0
   65.0280   51.4240   99.1320 O   0  0  0  0  0
   60.2800   44.4780   96.2140 N   0  0  0  0  0
   59.2650   44.3640   96.2710 C   0  0  0  0  0
   58.8210   43.5310   95.9590 C   0  0  0  0  0
   58.7030   42.7700   96.5710 C   0  0  0  0  0
   58.2580   41.9330   96.2590 C   0  0  0  0  0
   57.9380   41.8820   95.3220 C   0  0  0  0  0
   58.0600   42.6580   94.7030 C   0  0  0  0  0
   58.5010   43.4660   95.0410 C   0  0  0  0  0
   60.5830   44.9950   94.5570 H   0  0  0  0  0
   61.4000   46.5020   93.3620 H   0  0  0  0  0
   62.2880   48.2240   94.2300 H   0  0  0  0  0
   62.3640   48.4410   96.3010 H   0  0  0  0  0
   63.6120   46.9160   97.7770 H   0  0  0  0  0
   64.4770   48.6010   98.6220 H   0  0  0  0  0
   61.2080   50.2170   98.7460 H   0  0  0  0  0
   60.3260   48.4950   97.8840 H   0  0  0  0  0
   64.0590   50.4510   97.6000 H   0  0  0  0  0
   62.5450   51.4540   98.2360 H   0  0  0  0  0
   62.1510   51.9350   98.3000 H   0  0  0  0  0
   65.3090   53.0630   99.6530 H   0  0  0  0  0
   61.3380   53.8990   98.5380 H   0  0  0  0  0
   62.5270   55.4190   99.3340 H   0  0  0  0  0
   64.5140   54.9870   99.8870 H   0  0  0  0  0
   58.6520   45.1800   96.6860 H   0  0  0  0  0
   59.0650   42.8420   97.6090 H   0  0  0  0  0
   58.1250   41.0810   96.9440 H   0  0  0  0  0
   57.4450   40.9650   94.9610 H   0  0  0  0  0
   57.7060   42.6060   93.6610 H   0  0  0  0  0
   58.6380   44.3240   94.3640 H   0  0  0  0  0
  1  2  2  0  0  0
  1  6  1  0  0  0
  2  3  1  0  0  0
  2 11  1  0  0  0
  3 10  2  0  0  0
  3  4  1  0  0  0
  4  7  2  0  0  0
  4  5  1  0  0  0
  5 27  1  0  0  0
  5  6  2  0  0  0
  7  8  1  0  0  0
  7 35  1  0  0  0
  8  9  2  0  0  0
  8 36  1  0  0  0
  9 10  1  0  0  0
  9 37  1  0  0  0
 10 38  1  0  0  0
 11 12  2  0  0  0
 11 16  1  0  0  0
 12 13  1  0  0  0
 12 39  1  0  0  0
 13 14  2  0  0  0
 13 40  1  0  0  0
 14 15  1  0  0  0
 14 17  1  0  0  0
 15 16  2  0  0  0
 15 41  1  0  0  0
 16 42  1  0  0  0
 17 18  1  0  0  0
 18 19  1  0  0  0
 18 43  1  0  0  0
 18 44  1  0  0  0
 19 20  1  0  0  0
 19 26  2  0  0  0
 20 21  2  0  0  0
 20 22  1  0  0  0
 21 23  1  0  0  0
 21 45  1  0  0  0
 22 25  2  0  0  0
 22 46  1  0  0  0
 23 24  2  0  0  0
 23 47  1  0  0  0
 24 25  1  0  0  0
 24 48  1  0  0  0
 25 49  1  0  0  0
 27 28  2  0  0  0
 28 29  1  0  0  0
 28 50  1  0  0  0
 29 34  2  0  0  0
 29 30  1  0  0  0
 30 31  2  0  0  0
 30 51  1  0  0  0
 31 32  1  0  0  0
 31 52  1  0  0  0
 32 33  2  0  0  0
 32 53  1  0  0  0
 33 34  1  0  0  0
 33 54  1  0  0  0
 34 55  1  0  0  0
M  CHG  1  26  -1
M  END
>  <COMPND>
    ligand_BC.pdb 

>  <AUTHOR>
    GENERATED BY OPEN BABEL 2.2.1

>  <MASTER>
        0    0    0    0    0    0    0    0   55    0   55    0

$$$$
PMC1IJY_out_4.pdb_24697_ChemDiv_3359-0.pdb
 OpenBabel06131016443D

 55 61  0  0  0  0  0  0  0  0999 V2000
   62.0050   48.4250   97.8270 N   0  0  0  0  0
   61.4000   48.9910   98.1660 C   0  0  0  0  0
   61.8350   49.6560   98.5630 C   0  0  0  0  0
   62.6970   49.5050   98.4720 C   0  0  0  0  0
   62.7930   48.7470   98.0190 C   0  0  0  0  0
   63.5680   48.3630   97.7890 O   0  0  0  0  0
   63.6870   52.1100  100.0270 C   0  0  0  0  0
   63.4130   52.8310  100.4570 C   0  0  0  0  0
   62.5560   52.9810  100.5480 C   0  0  0  0  0
   61.9720   52.4080  100.2060 C   0  0  0  0  0
   62.2490   51.6950   99.7800 C   0  0  0  0  0
   63.1060   51.5450   99.6890 C   0  0  0  0  0
   63.3860   50.8300   99.2630 C   0  0  0  0  0
   62.8140   50.2660   98.9260 C   0  0  0  0  0
   61.9550   50.4100   99.0130 C   0  0  0  0  0
   61.6650   51.1210   99.4380 C   0  0  0  0  0
   62.2760   53.6840  100.9680 C   0  0  0  0  0
   62.8460   54.2550  101.3090 C   0  0  0  0  0
   63.7030   54.1200  101.2270 C   0  0  0  0  0
   63.9940   53.3970  100.7950 C   0  0  0  0  0
   60.5110   48.8990   98.1120 O   0  0  0  0  0
   61.8310   47.6930   97.3900 C   0  0  0  0  0
   61.6550   47.7090   96.5120 C   0  0  0  0  0
   61.3820   46.9990   96.0970 N   0  0  0  0  0
   61.2100   47.0230   95.2280 C   0  0  0  0  0
   61.2700   46.2350   96.5380 C   0  0  0  0  0
   60.9370   46.3140   94.8130 C   0  0  0  0  0
   60.8280   45.5580   95.2550 O   0  0  0  0  0
   60.9970   45.5250   96.1230 C   0  0  0  0  0
   61.8340   48.5580   96.2900 O   0  0  0  0  0
   61.8200   46.9030   97.7960 C   0  0  0  0  0
   61.1440   46.6580   98.3090 C   0  0  0  0  0
   60.9380   45.8020   98.4040 S   0  0  0  0  0
   60.2520   45.5580   98.9050 C   0  0  0  0  0
   63.7980   49.2530   98.3210 H   0  0  0  0  0
   64.7660   51.9180   99.9140 H   0  0  0  0  0
   60.8920   52.5940  100.3180 H   0  0  0  0  0
   64.0950   51.1610   98.4340 H   0  0  0  0  0
   63.8580   50.2200  100.1030 H   0  0  0  0  0
   60.5830   51.3000   99.5460 H   0  0  0  0  0
   61.1940   53.8620  101.0750 H   0  0  0  0  0
   62.4790   55.1460  101.8430 H   0  0  0  0  0
   64.4210   54.8380  101.6540 H   0  0  0  0  0
   65.0750   53.2140  100.6850 H   0  0  0  0  0
   62.1000   48.6020   98.0230 H   0  0  0  0  0
   61.3450   47.9640   94.6710 H   0  0  0  0  0
   61.4800   46.1910   97.6180 H   0  0  0  0  0
   60.7260   46.3560   93.7330 H   0  0  0  0  0
   60.8600   44.5820   96.6760 H   0  0  0  0  0
   62.7810   46.8010   98.4010 H   0  0  0  0  0
   61.6980   46.1960   96.9100 H   0  0  0  0  0
   60.5520   47.4240   98.8350 H   0  0  0  0  0
   60.1590   44.4220   98.8950 H   0  0  0  0  0
   59.2920   46.0360   98.5190 H   0  0  0  0  0
   60.4250   45.9100   99.9750 H   0  0  0  0  0
  1 22  1  0  0  0
  1  5  1  0  0  0
  1  2  1  0  0  0
  2 21  2  0  0  0
  2  3  1  0  0  0
  3  4  1  0  0  0
  3 14  1  0  0  0
  3 15  1  0  0  0
  4  5  1  0  0  0
  4 14  1  0  0  0
  4 35  1  0  0  0
  5  6  2  0  0  0
  7 12  2  0  0  0
  7  8  1  0  0  0
  7 36  1  0  0  0
  8  9  2  0  0  0
  8 20  1  0  0  0
  9 10  1  0  0  0
  9 17  1  0  0  0
 10 11  2  0  0  0
 10 37  1  0  0  0
 11 16  1  0  0  0
 11 12  1  0  0  0
 12 13  1  0  0  0
 13 14  1  0  0  0
 13 38  1  0  0  0
 13 39  1  0  0  0
 14 15  1  0  0  0
 15 16  2  0  0  0
 16 40  1  0  0  0
 17 18  2  0  0  0
 17 41  1  0  0  0
 18 19  1  0  0  0
 18 42  1  0  0  0
 19 20  2  0  0  0
 19 43  1  0  0  0
 20 44  1  0  0  0
 22 23  1  0  0  0
 22 31  1  0  0  0
 22 45  1  0  0  0
 23 24  1  0  0  0
 23 30  2  0  0  0
 24 25  2  0  0  0
 24 26  1  0  0  0
 25 27  1  0  0  0
 25 46  1  0  0  0
 26 29  2  0  0  0
 26 47  1  0  0  0
 27 28  2  0  0  0
 27 48  1  0  0  0
 28 29  1  0  0  0
 29 49  1  0  0  0
 31 32  1  0  0  0
 31 50  1  0  0  0
 31 51  1  0  0  0
 32 33  2  0  0  0
 32 52  1  0  0  0
 33 34  1  0  0  0
 34 53  1  0  0  0
 34 54  1  0  0  0
 34 55  1  0  0  0
M  CHG  3   6  -1  21  -1  30  -1
M  END
>  <COMPND>
    ligand_BC.pdb 

>  <AUTHOR>
    GENERATED BY OPEN BABEL 2.2.1

>  <MASTER>
        0    0    0    0    0    0    0    0   55    0   55    0

$$$$
PMC1IJY_out_4.pdb_24741_ChemDiv_1786-0.pdb
 OpenBabel06131016443D

 50 53  0  0  0  0  0  0  0  0999 V2000
   61.0940   45.5780   95.9310 C   0  0  0  0  0
   61.2490   46.0610   96.7950 C   0  0  0  0  0
   62.0050   46.7180   96.8680 C   0  0  0  0  0
   62.1700   47.2040   97.7210 C   0  0  0  0  0
   61.5720   47.0330   98.5120 C   0  0  0  0  0
   60.8160   46.3770   98.4390 C   0  0  0  0  0
   60.6550   45.8880   97.5740 C   0  0  0  0  0
   62.5970   46.8840   96.0760 C   0  0  0  0  0
   62.4410   46.4000   95.2120 C   0  0  0  0  0
   61.6850   45.7440   95.1390 C   0  0  0  0  0
   60.3380   44.9220   95.8580 S   0  0  0  0  0
   59.7560   45.6360   95.4570 O   0  0  0  0  0
   60.9190   44.2070   96.2590 O   0  0  0  0  0
   59.5850   44.2680   95.7850 N   0  0  0  0  0
   59.3880   43.7830   94.9110 C   0  0  0  0  0
   58.6320   43.1260   94.8380 C   0  0  0  0  0
   58.0600   42.9430   95.6380 C   0  0  0  0  0
   58.2290   43.4040   96.5090 C   0  0  0  0  0
   57.3100   42.2920   95.5650 C   0  0  0  0  0
   58.9850   44.0610   96.5830 C   0  0  0  0  0
   62.9170   47.8530   97.7930 S   0  0  0  0  0
   62.3110   48.5840   97.4930 O   0  0  0  0  0
   63.5230   47.1220   98.0930 O   0  0  0  0  0
   63.6670   48.5040   97.8660 N   0  0  0  0  0
   63.8870   48.9610   98.7450 C   0  0  0  0  0
   64.6150   49.5940   98.8160 C   0  0  0  0  0
   65.1700   49.8100   98.0110 C   0  0  0  0  0
   64.9690   49.3730   97.1420 C   0  0  0  0  0
   65.9100   50.4520   98.0830 C   0  0  0  0  0
   64.2160   48.7190   97.0690 C   0  0  0  0  0
   61.7470   47.5670   99.4590 H   0  0  0  0  0
   60.1620   46.1920   99.3060 H   0  0  0  0  0
   59.8270   45.1660   97.4910 H   0  0  0  0  0
   63.4260   47.6050   96.1560 H   0  0  0  0  0
   63.0960   46.5870   94.3470 H   0  0  0  0  0
   61.5060   45.2090   94.1930 H   0  0  0  0  0
   60.0170   43.9830   94.0290 H   0  0  0  0  0
   58.4340   42.6110   93.8850 H   0  0  0  0  0
   57.5900   43.1930   97.3810 H   0  0  0  0  0
   57.2730   41.8720   94.5060 H   0  0  0  0  0
   56.3220   42.7980   95.8240 H   0  0  0  0  0
   57.4810   41.4390   96.3010 H   0  0  0  0  0
   59.1690   44.5670   97.5440 H   0  0  0  0  0
   63.2840   48.7310   99.6380 H   0  0  0  0  0
   64.8330   50.0770   99.7820 H   0  0  0  0  0
   65.5780   49.6100   96.2550 H   0  0  0  0  0
   66.4170   50.5630   97.0680 H   0  0  0  0  0
   66.6620   50.1010   98.8640 H   0  0  0  0  0
   65.4980   51.4640   98.4090 H   0  0  0  0  0
   63.9970   48.2370   96.1030 H   0  0  0  0  0
  1 10  2  0  0  0
  1 11  1  0  0  0
  1  2  1  0  0  0
  2  3  2  0  0  0
  2  7  1  0  0  0
  3  8  1  0  0  0
  3  4  1  0  0  0
  4 21  1  0  0  0
  4  5  2  0  0  0
  5  6  1  0  0  0
  5 31  1  0  0  0
  6  7  2  0  0  0
  6 32  1  0  0  0
  7 33  1  0  0  0
  8  9  2  0  0  0
  8 34  1  0  0  0
  9 10  1  0  0  0
  9 35  1  0  0  0
 10 36  1  0  0  0
 11 12  2  0  0  0
 11 14  1  0  0  0
 11 13  2  0  0  0
 14 15  2  0  0  0
 14 20  1  0  0  0
 15 16  1  0  0  0
 15 37  1  0  0  0
 16 17  2  0  0  0
 16 38  1  0  0  0
 17 19  1  0  0  0
 17 18  1  0  0  0
 18 20  2  0  0  0
 18 39  1  0  0  0
 19 40  1  0  0  0
 19 41  1  0  0  0
 19 42  1  0  0  0
 20 43  1  0  0  0
 21 22  2  0  0  0
 21 24  1  0  0  0
 21 23  2  0  0  0
 24 30  2  0  0  0
 24 25  1  0  0  0
 25 26  2  0  0  0
 25 44  1  0  0  0
 26 27  1  0  0  0
 26 45  1  0  0  0
 27 28  2  0  0  0
 27 29  1  0  0  0
 28 30  1  0  0  0
 28 46  1  0  0  0
 29 47  1  0  0  0
 29 48  1  0  0  0
 29 49  1  0  0  0
 30 50  1  0  0  0
M  CHG  4  12  -1  13  -1  22  -1  23  -1
M  END
>  <COMPND>
    ligand_BC.pdb 

>  <AUTHOR>
    GENERATED BY OPEN BABEL 2.2.1

>  <MASTER>
        0    0    0    0    0    0    0    0   50    0   50    0

$$$$
PMC1IJY_out_4.pdb_25009_ChemDiv_6141-0.pdb
 OpenBabel06131016443D

 52 55  0  0  0  0  0  0  0  0999 V2000
   61.7380   47.0790   99.6820 N   0  0  0  0  0
   61.5810   47.9500  100.1360 C   0  0  0  0  0
   60.8630   47.8070  100.8300 N   0  0  0  0  0
   60.5920   46.8540  100.7890 C   0  0  0  0  0
   61.1320   46.4050  100.0820 C   0  0  0  0  0
   61.0000   45.4350   99.8930 N   0  0  0  0  0
   60.3210   44.9050  100.4160 C   0  0  0  0  0
   59.7810   45.3540  101.1230 N   0  0  0  0  0
   59.9190   46.3350  101.3100 C   0  0  0  0  0
   59.3770   46.7860  102.0190 N   0  0  0  0  0
   62.0460   48.8100   99.9450 S   0  0  0  0  0
   61.5830   49.5240   99.4250 C   0  0  0  0  0
   62.0990   50.3070   99.0790 C   0  0  0  0  0
   62.7170   50.1960   98.3030 O   0  0  0  0  0
   61.9990   51.2020   99.5070 C   0  0  0  0  0
   62.7700   51.6100  100.0120 O   0  0  0  0  0
   62.6700   52.5080  100.4350 C   0  0  0  0  0
   62.3560   52.5850  101.3860 C   0  0  0  0  0
   62.2570   53.4820  101.8090 C   0  0  0  0  0
   62.4710   54.3150  101.2850 C   0  0  0  0  0
   62.7860   54.2380  100.3330 C   0  0  0  0  0
   62.8850   53.3370   99.9100 C   0  0  0  0  0
   62.4010   46.9190   98.9450 C   0  0  0  0  0
   62.1170   46.9680   97.9900 C   0  0  0  0  0
   62.7300   46.6350   97.2720 O   0  0  0  0  0
   62.4530   46.7040   96.3120 C   0  0  0  0  0
   62.7190   47.5030   95.7720 C   0  0  0  0  0
   62.4440   47.5730   94.8200 C   0  0  0  0  0
   61.9000   46.8440   94.3960 C   0  0  0  0  0
   61.6370   46.0480   94.9410 C   0  0  0  0  0
   61.6150   46.9030   93.4300 C   0  0  0  0  0
   61.9130   45.9810   95.8920 C   0  0  0  0  0
   60.1760   43.8330  100.2070 H   0  0  0  0  0
   59.5220   47.8390  102.2230 H   0  0  0  0  0
   58.6450   46.2210  102.5820 H   0  0  0  0  0
   60.5010   49.4500   99.2320 H   0  0  0  0  0
   61.0920   51.1720  100.1970 H   0  0  0  0  0
   61.9060   51.8930   98.6050 H   0  0  0  0  0
   62.1210   51.6760  101.9620 H   0  0  0  0  0
   61.9130   53.5620  102.8520 H   0  0  0  0  0
   62.3610   55.3060  101.7530 H   0  0  0  0  0
   63.0220   55.1460   99.7560 H   0  0  0  0  0
   63.2300   53.2540   98.8670 H   0  0  0  0  0
   63.4490   46.6880   99.1930 H   0  0  0  0  0
   61.1330   47.3870   97.7270 H   0  0  0  0  0
   63.3170   48.3050   96.2330 H   0  0  0  0  0
   62.7370   48.4540   94.2280 H   0  0  0  0  0
   61.0390   45.2430   94.4850 H   0  0  0  0  0
   62.0050   47.8740   92.9770 H   0  0  0  0  0
   60.4790   46.8590   93.3500 H   0  0  0  0  0
   62.0510   46.0200   92.8560 H   0  0  0  0  0
   61.6200   45.1010   96.4860 H   0  0  0  0  0
  1 23  1  0  0  0
  1  5  1  0  0  0
  1  2  1  0  0  0
  2 11  1  0  0  0
  2  3  2  0  0  0
  3  4  1  0  0  0
  4  5  2  0  0  0
  4  9  1  0  0  0
  5  6  1  0  0  0
  6  7  2  0  0  0
  7  8  1  0  0  0
  7 33  1  0  0  0
  8  9  2  0  0  0
  9 10  1  0  0  0
 10 34  1  0  0  0
 10 35  1  0  0  0
 11 12  2  0  0  0
 12 13  1  0  0  0
 12 36  1  0  0  0
 13 14  2  0  0  0
 13 15  1  0  0  0
 15 16  1  0  0  0
 15 37  1  0  0  0
 15 38  1  0  0  0
 16 17  1  0  0  0
 17 22  2  0  0  0
 17 18  1  0  0  0
 18 19  2  0  0  0
 18 39  1  0  0  0
 19 20  1  0  0  0
 19 40  1  0  0  0
 20 21  2  0  0  0
 20 41  1  0  0  0
 21 22  1  0  0  0
 21 42  1  0  0  0
 22 43  1  0  0  0
 23 24  2  0  0  0
 23 44  1  0  0  0
 24 25  1  0  0  0
 24 45  1  0  0  0
 25 26  1  0  0  0
 26 27  2  0  0  0
 26 32  1  0  0  0
 27 28  1  0  0  0
 27 46  1  0  0  0
 28 29  2  0  0  0
 28 47  1  0  0  0
 29 31  1  0  0  0
 29 30  1  0  0  0
 30 32  2  0  0  0
 30 48  1  0  0  0
 31 49  1  0  0  0
 31 50  1  0  0  0
 31 51  1  0  0  0
 32 52  1  0  0  0
M  CHG  1  14  -1
M  END
>  <COMPND>
    ligand_BC.pdb 

>  <AUTHOR>
    GENERATED BY OPEN BABEL 2.2.1

>  <MASTER>
        0    0    0    0    0    0    0    0   52    0   52    0

$$$$
PMC1IJY_out_4.pdb_24148_ChemDiv_C248-0.pdb
 OpenBabel06131016443D

 56 58  0  0  0  0  0  0  0  0999 V2000
   59.3780   43.9600   96.5900 N   0  0  0  0  0
   59.6390   44.4790   95.7910 C   0  0  0  0  0
   60.1510   45.3230   95.8980 N   0  0  0  0  0
   60.4080   45.6600   96.8080 C   0  0  0  0  0
   60.1470   45.1410   97.6070 C   0  0  0  0  0
   59.6300   44.2890   97.4920 C   0  0  0  0  0
   59.3830   43.7980   98.2480 O   0  0  0  0  0
   60.4030   45.4750   98.5140 N   0  0  0  0  0
   60.9190   46.3270   98.6290 C   0  0  0  0  0
   61.1810   46.8460   97.8300 C   0  0  0  0  0
   60.9240   46.5100   96.9200 N   0  0  0  0  0
   61.6940   47.6930   97.9390 C   0  0  0  0  0
   61.9450   48.0210   98.8420 C   0  0  0  0  0
   61.6840   47.5020   99.6410 C   0  0  0  0  0
   61.1730   46.6580   99.5330 C   0  0  0  0  0
   61.9760   47.9040  100.4850 C   0  0  0  0  0
   59.3960   44.1570   94.9610 O   0  0  0  0  0
   60.3450   45.7080   95.3050 H   0  0  0  0  0
   62.5380   48.9930   99.0170 N   0  0  0  0  0
   62.1170   50.1650   99.1620 C   0  0  0  0  0
   61.0110   50.2860   99.1140 O   0  0  0  0  0
   63.4030   48.8990   99.0540 H   0  0  0  0  0
   62.6790   51.0570   99.3240 C   0  0  0  0  0
   62.9000   51.4260  100.2670 C   0  0  0  0  0
   63.4650   52.3210  100.3600 C   0  0  0  0  0
   63.8000   52.8340   99.4810 C   0  0  0  0  0
   63.5680   52.4480   98.5170 C   0  0  0  0  0
   63.0120   51.5670   98.4370 C   0  0  0  0  0
   58.8710   43.1110   96.5990 C   0  0  0  0  0
   58.5220   43.2560   95.6750 C   0  0  0  0  0
   57.8930   42.4630   95.3550 C   0  0  0  0  0
   57.4410   42.2200   94.7070 C   0  0  0  0  0
   57.8000   42.0850   95.6400 C   0  0  0  0  0
   58.4220   42.9130   95.9010 C   0  0  0  0  0
   61.9860   48.2720   97.0480 H   0  0  0  0  0
   60.8830   46.0800  100.4250 H   0  0  0  0  0
   61.1970   48.3050  101.2140 H   0  0  0  0  0
   62.5750   47.4590  101.3470 H   0  0  0  0  0
   62.5520   50.8940  101.1660 H   0  0  0  0  0
   63.7060   52.7210  101.3580 H   0  0  0  0  0
   64.3850   53.7620   99.5750 H   0  0  0  0  0
   63.9110   52.9730   97.6110 H   0  0  0  0  0
   62.7660   51.1600   97.4430 H   0  0  0  0  0
   59.5880   42.2560   96.8310 H   0  0  0  0  0
   58.0780   43.2700   97.4020 H   0  0  0  0  0
   59.6620   43.2560   95.6750 H   0  0  0  0  0
   58.1410   44.3310   95.6750 H   0  0  0  0  0
   58.1270   42.6980   96.5870 H   0  0  0  0  0
   58.1470   42.7260   94.7380 H   0  0  0  0  0
   56.8600   41.9080   93.8740 H   0  0  0  0  0
   58.9400   42.0850   95.6400 H   0  0  0  0  0
   57.4190   43.1600   95.6400 H   0  0  0  0  0
   57.4050   41.5270   96.5520 H   0  0  0  0  0
   57.4250   41.5550   94.7030 H   0  0  0  0  0
   58.2380   43.9650   95.5020 H   0  0  0  0  0
   58.8010   41.8660   96.1450 H   0  0  0  0  0
  1  2  1  0  0  0
  1 29  1  0  0  0
  1  6  1  0  0  0
  2 17  2  0  0  0
  2  3  1  0  0  0
  3 18  1  0  0  0
  3  4  1  0  0  0
  4 11  2  0  0  0
  4  5  1  0  0  0
  5  6  1  0  0  0
  5  8  2  0  0  0
  6  7  2  0  0  0
  8  9  1  0  0  0
  9 10  2  0  0  0
  9 15  1  0  0  0
 10 11  1  0  0  0
 10 12  1  0  0  0
 12 13  2  0  0  0
 12 35  1  0  0  0
 13 19  1  0  0  0
 13 14  1  0  0  0
 14 15  2  0  0  0
 14 16  1  0  0  0
 15 36  1  0  0  0
 16 19  1  0  0  0
 16 37  1  0  0  0
 16 38  1  0  0  0
 19 22  1  0  0  0
 19 20  1  0  0  0
 20 21  2  0  0  0
 20 23  1  0  0  0
 23 28  2  0  0  0
 23 24  1  0  0  0
 24 25  2  0  0  0
 24 39  1  0  0  0
 25 26  1  0  0  0
 25 40  1  0  0  0
 26 27  2  0  0  0
 26 41  1  0  0  0
 27 28  1  0  0  0
 27 42  1  0  0  0
 28 43  1  0  0  0
 29 34  1  0  0  0
 29 44  1  0  0  0
 29 45  1  0  0  0
 30 46  1  0  0  0
 30 47  1  0  0  0
 30 48  1  0  0  0
 30 49  1  0  0  0
 31 32  3  0  0  0
 31 34  1  0  0  0
 32 50  1  0  0  0
 33 51  1  0  0  0
 33 52  1  0  0  0
 33 53  1  0  0  0
 33 54  1  0  0  0
 34 55  1  0  0  0
 34 56  1  0  0  0
M  CHG  3   7  -1  17  -1  21  -1
M  END
>  <COMPND>
    ligand_BC.pdb 

>  <AUTHOR>
    GENERATED BY OPEN BABEL 2.2.1

>  <MASTER>
        0    0    0    0    0    0    0    0   56    0   56    0

$$$$
PMC1IJY_out_4.pdb_24733_ChemDiv_8008-4.pdb
 OpenBabel06131016443D

 52 60  0  0  0  0  0  0  0  0999 V2000
   61.5370   45.5200   96.4380 N   0  0  0  0  0
   61.6960   46.1140   95.6850 C   0  0  0  0  0
   61.9500   46.9850   96.0360 C   0  0  0  0  0
   62.2920   48.2130   95.4750 C   0  0  0  0  0
   62.5150   48.9610   96.1180 C   0  0  0  0  0
   62.3780   48.4410   96.9370 C   0  0  0  0  0
   62.1470   47.6590   96.3940 C   0  0  0  0  0
   61.9490   46.9330   97.0060 C   0  0  0  0  0
   61.6910   46.0180   97.2570 C   0  0  0  0  0
   61.6040   45.6680   98.2090 O   0  0  0  0  0
   62.1350   47.6700   95.3440 C   0  0  0  0  0
   62.2600   48.1490   94.4940 C   0  0  0  0  0
   62.1130   47.6770   93.6470 C   0  0  0  0  0
   61.8440   46.7340   93.6380 C   0  0  0  0  0
   61.7220   46.2650   94.4810 C   0  0  0  0  0
   61.8670   46.7310   95.3310 C   0  0  0  0  0
   62.5110   48.8590   97.8170 C   0  0  0  0  0
   62.7810   49.8000   97.8850 C   0  0  0  0  0
   62.9220   50.3380   97.0670 C   0  0  0  0  0
   62.7860   49.9040   96.1920 C   0  0  0  0  0
   62.5000   48.9680   94.9030 C   0  0  0  0  0
   62.7150   49.7500   94.3180 N   0  0  0  0  0
   61.6080   45.8560   94.7350 O   0  0  0  0  0
   61.2620   44.5620   96.3860 C   0  0  0  0  0
   60.2980   44.3280   96.3610 C   0  0  0  0  0
   59.8160   44.2860   95.4920 C   0  0  0  0  0
   58.8410   44.0500   95.4620 C   0  0  0  0  0
   58.3530   43.8560   96.3080 C   0  0  0  0  0
   58.8370   43.8970   97.1900 C   0  0  0  0  0
   59.8190   44.1360   97.2080 C   0  0  0  0  0
   62.0350   47.2840   96.0830 H   0  0  0  0  0
   61.9960   47.0390   98.1400 H   0  0  0  0  0
   61.3630   48.3790   94.8960 H   0  0  0  0  0
   63.0540   48.0120   94.7630 H   0  0  0  0  0
   62.2520   48.2120   92.6940 H   0  0  0  0  0
   61.6820   46.2110   92.6820 H   0  0  0  0  0
   61.4200   45.2060   94.4810 H   0  0  0  0  0
   62.3560   48.2670   98.7330 H   0  0  0  0  0
   62.9280   50.2590   98.8760 H   0  0  0  0  0
   63.2230   51.3950   97.1320 H   0  0  0  0  0
   62.0460   50.5330   95.5950 H   0  0  0  0  0
   63.8550   49.8580   95.8000 H   0  0  0  0  0
   62.6150   49.4520   93.2430 H   0  0  0  0  0
   63.7540   50.1140   94.5240 H   0  0  0  0  0
   61.8460   46.7200   94.0960 H   0  0  0  0  0
   61.7720   44.0880   95.4840 H   0  0  0  0  0
   61.5910   44.1540   97.3980 H   0  0  0  0  0
   60.3560   44.5000   94.5560 H   0  0  0  0  0
   58.3130   44.0060   94.4970 H   0  0  0  0  0
   57.2830   43.5960   96.2790 H   0  0  0  0  0
   58.3010   43.6830   98.1280 H   0  0  0  0  0
   60.3570   44.1830   98.1680 H   0  0  0  0  0
  1  2  1  0  0  0
  1 24  1  0  0  0
  1  9  1  0  0  0
  2 23  1  0  0  0
  2 16  1  0  0  0
  2  3  1  0  0  0
  3 16  1  0  0  0
  3  7  1  0  0  0
  3  8  1  0  0  0
  4 12  1  0  0  0
  4 21  1  0  0  0
  4  5  1  0  0  0
  4 31  1  0  0  0
  5 21  1  0  0  0
  5 20  1  0  0  0
  5  6  1  0  0  0
  6  7  1  0  0  0
  6 17  2  0  0  0
  7 11  1  0  0  0
  7  8  1  0  0  0
  8  9  1  0  0  0
  8 32  1  0  0  0
  9 10  2  0  0  0
 11 16  1  0  0  0
 11 33  1  0  0  0
 11 34  1  0  0  0
 12 13  2  0  0  0
 12 21  1  0  0  0
 13 14  1  0  0  0
 13 35  1  0  0  0
 14 15  2  0  0  0
 14 36  1  0  0  0
 15 16  1  0  0  0
 15 37  1  0  0  0
 17 18  1  0  0  0
 17 38  1  0  0  0
 18 19  2  0  0  0
 18 39  1  0  0  0
 19 20  1  0  0  0
 19 40  1  0  0  0
 20 41  1  0  0  0
 20 42  1  0  0  0
 21 22  1  0  0  0
 22 43  1  0  0  0
 22 44  1  0  0  0
 23 45  1  0  0  0
 24 25  1  0  0  0
 24 46  1  0  0  0
 24 47  1  0  0  0
 25 26  2  0  0  0
 25 30  1  0  0  0
 26 27  1  0  0  0
 26 48  1  0  0  0
 27 28  2  0  0  0
 27 49  1  0  0  0
 28 29  1  0  0  0
 28 50  1  0  0  0
 29 30  2  0  0  0
 29 51  1  0  0  0
 30 52  1  0  0  0
M  CHG  1  10  -1
M  END
>  <COMPND>
    ligand_BC.pdb 

>  <AUTHOR>
    GENERATED BY OPEN BABEL 2.2.1

>  <MASTER>
        0    0    0    0    0    0    0    0   52    0   52    0

$$$$
PMC1IJY_out_4.pdb_24741_ChemDiv_1786-0.pdb
 OpenBabel06131016443D

 51 55  0  0  0  0  0  0  0  0999 V2000
   62.2520   47.1320   97.7500 C   0  0  0  0  0
   62.0560   46.6920   96.8710 C   0  0  0  0  0
   61.3270   46.0050   96.8100 C   0  0  0  0  0
   61.1230   45.5610   95.9430 C   0  0  0  0  0
   61.6540   45.8060   95.1240 C   0  0  0  0  0
   62.3830   46.4940   95.1850 C   0  0  0  0  0
   62.5850   46.9390   96.0640 C   0  0  0  0  0
   60.8020   45.7650   97.6300 C   0  0  0  0  0
   60.9980   46.2050   98.5090 C   0  0  0  0  0
   61.7270   46.8920   98.5700 C   0  0  0  0  0
   62.9810   47.8190   97.8100 S   0  0  0  0  0
   63.6400   47.0990   98.0440 O   0  0  0  0  0
   62.3210   48.5400   97.5760 O   0  0  0  0  0
   63.7070   48.5040   97.8710 N   0  0  0  0  0
   63.9230   48.9700   98.7510 C   0  0  0  0  0
   64.6520   49.6580   98.8110 C   0  0  0  0  0
   65.1780   49.8910   97.9930 C   0  0  0  0  0
   64.9890   49.4500   97.1150 C   0  0  0  0  0
   65.9020   50.5720   98.0530 C   0  0  0  0  0
   64.2600   48.7620   97.0540 C   0  0  0  0  0
   60.4030   44.8820   95.8830 S   0  0  0  0  0
   61.0720   44.1590   96.0280 O   0  0  0  0  0
   59.7330   45.6050   95.7390 O   0  0  0  0  0
   59.6790   44.2000   95.8230 N   0  0  0  0  0
   59.3800   43.8230   94.9290 C   0  0  0  0  0
   58.6780   43.1610   94.8710 C   0  0  0  0  0
   58.2300   42.8330   95.7030 C   0  0  0  0  0
   58.5080   43.1900   96.5870 C   0  0  0  0  0
   57.5160   42.1600   95.6440 C   0  0  0  0  0
   59.2350   43.8750   96.6470 C   0  0  0  0  0
   61.4360   45.3190   94.1600 H   0  0  0  0  0
   62.9630   46.7620   94.2870 H   0  0  0  0  0
   63.3850   47.6930   96.1340 H   0  0  0  0  0
   60.0020   45.0110   97.5640 H   0  0  0  0  0
   60.4160   45.9360   99.4040 H   0  0  0  0  0
   61.9490   47.3800   99.5320 H   0  0  0  0  0
   63.3460   48.7140   99.6540 H   0  0  0  0  0
   64.8710   50.1520   99.7710 H   0  0  0  0  0
   65.5760   49.7170   96.2220 H   0  0  0  0  0
   66.3860   50.7040   97.0290 H   0  0  0  0  0
   66.6820   50.2520   98.8200 H   0  0  0  0  0
   65.4550   51.5660   98.3870 H   0  0  0  0  0
   64.0540   48.2770   96.0870 H   0  0  0  0  0
   59.8660   44.1760   94.0060 H   0  0  0  0  0
   58.3710   42.7680   93.8890 H   0  0  0  0  0
   58.0150   42.8310   97.5040 H   0  0  0  0  0
   57.3460   41.8810   94.5520 H   0  0  0  0  0
   56.5540   42.5640   96.1030 H   0  0  0  0  0
   57.8290   41.2300   96.2240 H   0  0  0  0  0
   58.8350   44.7760   97.2200 H   0  0  0  0  0
   60.0720   43.2990   97.1640 H   0  0  0  0  0
  1  2  2  0  0  0
  1 11  1  0  0  0
  1 10  1  0  0  0
  2  7  1  0  0  0
  2  3  1  0  0  0
  3  4  1  0  0  0
  3  8  2  0  0  0
  4  5  2  0  0  0
  4 21  1  0  0  0
  5  6  1  0  0  0
  5 31  1  0  0  0
  6  7  2  0  0  0
  6 32  1  0  0  0
  7 33  1  0  0  0
  8  9  1  0  0  0
  8 34  1  0  0  0
  9 10  2  0  0  0
  9 35  1  0  0  0
 10 36  1  0  0  0
 11 13  2  0  0  0
 11 14  1  0  0  0
 11 12  2  0  0  0
 14 20  2  0  0  0
 14 15  1  0  0  0
 15 16  2  0  0  0
 15 37  1  0  0  0
 16 17  1  0  0  0
 16 38  1  0  0  0
 17 18  2  0  0  0
 17 19  1  0  0  0
 18 20  1  0  0  0
 18 39  1  0  0  0
 19 40  1  0  0  0
 19 41  1  0  0  0
 19 42  1  0  0  0
 20 43  1  0  0  0
 21 23  1  0  0  0
 21 24  1  0  0  0
 21 22  2  0  0  0
 23 24  1  0  0  0
 24 25  1  0  0  0
 24 30  1  0  0  0
 25 26  2  0  0  0
 25 44  1  0  0  0
 26 27  1  0  0  0
 26 45  1  0  0  0
 27 29  1  0  0  0
 27 28  2  0  0  0
 28 30  1  0  0  0
 28 46  1  0  0  0
 29 47  1  0  0  0
 29 48  1  0  0  0
 29 49  1  0  0  0
 30 50  1  0  0  0
 30 51  1  0  0  0
M  CHG  3  12  -1  13  -1  22  -1
M  END
>  <COMPND>
    ligand_BC.pdb 

>  <AUTHOR>
    GENERATED BY OPEN BABEL 2.2.1

>  <MASTER>
        0    0    0    0    0    0    0    0   51    0   51    0

$$$$
PMC1IJY_out_4.pdb_24917_ChemDiv_4802-0.pdb
 OpenBabel06131016443D

 59 63  0  0  0  0  0  0  0  0999 V2000
   64.6300   50.9810   97.7050 C   0  0  0  0  0
   65.4410   51.2730   97.4100 N   0  0  0  0  0
   65.6940   51.9520   96.7020 C   0  0  0  0  0
   66.5280   52.0110   96.6510 C   0  0  0  0  0
   64.8950   52.4500   96.1710 O   0  0  0  0  0
   66.9660   51.4190   97.2770 C   0  0  0  0  0
   67.1970   52.6120   96.0310 C   0  0  0  0  0
   66.3160   50.9850   97.7220 C   0  0  0  0  0
   68.0650   51.3960   97.3150 C   0  0  0  0  0
   66.3530   50.2640   98.4780 O   0  0  0  0  0
   68.5560   51.9030   96.7910 C   0  0  0  0  0
   68.1580   52.6130   96.0420 C   0  0  0  0  0
   64.0680   50.2810   97.2650 C   0  0  0  0  0
   63.3400   50.4740   96.6190 N   0  0  0  0  0
   64.3740   49.3520   97.5940 O   0  0  0  0  0
   62.8090   49.7140   96.2100 C   0  0  0  0  0
   63.1130   49.2020   95.3540 C   0  0  0  0  0
   62.5160   48.4600   95.0250 C   0  0  0  0  0
   61.7030   48.2090   95.4470 C   0  0  0  0  0
   61.4410   48.6910   96.2320 C   0  0  0  0  0
   61.9350   49.4090   96.6240 C   0  0  0  0  0
   61.1610   47.4330   95.0290 S   0  0  0  0  0
   60.6270   46.6850   94.6190 O   0  0  0  0  0
   60.4710   48.1090   94.6930 O   0  0  0  0  0
   61.8520   46.7880   95.3700 N   0  0  0  0  0
   62.4120   46.2770   94.7090 C   0  0  0  0  0
   63.0870   45.6460   95.0470 N   0  0  0  0  0
   62.2350   46.4530   93.7840 N   0  0  0  0  0
   63.6220   45.1600   94.3390 C   0  0  0  0  0
   63.5080   45.2790   93.4000 C   0  0  0  0  0
   62.7630   45.9740   93.1170 C   0  0  0  0  0
   64.0240   51.2370   98.5360 C   0  0  0  0  0
   63.9190   52.2140   98.7740 C   0  0  0  0  0
   64.6120   52.6290   99.3490 C   0  0  0  0  0
   64.5120   53.6260   99.5970 C   0  0  0  0  0
   63.7370   54.1850   99.2740 C   0  0  0  0  0
   63.0480   53.7560   98.6970 C   0  0  0  0  0
   63.1550   52.7090   98.4380 C   0  0  0  0  0
   65.6190   51.5420   97.6230 H   0  0  0  0  0
   66.7160   53.2940   95.3120 H   0  0  0  0  0
   68.5630   50.7200   98.0280 H   0  0  0  0  0
   69.6510   51.8250   96.8880 H   0  0  0  0  0
   68.7850   53.2420   95.3900 H   0  0  0  0  0
   63.1130   51.4980   96.3510 H   0  0  0  0  0
   64.0470   49.4610   94.8310 H   0  0  0  0  0
   62.8240   47.9080   94.1230 H   0  0  0  0  0
   60.4990   48.3950   96.7200 H   0  0  0  0  0
   61.5530   49.9070   97.5290 H   0  0  0  0  0
   61.9920   46.6450   96.4340 H   0  0  0  0  0
   64.3890   44.4440   94.6760 H   0  0  0  0  0
   64.1110   44.7300   92.6600 H   0  0  0  0  0
   62.5790   46.1610   92.0470 H   0  0  0  0  0
   64.4050   50.6770   99.4530 H   0  0  0  0  0
   62.9770   50.9330   98.2030 H   0  0  0  0  0
   65.4680   52.0400   99.7140 H   0  0  0  0  0
   65.2770   54.0950  100.2360 H   0  0  0  0  0
   63.6550   55.2470   99.5540 H   0  0  0  0  0
   62.1890   54.3380   98.3270 H   0  0  0  0  0
   62.4060   52.2130   97.8010 H   0  0  0  0  0
  1 13  1  0  0  0
  1  2  1  0  0  0
  1 32  1  0  0  0
  1 39  1  0  0  0
  2  3  1  0  0  0
  2  8  1  0  0  0
  3  5  2  0  0  0
  3  4  1  0  0  0
  4  7  2  0  0  0
  4  6  1  0  0  0
  6  9  2  0  0  0
  6  8  1  0  0  0
  7 12  1  0  0  0
  7 40  1  0  0  0
  8 10  2  0  0  0
  9 11  1  0  0  0
  9 41  1  0  0  0
 11 12  2  0  0  0
 11 42  1  0  0  0
 12 43  1  0  0  0
 13 14  1  0  0  0
 13 15  2  0  0  0
 14 16  1  0  0  0
 14 44  1  0  0  0
 16 17  2  0  0  0
 16 21  1  0  0  0
 17 18  1  0  0  0
 17 45  1  0  0  0
 18 19  2  0  0  0
 18 46  1  0  0  0
 19 22  1  0  0  0
 19 20  1  0  0  0
 20 21  2  0  0  0
 20 47  1  0  0  0
 21 48  1  0  0  0
 22 23  2  0  0  0
 22 24  2  0  0  0
 22 25  1  0  0  0
 25 26  1  0  0  0
 25 49  1  0  0  0
 26 28  2  0  0  0
 26 27  1  0  0  0
 27 29  2  0  0  0
 28 31  1  0  0  0
 29 30  1  0  0  0
 29 50  1  0  0  0
 30 31  2  0  0  0
 30 51  1  0  0  0
 31 52  1  0  0  0
 32 33  1  0  0  0
 32 53  1  0  0  0
 32 54  1  0  0  0
 33 38  2  0  0  0
 33 34  1  0  0  0
 34 35  2  0  0  0
 34 55  1  0  0  0
 35 36  1  0  0  0
 35 56  1  0  0  0
 36 37  2  0  0  0
 36 57  1  0  0  0
 37 38  1  0  0  0
 37 58  1  0  0  0
 38 59  1  0  0  0
M  CHG  5   5  -1  10  -1  15  -1  23  -1  24  -1
M  END
>  <COMPND>
    ligand_BC.pdb 

>  <AUTHOR>
    GENERATED BY OPEN BABEL 2.2.1

>  <MASTER>
        0    0    0    0    0    0    0    0   59    0   59    0

$$$$
PMC1IJY_out_4.pdb_24162_ChemDiv_C919-0.pdb
 OpenBabel06131016443D

 53 57  0  0  0  0  0  0  0  0999 V2000
   62.6410   51.4010   99.6480 C   0  0  0  0  0
   62.7420   52.3660   99.8880 N   0  0  0  0  0
   63.0730   52.8570   99.0800 N   0  0  0  0  0
   63.1760   52.1880   98.3370 C   0  0  0  0  0
   62.9100   51.2920   98.6900 C   0  0  0  0  0
   62.8750   50.3850   98.2670 C   0  0  0  0  0
   62.5750   49.5940   98.7910 C   0  0  0  0  0
   62.3070   49.7040   99.7480 C   0  0  0  0  0
   62.3400   50.6040  100.1770 N   0  0  0  0  0
   62.0070   48.9130  100.2770 C   0  0  0  0  0
   63.1430   50.2760   97.3090 C   0  0  0  0  0
   63.4910   52.3910   97.4130 C   0  0  0  0  0
   62.5420   48.6950   98.3670 C   0  0  0  0  0
   61.7060   48.3910   97.9080 C   0  0  0  0  0
   61.6590   47.4760   97.5080 C   0  0  0  0  0
   61.6330   47.3650   96.5150 N   0  0  0  0  0
   61.5850   46.4970   96.0220 C   0  0  0  0  0
   61.6490   48.0980   95.8420 C   0  0  0  0  0
   61.5730   46.6980   95.0400 C   0  0  0  0  0
   61.5520   45.5480   96.3390 C   0  0  0  0  0
   61.6120   47.6900   94.9280 C   0  0  0  0  0
   61.5270   45.9480   94.3740 C   0  0  0  0  0
   61.4940   45.0000   94.6940 C   0  0  0  0  0
   61.5070   44.8080   95.6720 C   0  0  0  0  0
   61.6370   46.6670   98.1030 O   0  0  0  0  0
   62.5470   52.7760  100.7790 C   0  0  0  0  0
   63.2630   52.8300  101.4700 C   0  0  0  0  0
   63.0640   53.2410  102.3590 C   0  0  0  0  0
   62.1490   53.6000  102.5600 C   0  0  0  0  0
   61.4340   53.5420  101.8590 C   0  0  0  0  0
   61.6330   53.1310  100.9710 C   0  0  0  0  0
   62.0370   47.9820   99.6200 H   0  0  0  0  0
   60.9520   49.0810  100.6750 H   0  0  0  0  0
   62.7080   48.7680  101.1640 H   0  0  0  0  0
   63.4530   51.2870   96.8830 H   0  0  0  0  0
   62.2800   49.8410   96.7050 H   0  0  0  0  0
   64.0250   49.5560   97.2460 H   0  0  0  0  0
   63.5040   51.4320   96.7960 H   0  0  0  0  0
   64.5320   52.8540   97.4440 H   0  0  0  0  0
   62.7780   53.1380   96.9300 H   0  0  0  0  0
   63.4230   48.0350   98.4020 H   0  0  0  0  0
   60.8370   49.0650   97.8440 H   0  0  0  0  0
   61.6990   49.1760   96.0650 H   0  0  0  0  0
   61.5650   45.3230   97.4170 H   0  0  0  0  0
   61.6140   48.2370   93.9720 H   0  0  0  0  0
   61.5130   46.1680   93.2950 H   0  0  0  0  0
   61.4440   44.1730   93.9680 H   0  0  0  0  0
   61.4710   43.7640   96.0210 H   0  0  0  0  0
   64.2700   52.4380  101.2550 H   0  0  0  0  0
   63.8550   53.3000  103.1230 H   0  0  0  0  0
   61.9320   54.0530  103.5400 H   0  0  0  0  0
   60.4260   53.9330  102.0690 H   0  0  0  0  0
   60.8450   53.0690  100.2040 H   0  0  0  0  0
  1  5  2  0  0  0
  1  2  1  0  0  0
  1  9  1  0  0  0
  2  3  1  0  0  0
  2 26  1  0  0  0
  3  4  2  0  0  0
  4 12  1  0  0  0
  4  5  1  0  0  0
  5  6  1  0  0  0
  6 11  1  0  0  0
  6  7  2  0  0  0
  7 13  1  0  0  0
  7  8  1  0  0  0
  8  9  2  0  0  0
  8 10  1  0  0  0
 10 32  1  0  0  0
 10 33  1  0  0  0
 10 34  1  0  0  0
 11 35  1  0  0  0
 11 36  1  0  0  0
 11 37  1  0  0  0
 12 38  1  0  0  0
 12 39  1  0  0  0
 12 40  1  0  0  0
 13 14  2  0  0  0
 13 41  1  0  0  0
 14 15  1  0  0  0
 14 42  1  0  0  0
 15 16  1  0  0  0
 15 25  2  0  0  0
 16 18  1  0  0  0
 16 17  1  0  0  0
 17 19  2  0  0  0
 17 20  1  0  0  0
 18 21  2  0  0  0
 18 43  1  0  0  0
 19 22  1  0  0  0
 19 21  1  0  0  0
 20 24  2  0  0  0
 20 44  1  0  0  0
 21 45  1  0  0  0
 22 23  2  0  0  0
 22 46  1  0  0  0
 23 24  1  0  0  0
 23 47  1  0  0  0
 24 48  1  0  0  0
 26 31  2  0  0  0
 26 27  1  0  0  0
 27 28  2  0  0  0
 27 49  1  0  0  0
 28 29  1  0  0  0
 28 50  1  0  0  0
 29 30  2  0  0  0
 29 51  1  0  0  0
 30 31  1  0  0  0
 30 52  1  0  0  0
 31 53  1  0  0  0
M  CHG  1  25  -1
M  END
>  <COMPND>
    ligand_BC.pdb 

>  <AUTHOR>
    GENERATED BY OPEN BABEL 2.2.1

>  <MASTER>
        0    0    0    0    0    0    0    0   53    0   53    0

$$$$
PMC1IJY_out_4.pdb_24288_ChemDiv_K284-6.pdb
 OpenBabel06131016443D

 66 68  0  0  0  0  0  0  0  0999 V2000
   62.5480   47.3600   98.1240 N   0  0  0  0  0
   63.0210   48.1630   97.7740 C   0  0  0  0  0
   63.2140   48.2410   96.7920 N   0  0  0  0  0
   62.9310   47.5160   96.1680 C   0  0  0  0  0
   62.4570   46.7130   96.5180 C   0  0  0  0  0
   62.2640   46.6320   97.4930 C   0  0  0  0  0
   61.7910   45.8280   97.8430 O   0  0  0  0  0
   62.1750   45.9880   95.8950 C   0  0  0  0  0
   62.3680   46.0710   94.9250 C   0  0  0  0  0
   62.8420   46.8740   94.5750 C   0  0  0  0  0
   63.1240   47.5980   95.1940 C   0  0  0  0  0
   62.3550   47.2800   99.1030 C   0  0  0  0  0
   61.4510   47.4940   99.4620 C   0  0  0  0  0
   61.2710   47.4670  100.4430 C   0  0  0  0  0
   60.9280   46.6320  100.8570 C   0  0  0  0  0
   60.7470   46.6030  101.8410 C   0  0  0  0  0
   60.9130   47.4160  102.4060 C   0  0  0  0  0
   61.2590   48.2520  101.9820 C   0  0  0  0  0
   61.4370   48.2800  101.0080 C   0  0  0  0  0
   60.3970   45.7530  102.2640 O   0  0  0  0  0
   59.4150   45.5460  102.2150 C   0  0  0  0  0
   60.7320   47.3890  103.4000 O   0  0  0  0  0
   61.4790   47.1920  104.0290 C   0  0  0  0  0
   63.3100   48.8990   98.3970 S   0  0  0  0  0
   62.8120   49.7650   98.4270 C   0  0  0  0  0
   63.1580   50.5240   98.9730 C   0  0  0  0  0
   63.8360   51.1460   98.5910 O   0  0  0  0  0
   62.8240   50.6580   99.9030 N   0  0  0  0  0
   63.1700   51.4200  100.4560 C   0  0  0  0  0
   62.7360   51.6440  101.3250 C   0  0  0  0  0
   63.2520   52.1290  102.0260 O   0  0  0  0  0
   62.7640   52.6160  102.7550 C   0  0  0  0  0
   61.9690   49.8750   97.9110 C   0  0  0  0  0
   61.9860   50.3200   97.0110 C   0  0  0  0  0
   62.0840   45.3400   94.2850 O   0  0  0  0  0
   62.6330   44.5130   94.1920 C   0  0  0  0  0
   63.0390   46.9590   93.5790 O   0  0  0  0  0
   62.4330   47.5000   92.9960 C   0  0  0  0  0
   61.6520   45.0990   96.2810 H   0  0  0  0  0
   63.6470   48.4860   94.8060 H   0  0  0  0  0
   63.1510   46.9520   99.7900 H   0  0  0  0  0
   60.6400   47.7640   98.7670 H   0  0  0  0  0
   60.7470   45.7410  100.2350 H   0  0  0  0  0
   61.4430   49.1450  102.6000 H   0  0  0  0  0
   61.8170   49.2040  100.5440 H   0  0  0  0  0
   59.2080   44.5560  102.7420 H   0  0  0  0  0
   59.0770   45.4930  101.1280 H   0  0  0  0  0
   58.8310   46.3760  102.7340 H   0  0  0  0  0
   61.0880   47.2040  105.1000 H   0  0  0  0  0
   62.3130   47.9600  103.9050 H   0  0  0  0  0
   61.9030   46.1600  103.7960 H   0  0  0  0  0
   64.0300   52.0100  100.1030 H   0  0  0  0  0
   62.3230   50.6840  101.7800 H   0  0  0  0  0
   61.9530   52.4130  101.0190 H   0  0  0  0  0
   63.5180   53.1050  103.4560 H   0  0  0  0  0
   62.0970   51.8950  103.3330 H   0  0  0  0  0
   62.1050   53.4230  102.2910 H   0  0  0  0  0
   61.0170   49.5090   98.3270 H   0  0  0  0  0
   62.9380   50.6860   96.5960 H   0  0  0  0  0
   61.0520   50.4420   96.4390 H   0  0  0  0  0
   62.1490   43.8190   93.4290 H   0  0  0  0  0
   62.7280   43.9870   95.1990 H   0  0  0  0  0
   63.6770   44.7950   93.8330 H   0  0  0  0  0
   62.8160   47.4750   91.9230 H   0  0  0  0  0
   62.3800   48.5750   93.3720 H   0  0  0  0  0
   61.3840   47.0550   93.0300 H   0  0  0  0  0
  1  6  1  0  0  0
  1  2  1  0  0  0
  1 12  1  0  0  0
  2  3  2  0  0  0
  2 24  1  0  0  0
  3  4  1  0  0  0
  4 11  2  0  0  0
  4  5  1  0  0  0
  5  8  2  0  0  0
  5  6  1  0  0  0
  6  7  2  0  0  0
  8  9  1  0  0  0
  8 39  1  0  0  0
  9 35  1  0  0  0
  9 10  2  0  0  0
 10 37  1  0  0  0
 10 11  1  0  0  0
 11 40  1  0  0  0
 12 13  2  0  0  0
 12 41  1  0  0  0
 13 14  1  0  0  0
 13 42  1  0  0  0
 14 15  2  0  0  0
 14 19  1  0  0  0
 15 16  1  0  0  0
 15 43  1  0  0  0
 16 20  1  0  0  0
 16 17  2  0  0  0
 17 18  1  0  0  0
 17 22  1  0  0  0
 18 19  2  0  0  0
 18 44  1  0  0  0
 19 45  1  0  0  0
 20 21  1  0  0  0
 21 46  1  0  0  0
 21 47  1  0  0  0
 21 48  1  0  0  0
 22 23  1  0  0  0
 23 49  1  0  0  0
 23 50  1  0  0  0
 23 51  1  0  0  0
 24 25  2  0  0  0
 25 33  1  0  0  0
 25 26  1  0  0  0
 26 27  2  0  0  0
 26 28  1  0  0  0
 28 29  2  0  0  0
 29 30  1  0  0  0
 29 52  1  0  0  0
 30 31  1  0  0  0
 30 53  1  0  0  0
 30 54  1  0  0  0
 31 32  1  0  0  0
 32 55  1  0  0  0
 32 56  1  0  0  0
 32 57  1  0  0  0
 33 34  2  0  0  0
 33 58  1  0  0  0
 34 59  1  0  0  0
 34 60  1  0  0  0
 35 36  1  0  0  0
 36 61  1  0  0  0
 36 62  1  0  0  0
 36 63  1  0  0  0
 37 38  1  0  0  0
 38 64  1  0  0  0
 38 65  1  0  0  0
 38 66  1  0  0  0
M  CHG  2   7  -1  27  -1
M  END
>  <COMPND>
    ligand_BC.pdb 

>  <AUTHOR>
    GENERATED BY OPEN BABEL 2.2.1

>  <MASTER>
        0    0    0    0    0    0    0    0   66    0   66    0

$$$$
PMC1IJY_out_4.pdb_24741_ChemDiv_1786-0.pdb
 OpenBabel06131016443D

 50 53  0  0  0  0  0  0  0  0999 V2000
   61.0940   45.5780   95.9310 C   0  0  0  0  0
   61.2490   46.0610   96.7950 C   0  0  0  0  0
   62.0050   46.7180   96.8680 C   0  0  0  0  0
   62.1700   47.2040   97.7210 C   0  0  0  0  0
   61.5720   47.0330   98.5120 C   0  0  0  0  0
   60.8160   46.3770   98.4390 C   0  0  0  0  0
   60.6550   45.8880   97.5740 C   0  0  0  0  0
   62.5970   46.8840   96.0760 C   0  0  0  0  0
   62.4410   46.4000   95.2120 C   0  0  0  0  0
   61.6850   45.7440   95.1390 C   0  0  0  0  0
   60.3380   44.9220   95.8580 S   0  0  0  0  0
   59.7560   45.6360   95.4570 O   0  0  0  0  0
   60.9190   44.2070   96.2590 O   0  0  0  0  0
   59.5850   44.2680   95.7850 N   0  0  0  0  0
   59.3880   43.7830   94.9110 C   0  0  0  0  0
   58.6320   43.1260   94.8380 C   0  0  0  0  0
   58.0600   42.9430   95.6380 C   0  0  0  0  0
   58.2290   43.4040   96.5090 C   0  0  0  0  0
   57.3100   42.2920   95.5650 C   0  0  0  0  0
   58.9850   44.0610   96.5830 C   0  0  0  0  0
   62.9170   47.8530   97.7930 S   0  0  0  0  0
   62.3110   48.5840   97.4930 O   0  0  0  0  0
   63.5230   47.1220   98.0930 O   0  0  0  0  0
   63.6670   48.5040   97.8660 N   0  0  0  0  0
   63.8870   48.9610   98.7450 C   0  0  0  0  0
   64.6150   49.5940   98.8160 C   0  0  0  0  0
   65.1700   49.8100   98.0110 C   0  0  0  0  0
   64.9690   49.3730   97.1420 C   0  0  0  0  0
   65.9100   50.4520   98.0830 C   0  0  0  0  0
   64.2160   48.7190   97.0690 C   0  0  0  0  0
   61.7470   47.5670   99.4590 H   0  0  0  0  0
   60.1620   46.1920   99.3060 H   0  0  0  0  0
   59.8270   45.1660   97.4910 H   0  0  0  0  0
   63.4260   47.6050   96.1560 H   0  0  0  0  0
   63.0960   46.5870   94.3470 H   0  0  0  0  0
   61.5060   45.2090   94.1930 H   0  0  0  0  0
   60.0170   43.9830   94.0290 H   0  0  0  0  0
   58.4340   42.6110   93.8850 H   0  0  0  0  0
   57.5900   43.1930   97.3810 H   0  0  0  0  0
   57.2730   41.8720   94.5060 H   0  0  0  0  0
   56.3220   42.7980   95.8240 H   0  0  0  0  0
   57.4810   41.4390   96.3010 H   0  0  0  0  0
   59.1690   44.5670   97.5440 H   0  0  0  0  0
   63.2840   48.7310   99.6380 H   0  0  0  0  0
   64.8330   50.0770   99.7820 H   0  0  0  0  0
   65.5780   49.6100   96.2550 H   0  0  0  0  0
   66.4170   50.5630   97.0680 H   0  0  0  0  0
   66.6620   50.1010   98.8640 H   0  0  0  0  0
   65.4980   51.4640   98.4090 H   0  0  0  0  0
   63.9970   48.2370   96.1030 H   0  0  0  0  0
  1 10  2  0  0  0
  1 11  1  0  0  0
  1  2  1  0  0  0
  2  3  2  0  0  0
  2  7  1  0  0  0
  3  8  1  0  0  0
  3  4  1  0  0  0
  4 21  1  0  0  0
  4  5  2  0  0  0
  5  6  1  0  0  0
  5 31  1  0  0  0
  6  7  2  0  0  0
  6 32  1  0  0  0
  7 33  1  0  0  0
  8  9  2  0  0  0
  8 34  1  0  0  0
  9 10  1  0  0  0
  9 35  1  0  0  0
 10 36  1  0  0  0
 11 12  2  0  0  0
 11 14  1  0  0  0
 11 13  2  0  0  0
 14 15  2  0  0  0
 14 20  1  0  0  0
 15 16  1  0  0  0
 15 37  1  0  0  0
 16 17  2  0  0  0
 16 38  1  0  0  0
 17 19  1  0  0  0
 17 18  1  0  0  0
 18 20  2  0  0  0
 18 39  1  0  0  0
 19 40  1  0  0  0
 19 41  1  0  0  0
 19 42  1  0  0  0
 20 43  1  0  0  0
 21 22  2  0  0  0
 21 24  1  0  0  0
 21 23  2  0  0  0
 24 30  2  0  0  0
 24 25  1  0  0  0
 25 26  2  0  0  0
 25 44  1  0  0  0
 26 27  1  0  0  0
 26 45  1  0  0  0
 27 28  2  0  0  0
 27 29  1  0  0  0
 28 30  1  0  0  0
 28 46  1  0  0  0
 29 47  1  0  0  0
 29 48  1  0  0  0
 29 49  1  0  0  0
 30 50  1  0  0  0
M  CHG  4  12  -1  13  -1  22  -1  23  -1
M  END
>  <COMPND>
    ligand_BC.pdb 

>  <AUTHOR>
    GENERATED BY OPEN BABEL 2.2.1

>  <MASTER>
        0    0    0    0    0    0    0    0   50    0   50    0

$$$$
PMC1IJY_out_4.pdb_24289_ChemDiv_8015-7.pdb
 OpenBabel06131016443D

 52 58  0  0  0  0  0  0  0  0999 V2000
   61.0420   45.3830   96.2280 C   0  0  0  0  0
   60.3100   45.0310   96.7650 N   0  0  0  0  0
   59.6640   44.4630   96.3810 C   0  0  0  0  0
   59.7220   44.2200   95.4390 C   0  0  0  0  0
   61.0990   45.1390   95.2850 C   0  0  0  0  0
   61.8170   45.4780   94.7400 C   0  0  0  0  0
   62.4930   46.0690   95.1300 C   0  0  0  0  0
   62.4360   46.3130   96.0720 C   0  0  0  0  0
   61.7180   45.9710   96.6080 C   0  0  0  0  0
   61.6610   46.2140   97.5470 N   0  0  0  0  0
   62.3310   46.8060   97.9520 C   0  0  0  0  0
   62.2740   47.0480   98.8900 O   0  0  0  0  0
   60.9280   45.8640   98.0920 C   0  0  0  0  0
   60.2530   45.2740   97.7040 C   0  0  0  0  0
   59.0110   43.5920   95.0110 C   0  0  0  0  0
   58.2520   43.2360   95.5910 C   0  0  0  0  0
   58.1940   43.4850   96.5570 C   0  0  0  0  0
   58.8910   44.1020   96.9830 C   0  0  0  0  0
   57.5650   42.6270   95.1720 C   0  0  0  0  0
   63.0610   47.1480   97.3900 C   0  0  0  0  0
   63.3690   48.0680   97.5280 N   0  0  0  0  0
   62.9160   48.8110   97.0980 C   0  0  0  0  0
   63.2340   49.7260   97.2450 C   0  0  0  0  0
   64.0050   49.8920   97.8210 N   0  0  0  0  0
   64.4580   49.1490   98.2500 C   0  0  0  0  0
   64.1480   48.2270   98.1110 C   0  0  0  0  0
   64.3230   50.8070   97.9670 C   0  0  0  0  0
   63.9720   51.3340   98.7060 C   0  0  0  0  0
   64.2910   52.2490   98.8520 C   0  0  0  0  0
   63.9400   52.7830   99.5950 Cl  0  0  0  0  0
   64.9560   52.6270   98.2610 C   0  0  0  0  0
   65.3070   52.0930   97.5180 C   0  0  0  0  0
   64.9880   51.1850   97.3760 C   0  0  0  0  0
   61.8780   45.2000   93.6760 H   0  0  0  0  0
   63.3150   46.4570   94.5070 H   0  0  0  0  0
   63.1920   46.9780   96.5180 H   0  0  0  0  0
   60.8630   46.1390   99.1570 H   0  0  0  0  0
   59.0780   43.3160   93.9470 H   0  0  0  0  0
   57.3690   43.0900   97.1710 H   0  0  0  0  0
   57.8150   42.4720   94.0710 H   0  0  0  0  0
   56.5220   43.0740   95.2810 H   0  0  0  0  0
   57.5820   41.6200   95.7050 H   0  0  0  0  0
   63.9540   46.4460   97.4850 H   0  0  0  0  0
   62.5970   47.1800   96.3490 H   0  0  0  0  0
   62.0470   48.6260   96.4470 H   0  0  0  0  0
   62.7200   50.5700   96.7590 H   0  0  0  0  0
   65.3270   49.3410   98.8990 H   0  0  0  0  0
   64.6630   47.3840   98.5990 H   0  0  0  0  0
   63.2150   50.9010   99.3790 H   0  0  0  0  0
   65.3180   53.6550   98.4220 H   0  0  0  0  0
   66.0640   52.5220   96.8420 H   0  0  0  0  0
   65.3850   50.5870   96.5410 H   0  0  0  0  0
  1  5  2  0  0  0
  1  9  1  0  0  0
  1  2  1  0  0  0
  2  3  1  0  0  0
  2 14  1  0  0  0
  3  4  2  0  0  0
  3 18  1  0  0  0
  4 15  1  0  0  0
  4  5  1  0  0  0
  5  6  1  0  0  0
  6  7  2  0  0  0
  6 34  1  0  0  0
  7  8  1  0  0  0
  7 35  1  0  0  0
  8  9  2  0  0  0
  8 36  1  0  0  0
  9 10  1  0  0  0
 10 11  1  0  0  0
 10 13  1  0  0  0
 11 20  1  0  0  0
 11 12  2  0  0  0
 13 14  2  0  0  0
 13 37  1  0  0  0
 14 18  1  0  0  0
 15 16  2  0  0  0
 15 38  1  0  0  0
 16 19  1  0  0  0
 16 17  1  0  0  0
 17 18  2  0  0  0
 17 39  1  0  0  0
 19 40  1  0  0  0
 19 41  1  0  0  0
 19 42  1  0  0  0
 20 21  1  0  0  0
 20 43  1  0  0  0
 20 44  1  0  0  0
 21 22  2  0  0  0
 21 26  1  0  0  0
 22 23  1  0  0  0
 22 45  1  0  0  0
 23 24  2  0  0  0
 23 46  1  0  0  0
 24 27  1  0  0  0
 24 25  1  0  0  0
 25 26  2  0  0  0
 25 47  1  0  0  0
 26 48  1  0  0  0
 27 33  2  0  0  0
 27 28  1  0  0  0
 28 29  2  0  0  0
 28 49  1  0  0  0
 29 31  1  0  0  0
 29 30  1  0  0  0
 31 32  2  0  0  0
 31 50  1  0  0  0
 32 33  1  0  0  0
 32 51  1  0  0  0
 33 52  1  0  0  0
M  CHG  1  12  -1
M  END
>  <COMPND>
    ligand_BC.pdb 

>  <AUTHOR>
    GENERATED BY OPEN BABEL 2.2.1

>  <MASTER>
        0    0    0    0    0    0    0    0   52    0   52    0

$$$$
PMC1IJY_out_4.pdb_24103_ChemDiv_8016-2.pdb
 OpenBabel06131016443D

 54 57  0  0  0  0  0  0  0  0999 V2000
   61.2220   45.8290   98.4540 N   0  0  0  0  0
   60.7260   46.6040   98.8580 C   0  0  0  0  0
   60.1700   47.2100   98.2660 O   0  0  0  0  0
   60.7740   46.7850   99.8430 C   0  0  0  0  0
   61.4640   47.4110  100.2170 C   0  0  0  0  0
   61.5040   47.5840  101.1980 C   0  0  0  0  0
   60.8510   47.1320  101.8190 C   0  0  0  0  0
   60.1600   46.5070  101.4450 C   0  0  0  0  0
   60.1150   46.3280  100.4610 C   0  0  0  0  0
   62.1170   47.8620   99.5960 C   0  0  0  0  0
   61.9690   48.8090   99.3260 C   0  0  0  0  0
   62.6910   49.3180   98.8530 C   0  0  0  0  0
   62.7080   49.3550   97.8540 C   0  0  0  0  0
   63.4280   49.8620   97.3850 C   0  0  0  0  0
   64.1360   50.3360   97.9150 C   0  0  0  0  0
   64.1110   50.2940   98.9300 C   0  0  0  0  0
   63.3930   49.7880   99.3870 C   0  0  0  0  0
   61.1710   45.6530   97.4660 C   0  0  0  0  0
   61.7860   46.0110   96.7740 C   0  0  0  0  0
   61.4960   45.6720   95.8780 N   0  0  0  0  0
   62.5680   46.6150   96.9470 O   0  0  0  0  0
   60.6860   45.0930   96.0350 N   0  0  0  0  0
   60.4920   45.0860   97.0080 C   0  0  0  0  0
   60.1700   44.6120   95.3260 C   0  0  0  0  0
   59.7330   44.5870   97.4600 C   0  0  0  0  0
   61.9180   45.8620   95.0090 C   0  0  0  0  0
   62.6450   45.2680   94.6570 C   0  0  0  0  0
   63.0650   45.4560   93.7910 C   0  0  0  0  0
   62.7620   46.2500   93.2550 C   0  0  0  0  0
   62.0410   46.8380   93.6050 C   0  0  0  0  0
   61.6240   46.6360   94.4840 C   0  0  0  0  0
   61.8140   45.1800   99.0870 H   0  0  0  0  0
   62.2630   48.2710  101.6040 H   0  0  0  0  0
   60.8950   47.3230  102.9030 H   0  0  0  0  0
   59.4450   46.0140  102.1230 H   0  0  0  0  0
   59.3560   45.6410  100.0550 H   0  0  0  0  0
   62.9910   47.3090   99.2170 H   0  0  0  0  0
   61.0080   49.2990   99.5480 H   0  0  0  0  0
   61.9310   48.8360   97.2710 H   0  0  0  0  0
   63.4460   49.9010   96.2840 H   0  0  0  0  0
   64.9330   50.8970   97.4010 H   0  0  0  0  0
   64.8830   50.8110   99.5220 H   0  0  0  0  0
   63.3680   49.7430  100.4870 H   0  0  0  0  0
   60.6400   44.8170   94.3080 H   0  0  0  0  0
   59.0810   44.9490   95.3330 H   0  0  0  0  0
   60.2010   43.4920   95.5350 H   0  0  0  0  0
   59.1250   44.0270   96.6750 H   0  0  0  0  0
   59.0660   45.3150   98.0300 H   0  0  0  0  0
   60.1660   43.8380   98.2030 H   0  0  0  0  0
   62.9740   44.3980   95.2470 H   0  0  0  0  0
   63.8640   44.8010   93.4080 H   0  0  0  0  0
   63.2280   46.4690   92.2810 H   0  0  0  0  0
   61.7060   47.7100   93.0210 H   0  0  0  0  0
   60.8250   47.2870   94.8720 H   0  0  0  0  0
  1 18  1  0  0  0
  1  2  1  0  0  0
  1 32  1  0  0  0
  2  3  2  0  0  0
  2  4  1  0  0  0
  4  5  2  0  0  0
  4  9  1  0  0  0
  5 10  1  0  0  0
  5  6  1  0  0  0
  6  7  2  0  0  0
  6 33  1  0  0  0
  7  8  1  0  0  0
  7 34  1  0  0  0
  8  9  2  0  0  0
  8 35  1  0  0  0
  9 36  1  0  0  0
 10 11  2  0  0  0
 10 37  1  0  0  0
 11 12  1  0  0  0
 11 38  1  0  0  0
 12 13  2  0  0  0
 12 17  1  0  0  0
 13 14  1  0  0  0
 13 39  1  0  0  0
 14 15  2  0  0  0
 14 40  1  0  0  0
 15 16  1  0  0  0
 15 41  1  0  0  0
 16 17  2  0  0  0
 16 42  1  0  0  0
 17 43  1  0  0  0
 18 19  1  0  0  0
 18 23  2  0  0  0
 19 20  1  0  0  0
 19 21  2  0  0  0
 20 26  1  0  0  0
 20 22  1  0  0  0
 22 24  1  0  0  0
 22 23  1  0  0  0
 23 25  1  0  0  0
 24 44  1  0  0  0
 24 45  1  0  0  0
 24 46  1  0  0  0
 25 47  1  0  0  0
 25 48  1  0  0  0
 25 49  1  0  0  0
 26 31  2  0  0  0
 26 27  1  0  0  0
 27 28  2  0  0  0
 27 50  1  0  0  0
 28 29  1  0  0  0
 28 51  1  0  0  0
 29 30  2  0  0  0
 29 52  1  0  0  0
 30 31  1  0  0  0
 30 53  1  0  0  0
 31 54  1  0  0  0
M  CHG  2   3  -1  21  -1
M  END
>  <COMPND>
    ligand_BC.pdb 

>  <AUTHOR>
    GENERATED BY OPEN BABEL 2.2.1

>  <MASTER>
        0    0    0    0    0    0    0    0   54    0   54    0

$$$$
PMC1IJY_out_4.pdb_24288_ChemDiv_K284-6.pdb
 OpenBabel06131016443D

 69 71  0  0  0  0  0  0  0  0999 V2000
   62.6470   49.1080   98.7970 N   0  0  0  0  0
   62.6270   48.3100   98.2010 C   0  0  0  0  0
   62.1590   47.4730   98.5010 N   0  0  0  0  0
   61.7160   47.4420   99.3950 C   0  0  0  0  0
   61.7370   48.2390   99.9910 C   0  0  0  0  0
   62.2000   49.0720   99.6960 C   0  0  0  0  0
   62.2210   49.8700  100.2920 O   0  0  0  0  0
   61.2950   48.2080  100.8830 C   0  0  0  0  0
   60.8340   47.3780  101.1740 C   0  0  0  0  0
   60.8130   46.5800  100.5780 C   0  0  0  0  0
   61.2540   46.6100   99.6890 C   0  0  0  0  0
   63.1130   49.9420   98.5000 C   0  0  0  0  0
   64.0370   50.1460   98.8100 C   0  0  0  0  0
   64.5030   50.9770   98.5140 C   0  0  0  0  0
   65.0810   50.9560   97.7070 C   0  0  0  0  0
   65.5490   51.7890   97.4090 C   0  0  0  0  0
   65.4330   52.6420   97.9250 C   0  0  0  0  0
   64.8490   52.6560   98.7360 C   0  0  0  0  0
   64.3860   51.8300   99.0300 C   0  0  0  0  0
   66.1390   51.7690   96.5870 O   0  0  0  0  0
   67.0960   51.4720   96.6730 C   0  0  0  0  0
   65.9050   53.4850   97.6260 O   0  0  0  0  0
   65.4380   54.1150   97.0110 C   0  0  0  0  0
   63.0710   48.3340   97.2980 S   0  0  0  0  0
   62.5270   48.4460   96.4660 C   0  0  0  0  0
   62.4290   47.6880   95.8270 C   0  0  0  0  0
   63.1450   47.5010   95.1600 O   0  0  0  0  0
   61.6120   47.1170   95.8570 N   0  0  0  0  0
   61.5090   46.3530   95.2150 C   0  0  0  0  0
   60.8300   45.6440   95.3880 C   0  0  0  0  0
   60.3530   45.2170   94.6240 O   0  0  0  0  0
   59.6330   44.5430   94.8020 C   0  0  0  0  0
   62.0830   49.3140   96.2730 C   0  0  0  0  0
   62.4870   49.9470   95.6060 C   0  0  0  0  0
   60.3820   47.3380  102.0790 O   0  0  0  0  0
   60.9100   47.1170  102.8950 C   0  0  0  0  0
   60.3410   45.7300  100.8780 O   0  0  0  0  0
   59.3700   45.6030  100.6750 C   0  0  0  0  0
   61.3170   49.0900  101.5430 H   0  0  0  0  0
   61.2320   45.7270   99.0310 H   0  0  0  0  0
   62.5980   50.6420   97.8230 H   0  0  0  0  0
   64.5510   49.4460   99.4880 H   0  0  0  0  0
   65.2070   50.0190   97.1420 H   0  0  0  0  0
   64.7200   53.5910   99.3040 H   0  0  0  0  0
   63.7430   51.8480   99.9240 H   0  0  0  0  0
   67.6010   51.5140   95.6520 H   0  0  0  0  0
   67.1440   50.4140   97.0940 H   0  0  0  0  0
   67.6420   52.1700   97.3900 H   0  0  0  0  0
   66.1190   55.0010   96.7850 H   0  0  0  0  0
   64.4640   54.4760   97.4810 H   0  0  0  0  0
   65.1910   53.5750   96.0380 H   0  0  0  0  0
   62.8830   48.3040   97.5390 H   0  0  0  0  0
   60.8360   47.3220   96.5830 H   0  0  0  0  0
   61.3270   46.7800   94.1740 H   0  0  0  0  0
   62.4900   45.7890   95.3480 H   0  0  0  0  0
   61.3160   44.8240   96.0140 H   0  0  0  0  0
   59.9960   46.2230   95.9070 H   0  0  0  0  0
   59.2080   44.1700   93.8120 H   0  0  0  0  0
   58.8070   45.0060   95.4360 H   0  0  0  0  0
   60.0770   43.6630   95.3750 H   0  0  0  0  0
   61.1480   49.5820   96.7900 H   0  0  0  0  0
   63.4220   49.6790   95.0890 H   0  0  0  0  0
   61.9950   50.9090   95.3920 H   0  0  0  0  0
   60.2240   47.1230  103.8050 H   0  0  0  0  0
   61.7560   47.8690  103.0340 H   0  0  0  0  0
   61.3670   46.0790  102.7760 H   0  0  0  0  0
   59.0230   44.5980  101.0880 H   0  0  0  0  0
   59.1930   45.6500   99.5500 H   0  0  0  0  0
   58.7710   46.4380  101.1690 H   0  0  0  0  0
  1  2  1  0  0  0
  1 12  1  0  0  0
  1  6  1  0  0  0
  2 24  1  0  0  0
  2  3  2  0  0  0
  3  4  1  0  0  0
  4 11  2  0  0  0
  4  5  1  0  0  0
  5  6  1  0  0  0
  5  8  2  0  0  0
  6  7  2  0  0  0
  8  9  1  0  0  0
  8 39  1  0  0  0
  9 10  2  0  0  0
  9 35  1  0  0  0
 10 11  1  0  0  0
 10 37  1  0  0  0
 11 40  1  0  0  0
 12 13  2  0  0  0
 12 41  1  0  0  0
 13 14  1  0  0  0
 13 42  1  0  0  0
 14 15  2  0  0  0
 14 19  1  0  0  0
 15 16  1  0  0  0
 15 43  1  0  0  0
 16 20  1  0  0  0
 16 17  2  0  0  0
 17 22  1  0  0  0
 17 18  1  0  0  0
 18 19  2  0  0  0
 18 44  1  0  0  0
 19 45  1  0  0  0
 20 21  1  0  0  0
 21 46  1  0  0  0
 21 47  1  0  0  0
 21 48  1  0  0  0
 22 23  1  0  0  0
 23 49  1  0  0  0
 23 50  1  0  0  0
 23 51  1  0  0  0
 24 25  1  0  0  0
 25 26  1  0  0  0
 25 33  1  0  0  0
 25 52  1  0  0  0
 26 27  2  0  0  0
 26 28  1  0  0  0
 28 29  1  0  0  0
 28 53  1  0  0  0
 29 30  1  0  0  0
 29 54  1  0  0  0
 29 55  1  0  0  0
 30 31  1  0  0  0
 30 56  1  0  0  0
 30 57  1  0  0  0
 31 32  1  0  0  0
 32 58  1  0  0  0
 32 59  1  0  0  0
 32 60  1  0  0  0
 33 34  2  0  0  0
 33 61  1  0  0  0
 34 62  1  0  0  0
 34 63  1  0  0  0
 35 36  1  0  0  0
 36 64  1  0  0  0
 36 65  1  0  0  0
 36 66  1  0  0  0
 37 38  1  0  0  0
 38 67  1  0  0  0
 38 68  1  0  0  0
 38 69  1  0  0  0
M  CHG  2   7  -1  27  -1
M  END
>  <COMPND>
    ligand_BC.pdb 

>  <AUTHOR>
    GENERATED BY OPEN BABEL 2.2.1

>  <MASTER>
        0    0    0    0    0    0    0    0   69    0   69    0

$$$$
PMC1IJY_out_4.pdb_24010_ChemDiv_D021-0.pdb
 OpenBabel06131016443D

 51 57  0  0  0  0  0  0  0  0999 V2000
   61.2000   47.2430   99.0570 N   0  0  0  0  0
   60.9970   46.6470   98.2700 C   0  0  0  0  0
   60.3920   45.8630   98.3790 C   0  0  0  0  0
   60.1920   45.2780   97.6070 C   0  0  0  0  0
   60.5950   45.4720   96.7240 N   0  0  0  0  0
   61.1970   46.2530   96.6160 C   0  0  0  0  0
   61.4000   46.8400   97.3820 N   0  0  0  0  0
   61.5950   46.4410   95.7330 C   0  0  0  0  0
   61.4010   45.8610   94.9560 C   0  0  0  0  0
   60.7950   45.0780   95.0700 C   0  0  0  0  0
   60.3950   44.8870   95.9530 C   0  0  0  0  0
   62.2030   47.2260   95.6160 C   0  0  0  0  0
   59.5840   44.4940   97.7290 O   0  0  0  0  0
   59.9740   45.6580   99.2900 C   0  0  0  0  0
   60.1810   46.2550  100.0680 C   0  0  0  0  0
   60.7910   47.0440   99.9540 C   0  0  0  0  0
   60.9990   47.6470  100.7390 O   0  0  0  0  0
   59.7720   46.0640  100.9800 C   0  0  0  0  0
   59.3660   45.8700  101.8760 N   0  0  0  0  0
   61.8070   48.0300   98.9470 C   0  0  0  0  0
   61.5310   48.9550   98.7020 C   0  0  0  0  0
   62.3490   49.5280   98.6660 N   0  0  0  0  0
   60.9050   49.7120   98.4560 O   0  0  0  0  0
   63.1400   48.9520   98.8910 N   0  0  0  0  0
   62.8000   48.0280   99.0640 C   0  0  0  0  0
   64.0960   49.2540   98.9330 C   0  0  0  0  0
   63.7230   47.6890   99.2490 C   0  0  0  0  0
   62.3750   50.5060   98.4450 C   0  0  0  0  0
   62.1440   51.1840   99.1430 C   0  0  0  0  0
   62.1710   52.1600   98.9180 C   0  0  0  0  0
   62.4310   52.4540   97.9950 C   0  0  0  0  0
   62.6620   51.7680   97.3000 C   0  0  0  0  0
   62.6340   50.7980   97.5240 C   0  0  0  0  0
   62.0580   47.6900   97.2560 H   0  0  0  0  0
   61.8500   46.0780   93.9740 H   0  0  0  0  0
   60.5710   44.4250   94.2110 H   0  0  0  0  0
   59.7260   44.0210   96.0780 H   0  0  0  0  0
   62.5580   47.2740   94.5340 H   0  0  0  0  0
   63.0950   47.1430   96.3210 H   0  0  0  0  0
   61.6340   48.1810   95.8670 H   0  0  0  0  0
   59.3050   44.7920   99.4140 H   0  0  0  0  0
   64.4870   49.9730   99.7260 H   0  0  0  0  0
   64.8060   49.7840   98.2150 H   0  0  0  0  0
   63.9230   47.3300  100.3120 H   0  0  0  0  0
   64.2010   46.7890   98.7380 H   0  0  0  0  0
   61.8610   50.8590  100.1560 H   0  0  0  0  0
   61.9150   52.9090   99.6840 H   0  0  0  0  0
   61.6040   53.1220   97.5820 H   0  0  0  0  0
   63.4310   52.9720   98.1730 H   0  0  0  0  0
   62.9480   52.0890   96.2860 H   0  0  0  0  0
   62.8880   50.0480   96.7590 H   0  0  0  0  0
  1  2  1  0  0  0
  1 20  1  0  0  0
  1 16  1  0  0  0
  2  7  1  0  0  0
  2  3  2  0  0  0
  3  4  1  0  0  0
  3 14  1  0  0  0
  4  5  1  0  0  0
  4 13  2  0  0  0
  5 11  2  0  0  0
  5  6  1  0  0  0
  6  8  2  0  0  0
  6  7  1  0  0  0
  7 34  1  0  0  0
  8  9  1  0  0  0
  8 12  1  0  0  0
  9 10  2  0  0  0
  9 35  1  0  0  0
 10 11  1  0  0  0
 10 36  1  0  0  0
 11 37  1  0  0  0
 12 38  1  0  0  0
 12 39  1  0  0  0
 12 40  1  0  0  0
 14 15  2  0  0  0
 14 41  1  0  0  0
 15 16  1  0  0  0
 15 18  1  0  0  0
 16 17  2  0  0  0
 18 19  3  0  0  0
 20 21  2  0  0  0
 20 25  1  0  0  0
 21 23  1  0  0  0
 21 22  1  0  0  0
 22 28  1  0  0  0
 22 24  1  0  0  0
 23 28  1  0  0  0
 24 26  1  0  0  0
 24 25  2  0  0  0
 25 27  1  0  0  0
 26 27  1  0  0  0
 26 42  1  0  0  0
 26 43  1  0  0  0
 27 44  1  0  0  0
 27 45  1  0  0  0
 28 33  1  0  0  0
 28 29  1  0  0  0
 29 30  2  0  0  0
 29 46  1  0  0  0
 30 31  1  0  0  0
 30 47  1  0  0  0
 31 32  1  0  0  0
 31 48  1  0  0  0
 31 49  1  0  0  0
 32 33  2  0  0  0
 32 50  1  0  0  0
 33 51  1  0  0  0
M  CHG  2  13  -1  17  -1
M  END
>  <COMPND>
    ligand_BC.pdb 

>  <AUTHOR>
    GENERATED BY OPEN BABEL 2.2.1

>  <MASTER>
        0    0    0    0    0    0    0    0   51    0   51    0

$$$$
PMC1IJY_out_4.pdb_24667_ChemDiv_0114-0.pdb
 OpenBabel06131016443D

 57 57  0  0  0  0  0  0  0  0999 V2000
   59.9680   44.6140   96.0620 N   0  0  0  0  0
   60.3920   44.8420   96.8970 C   0  0  0  0  0
   60.9460   45.6880   96.5250 C   0  0  0  0  0
   60.9020   45.8060   96.0610 C   0  0  0  0  0
   60.2720   45.2530   95.3920 C   0  0  0  0  0
   60.1240   45.3140   94.7210 O   0  0  0  0  0
   61.6120   46.6510   96.2210 C   0  0  0  0  0
   61.7930   47.1680   95.4550 C   0  0  0  0  0
   61.9540   47.1260   96.1190 C   0  0  0  0  0
   61.6570   46.5250   96.7120 C   0  0  0  0  0
   62.5290   46.9850   98.4580 C   0  0  0  0  0
   62.4610   47.0990   97.9170 C   0  0  0  0  0
   62.8560   47.8390   97.2880 C   0  0  0  0  0
   63.4680   48.3870   97.9090 C   0  0  0  0  0
   63.5750   48.1870   98.8080 C   0  0  0  0  0
   63.1160   47.4660   99.1710 C   0  0  0  0  0
   62.6070   47.7640   96.6370 C   0  0  0  0  0
   62.9790   48.4420   96.0950 C   0  0  0  0  0
   62.7490   48.4900   95.1810 C   0  0  0  0  0
   62.1320   47.8500   94.7870 C   0  0  0  0  0
   60.3190   44.5120   97.5360 O   0  0  0  0  0
   59.4120   43.8220   96.2850 C   0  0  0  0  0
   58.5220   43.4120   95.8110 C   0  0  0  0  0
   57.7730   43.5450   95.2210 C   0  0  0  0  0
   57.1170   42.8740   95.0200 C   0  0  0  0  0
   57.2440   42.0170   95.4560 C   0  0  0  0  0
   57.9950   41.8700   96.0540 C   0  0  0  0  0
   58.6320   42.5830   96.2240 C   0  0  0  0  0
   60.6880   45.7580   95.4570 H   0  0  0  0  0
   60.8020   45.3120   97.0410 H   0  0  0  0  0
   61.8830   47.3100   95.3810 H   0  0  0  0  0
   62.0430   46.8270   97.2190 H   0  0  0  0  0
   62.2320   47.9620   94.8310 H   0  0  0  0  0
   61.0950   46.4410   95.0110 H   0  0  0  0  0
   62.0370   46.6240   97.7410 H   0  0  0  0  0
   61.9840   46.1090   98.9420 H   0  0  0  0  0
   63.1780   46.6180   97.5950 H   0  0  0  0  0
   61.7630   47.7210   98.0450 H   0  0  0  0  0
   61.7590   46.4270   97.3200 H   0  0  0  0  0
   61.9030   47.5780   98.7880 H   0  0  0  0  0
   63.3140   46.4700   98.3380 H   0  0  0  0  0
   64.0170   49.2440   97.4890 H   0  0  0  0  0
   64.2400   48.7980   99.4390 H   0  0  0  0  0
   63.8540   46.7270   99.6280 H   0  0  0  0  0
   62.4220   47.8670   99.9820 H   0  0  0  0  0
   63.6790   49.1740   96.5280 H   0  0  0  0  0
   63.1850   49.2820   94.5520 H   0  0  0  0  0
   61.7880   47.1120   95.5850 H   0  0  0  0  0
   62.6350   47.2950   93.9270 H   0  0  0  0  0
   61.2260   48.4070   94.3760 H   0  0  0  0  0
   60.1340   42.9500   96.4230 H   0  0  0  0  0
   58.8350   44.3500   97.1140 H   0  0  0  0  0
   57.6620   44.5320   94.7450 H   0  0  0  0  0
   56.2740   43.0650   94.3380 H   0  0  0  0  0
   56.5280   41.2010   95.2710 H   0  0  0  0  0
   58.1250   40.8910   96.5410 H   0  0  0  0  0
   59.4830   42.4130   96.9030 H   0  0  0  0  0
  1  5  1  0  0  0
  1 22  1  0  0  0
  1  2  1  0  0  0
  2  3  1  0  0  0
  2 21  2  0  0  0
  3 10  2  0  0  0
  3 29  1  0  0  0
  4  5  1  0  0  0
  4  7  2  0  0  0
  4 30  1  0  0  0
  5  6  2  0  0  0
  7 31  1  0  0  0
  7 32  1  0  0  0
  8  9  2  0  0  0
  8 33  1  0  0  0
  8 34  1  0  0  0
  9 17  1  0  0  0
  9 10  1  0  0  0
 10 35  1  0  0  0
 11 16  1  0  0  0
 11 36  1  0  0  0
 11 37  1  0  0  0
 11 38  1  0  0  0
 12 13  1  0  0  0
 12 39  1  0  0  0
 12 40  1  0  0  0
 12 41  1  0  0  0
 13 17  2  0  0  0
 13 14  1  0  0  0
 14 15  2  0  0  0
 14 42  1  0  0  0
 15 16  1  0  0  0
 15 43  1  0  0  0
 16 44  1  0  0  0
 16 45  1  0  0  0
 17 18  1  0  0  0
 18 19  2  0  0  0
 18 46  1  0  0  0
 19 20  1  0  0  0
 19 47  1  0  0  0
 20 48  1  0  0  0
 20 49  1  0  0  0
 20 50  1  0  0  0
 22 23  1  0  0  0
 22 51  1  0  0  0
 22 52  1  0  0  0
 23 24  2  0  0  0
 23 28  1  0  0  0
 24 25  1  0  0  0
 24 53  1  0  0  0
 25 26  2  0  0  0
 25 54  1  0  0  0
 26 27  1  0  0  0
 26 55  1  0  0  0
 27 28  2  0  0  0
 27 56  1  0  0  0
 28 57  1  0  0  0
M  CHG  2   6  -1  21  -1
M  END
>  <COMPND>
    ligand_BC.pdb 

>  <AUTHOR>
    GENERATED BY OPEN BABEL 2.2.1

>  <MASTER>
        0    0    0    0    0    0    0    0   57    0   57    0

$$$$
PMC1IJY_out_4.pdb_24162_ChemDiv_C919-0.pdb
 OpenBabel06131016443D

 53 57  0  0  0  0  0  0  0  0999 V2000
   62.6410   51.4010   99.6480 C   0  0  0  0  0
   62.7420   52.3660   99.8880 N   0  0  0  0  0
   63.0730   52.8570   99.0800 N   0  0  0  0  0
   63.1760   52.1880   98.3370 C   0  0  0  0  0
   62.9100   51.2920   98.6900 C   0  0  0  0  0
   62.8750   50.3850   98.2670 C   0  0  0  0  0
   62.5750   49.5940   98.7910 C   0  0  0  0  0
   62.3070   49.7040   99.7480 C   0  0  0  0  0
   62.3400   50.6040  100.1770 N   0  0  0  0  0
   62.0070   48.9130  100.2770 C   0  0  0  0  0
   63.1430   50.2760   97.3090 C   0  0  0  0  0
   63.4910   52.3910   97.4130 C   0  0  0  0  0
   62.5420   48.6950   98.3670 C   0  0  0  0  0
   61.7060   48.3910   97.9080 C   0  0  0  0  0
   61.6590   47.4760   97.5080 C   0  0  0  0  0
   61.6330   47.3650   96.5150 N   0  0  0  0  0
   61.5850   46.4970   96.0220 C   0  0  0  0  0
   61.6490   48.0980   95.8420 C   0  0  0  0  0
   61.5730   46.6980   95.0400 C   0  0  0  0  0
   61.5520   45.5480   96.3390 C   0  0  0  0  0
   61.6120   47.6900   94.9280 C   0  0  0  0  0
   61.5270   45.9480   94.3740 C   0  0  0  0  0
   61.4940   45.0000   94.6940 C   0  0  0  0  0
   61.5070   44.8080   95.6720 C   0  0  0  0  0
   61.6370   46.6670   98.1030 O   0  0  0  0  0
   62.5470   52.7760  100.7790 C   0  0  0  0  0
   63.2630   52.8300  101.4700 C   0  0  0  0  0
   63.0640   53.2410  102.3590 C   0  0  0  0  0
   62.1490   53.6000  102.5600 C   0  0  0  0  0
   61.4340   53.5420  101.8590 C   0  0  0  0  0
   61.6330   53.1310  100.9710 C   0  0  0  0  0
   62.0370   47.9820   99.6200 H   0  0  0  0  0
   60.9520   49.0810  100.6750 H   0  0  0  0  0
   62.7080   48.7680  101.1640 H   0  0  0  0  0
   63.4530   51.2870   96.8830 H   0  0  0  0  0
   62.2800   49.8410   96.7050 H   0  0  0  0  0
   64.0250   49.5560   97.2460 H   0  0  0  0  0
   63.5040   51.4320   96.7960 H   0  0  0  0  0
   64.5320   52.8540   97.4440 H   0  0  0  0  0
   62.7780   53.1380   96.9300 H   0  0  0  0  0
   63.4230   48.0350   98.4020 H   0  0  0  0  0
   60.8370   49.0650   97.8440 H   0  0  0  0  0
   61.6990   49.1760   96.0650 H   0  0  0  0  0
   61.5650   45.3230   97.4170 H   0  0  0  0  0
   61.6140   48.2370   93.9720 H   0  0  0  0  0
   61.5130   46.1680   93.2950 H   0  0  0  0  0
   61.4440   44.1730   93.9680 H   0  0  0  0  0
   61.4710   43.7640   96.0210 H   0  0  0  0  0
   64.2700   52.4380  101.2550 H   0  0  0  0  0
   63.8550   53.3000  103.1230 H   0  0  0  0  0
   61.9320   54.0530  103.5400 H   0  0  0  0  0
   60.4260   53.9330  102.0690 H   0  0  0  0  0
   60.8450   53.0690  100.2040 H   0  0  0  0  0
  1  5  2  0  0  0
  1  2  1  0  0  0
  1  9  1  0  0  0
  2  3  1  0  0  0
  2 26  1  0  0  0
  3  4  2  0  0  0
  4 12  1  0  0  0
  4  5  1  0  0  0
  5  6  1  0  0  0
  6 11  1  0  0  0
  6  7  2  0  0  0
  7 13  1  0  0  0
  7  8  1  0  0  0
  8  9  2  0  0  0
  8 10  1  0  0  0
 10 32  1  0  0  0
 10 33  1  0  0  0
 10 34  1  0  0  0
 11 35  1  0  0  0
 11 36  1  0  0  0
 11 37  1  0  0  0
 12 38  1  0  0  0
 12 39  1  0  0  0
 12 40  1  0  0  0
 13 14  2  0  0  0
 13 41  1  0  0  0
 14 15  1  0  0  0
 14 42  1  0  0  0
 15 16  1  0  0  0
 15 25  2  0  0  0
 16 18  1  0  0  0
 16 17  1  0  0  0
 17 19  2  0  0  0
 17 20  1  0  0  0
 18 21  2  0  0  0
 18 43  1  0  0  0
 19 22  1  0  0  0
 19 21  1  0  0  0
 20 24  2  0  0  0
 20 44  1  0  0  0
 21 45  1  0  0  0
 22 23  2  0  0  0
 22 46  1  0  0  0
 23 24  1  0  0  0
 23 47  1  0  0  0
 24 48  1  0  0  0
 26 31  2  0  0  0
 26 27  1  0  0  0
 27 28  2  0  0  0
 27 49  1  0  0  0
 28 29  1  0  0  0
 28 50  1  0  0  0
 29 30  2  0  0  0
 29 51  1  0  0  0
 30 31  1  0  0  0
 30 52  1  0  0  0
 31 53  1  0  0  0
M  CHG  1  25  -1
M  END
>  <COMPND>
    ligand_BC.pdb 

>  <AUTHOR>
    GENERATED BY OPEN BABEL 2.2.1

>  <MASTER>
        0    0    0    0    0    0    0    0   53    0   53    0

$$$$
