23874_ChemDiv_000A-0528.pdb
 OpenBabel06131021403D

 39 42  0  0  0  0  0  0  0  0999 V2000
   62.8480   47.1580  100.6040 C   0  0  0  0  0
   62.3190   46.5970   99.9590 N   0  0  0  0  0
   61.7050   45.8880  100.3200 C   0  0  0  0  0
   61.1680   45.3180   99.6650 C   0  0  0  0  0
   61.2340   45.4440   98.6770 N   0  0  0  0  0
   61.8460   46.1490   98.3350 C   0  0  0  0  0
   62.3880   46.7260   98.9650 C   0  0  0  0  0
   62.7680   47.0170  101.5960 O   0  0  0  0  0
   63.4490   47.8520  100.2480 C   0  0  0  0  0
   64.3660   47.6100   99.9310 O   0  0  0  0  0
   64.9650   48.3190   99.5730 C   0  0  0  0  0
   64.6230   49.2860   99.5390 C   0  0  0  0  0
   65.8960   48.1190   99.2440 O   0  0  0  0  0
   63.7300   49.4910   99.8530 C   0  0  0  0  0
   65.2010   50.0040   99.1880 C   0  0  0  0  0
   63.1400   48.7680  100.2100 C   0  0  0  0  0
   63.4110   50.4360   99.8140 C   0  0  0  0  0
   63.9760   51.1690   99.4650 C   0  0  0  0  0
   64.9100   50.9280   99.1420 C   0  0  0  0  0
   60.7100   44.8880   98.0380 C   0  0  0  0  0
   61.0760   44.0390   97.6760 C   0  0  0  0  0
   60.5390   43.4750   97.0250 C   0  0  0  0  0
   59.6110   43.7700   96.7290 C   0  0  0  0  0
   59.2460   44.6260   97.0960 C   0  0  0  0  0
   59.7950   45.1720   97.7420 C   0  0  0  0  0
   61.6130   45.7280  101.4060 H   0  0  0  0  0
   60.4950   44.5400  100.0610 H   0  0  0  0  0
   61.9360   46.3050   97.2480 H   0  0  0  0  0
   63.0580   47.5000   98.5590 H   0  0  0  0  0
   66.2130   49.7470   98.8360 H   0  0  0  0  0
   62.1270   49.0160  100.5640 H   0  0  0  0  0
   62.3960   50.6700  100.1720 H   0  0  0  0  0
   63.6080   52.2070   99.4280 H   0  0  0  0  0
   65.5820   51.7060   98.7450 H   0  0  0  0  0
   62.0790   43.7040   97.9850 H   0  0  0  0  0
   60.9640   42.5360   96.6360 H   0  0  0  0  0
   59.0240   43.1620   96.0230 H   0  0  0  0  0
   58.2450   44.9720   96.7950 H   0  0  0  0  0
   59.3760   46.1110   98.1360 H   0  0  0  0  0
  2  1  1  0  0  0
  9  1  1  0  0  0
  1  8  2  0  0  0
  7  2  2  0  0  0
  2  3  1  0  0  0
  4  3  2  0  0  0
  3 26  1  0  0  0
  5  4  1  0  0  0
  4 27  1  0  0  0
 20  5  1  0  0  0
  6  5  2  0  0  0
 28  6  1  0  0  0
  6  7  1  0  0  0
 29  7  1  0  0  0
 10  9  1  0  0  0
 16  9  2  0  0  0
 11 10  1  0  0  0
 13 11  2  0  0  0
 12 11  1  0  0  0
 15 12  2  0  0  0
 12 14  1  0  0  0
 17 14  2  0  0  0
 14 16  1  0  0  0
 30 15  1  0  0  0
 19 15  1  0  0  0
 16 31  1  0  0  0
 18 17  1  0  0  0
 17 32  1  0  0  0
 19 18  2  0  0  0
 33 18  1  0  0  0
 34 19  1  0  0  0
 21 20  2  0  0  0
 25 20  1  0  0  0
 22 21  1  0  0  0
 21 35  1  0  0  0
 36 22  1  0  0  0
 23 22  2  0  0  0
 37 23  1  0  0  0
 23 24  1  0  0  0
 38 24  1  0  0  0
 24 25  2  0  0  0
 25 39  1  0  0  0
M  END
$$$$
23874_ChemDiv_000A-0528.pdb
 OpenBabel06131021403D

 39 42  0  0  0  0  0  0  0  0999 V2000
   62.8670   47.2400  100.6290 C   0  0  0  0  0
   62.3510   46.6670   99.9850 N   0  0  0  0  0
   61.7730   45.9270  100.3450 C   0  0  0  0  0
   61.2490   45.3450   99.6900 C   0  0  0  0  0
   61.2930   45.4880   98.7040 N   0  0  0  0  0
   61.8690   46.2230   98.3620 C   0  0  0  0  0
   62.3980   46.8130   98.9920 C   0  0  0  0  0
   62.8100   47.0810  101.6210 O   0  0  0  0  0
   63.4320   47.9630  100.2750 C   0  0  0  0  0
   64.3530   47.7650   99.9390 O   0  0  0  0  0
   64.9160   48.5030   99.5820 C   0  0  0  0  0
   64.5330   49.4560   99.5680 C   0  0  0  0  0
   65.8480   48.3470   99.2350 O   0  0  0  0  0
   63.6380   49.6190   99.9000 C   0  0  0  0  0
   65.0740   50.2020   99.2190 C   0  0  0  0  0
   63.0850   48.8660  100.2550 C   0  0  0  0  0
   63.2800   50.5500   99.8800 C   0  0  0  0  0
   63.8070   51.3110   99.5340 C   0  0  0  0  0
   64.7440   51.1140   99.1910 C   0  0  0  0  0
   60.7820   44.9200   98.0650 C   0  0  0  0  0
   61.1690   44.0820   97.7000 C   0  0  0  0  0
   60.6450   43.5050   97.0480 C   0  0  0  0  0
   59.7080   43.7770   96.7560 C   0  0  0  0  0
   59.3220   44.6220   97.1270 C   0  0  0  0  0
   59.8580   45.1810   97.7720 C   0  0  0  0  0
   61.7060   45.7470  101.4300 H   0  0  0  0  0
   60.6160   44.5350  100.0840 H   0  0  0  0  0
   61.9330   46.3990   97.2760 H   0  0  0  0  0
   63.0290   47.6200   98.5860 H   0  0  0  0  0
   66.0900   49.9930   98.8470 H   0  0  0  0  0
   62.0680   49.0660  100.6280 H   0  0  0  0  0
   62.2620   50.7360  100.2570 H   0  0  0  0  0
   63.3960   52.3330   99.5200 H   0  0  0  0  0
   65.3750   51.9240   98.7930 H   0  0  0  0  0
   62.1810   43.7730   98.0060 H   0  0  0  0  0
   61.0930   42.5790   96.6540 H   0  0  0  0  0
   59.1340   43.1560   96.0500 H   0  0  0  0  0
   58.3110   44.9420   96.8300 H   0  0  0  0  0
   59.4150   46.1090   98.1680 H   0  0  0  0  0
  2  1  1  0  0  0
  9  1  1  0  0  0
  1  8  2  0  0  0
  7  2  2  0  0  0
  2  3  1  0  0  0
  4  3  2  0  0  0
  3 26  1  0  0  0
  5  4  1  0  0  0
  4 27  1  0  0  0
 20  5  1  0  0  0
  6  5  2  0  0  0
 28  6  1  0  0  0
  6  7  1  0  0  0
 29  7  1  0  0  0
 10  9  1  0  0  0
 16  9  2  0  0  0
 11 10  1  0  0  0
 13 11  2  0  0  0
 12 11  1  0  0  0
 15 12  2  0  0  0
 12 14  1  0  0  0
 17 14  2  0  0  0
 14 16  1  0  0  0
 30 15  1  0  0  0
 19 15  1  0  0  0
 16 31  1  0  0  0
 18 17  1  0  0  0
 17 32  1  0  0  0
 19 18  2  0  0  0
 33 18  1  0  0  0
 34 19  1  0  0  0
 21 20  2  0  0  0
 25 20  1  0  0  0
 22 21  1  0  0  0
 21 35  1  0  0  0
 36 22  1  0  0  0
 23 22  2  0  0  0
 37 23  1  0  0  0
 23 24  1  0  0  0
 38 24  1  0  0  0
 24 25  2  0  0  0
 25 39  1  0  0  0
M  END
$$$$
23876_ChemDiv_000A-0530.pdb
 OpenBabel06131021403D

 35 38  0  0  0  0  0  0  0  0999 V2000
   60.5070   45.4120   96.7280 C   0  0  0  0  0
   59.8910   44.9740   97.3890 C   0  0  0  0  0
   59.1870   44.3140   97.0860 C   0  0  0  0  0
   59.1220   44.1090   96.0970 C   0  0  0  0  0
   59.7380   44.5470   95.4370 N   0  0  0  0  0
   60.4300   45.1980   95.7530 C   0  0  0  0  0
   61.0430   45.6340   95.0960 C   0  0  0  0  0
   61.7350   46.2850   95.4120 C   0  0  0  0  0
   61.8120   46.4990   96.3860 C   0  0  0  0  0
   61.1980   46.0620   97.0440 C   0  0  0  0  0
   61.2760   46.2760   98.0190 C   0  0  0  0  0
   61.9680   46.9270   98.3350 C   0  0  0  0  0
   62.5810   47.3630   97.6770 C   0  0  0  0  0
   62.5030   47.1490   96.7030 C   0  0  0  0  0
   59.9560   45.1780   98.3760 O   0  0  0  0  0
   58.4390   43.4640   95.7660 C   0  0  0  0  0
   58.6320   42.4860   95.7210 C   0  0  0  0  0
   57.9380   41.8490   95.3870 C   0  0  0  0  0
   58.1410   40.8920   95.3480 O   0  0  0  0  0
   57.0430   42.1730   95.0930 C   0  0  0  0  0
   56.8580   43.1490   95.1410 C   0  0  0  0  0
   57.5450   43.7930   95.4740 C   0  0  0  0  0
   59.3320   43.3370   97.6550 H   0  0  0  0  0
   58.2040   44.8420   97.3180 H   0  0  0  0  0
   60.9580   45.3990   94.0230 H   0  0  0  0  0
   62.4110   46.7650   94.6870 H   0  0  0  0  0
   60.6000   45.7950   98.7440 H   0  0  0  0  0
   62.0540   47.1630   99.4080 H   0  0  0  0  0
   63.3420   48.0790   98.0240 H   0  0  0  0  0
   63.1790   47.6300   95.9780 H   0  0  0  0  0
   59.5820   42.3350   95.1090 H   0  0  0  0  0
   58.7050   42.2050   96.8230 H   0  0  0  0  0
   56.2790   41.4700   94.7250 H   0  0  0  0  0
   55.8750   43.5280   94.8200 H   0  0  0  0  0
   57.3140   44.8690   95.5190 H   0  0  0  0  0
  6  1  2  0  0  0
  1 10  1  0  0  0
  1  2  1  0  0  0
  3  2  1  0  0  0
  2 15  1  0  0  0
  4  3  1  0  0  0
  3 24  1  0  0  0
  3 23  1  0  0  0
  5  4  2  0  0  0
 16  4  1  0  0  0
  5  6  1  0  0  0
  7  6  1  0  0  0
 25  7  1  0  0  0
  7  8  2  0  0  0
 26  8  1  0  0  0
  8  9  1  0  0  0
  9 14  2  0  0  0
  9 10  1  0  0  0
 10 11  2  0  0  0
 11 12  1  0  0  0
 13 12  2  0  0  0
 12 28  1  0  0  0
 14 13  1  0  0  0
 13 29  1  0  0  0
 30 14  1  0  0  0
 15 27  1  0  0  0
 22 16  2  0  0  0
 17 16  1  0  0  0
 31 17  1  0  0  0
 18 17  1  0  0  0
 17 32  1  0  0  0
 20 18  1  0  0  0
 19 18  2  0  0  0
 33 20  1  0  0  0
 20 21  2  0  0  0
 34 21  1  0  0  0
 21 22  1  0  0  0
 22 35  1  0  0  0
M  END
$$$$
23876_ChemDiv_000A-0530.pdb
 OpenBabel06131021403D

 35 38  0  0  0  0  0  0  0  0999 V2000
   60.4510   45.4140   96.9070 C   0  0  0  0  0
   59.7640   45.0160   97.5210 C   0  0  0  0  0
   59.0790   44.3550   97.1790 C   0  0  0  0  0
   59.1070   44.1070   96.1990 C   0  0  0  0  0
   59.7940   44.5040   95.5840 N   0  0  0  0  0
   60.4650   45.1570   95.9390 C   0  0  0  0  0
   61.1490   45.5530   95.3270 C   0  0  0  0  0
   61.8190   46.2060   95.6820 C   0  0  0  0  0
   61.8050   46.4620   96.6480 C   0  0  0  0  0
   61.1210   46.0660   97.2610 C   0  0  0  0  0
   61.1070   46.3230   98.2280 C   0  0  0  0  0
   61.7770   46.9760   98.5830 C   0  0  0  0  0
   62.4620   47.3720   97.9710 C   0  0  0  0  0
   62.4760   47.1150   97.0030 C   0  0  0  0  0
   59.7350   45.2640   98.5010 O   0  0  0  0  0
   58.4470   43.4580   95.8310 C   0  0  0  0  0
   58.6300   42.4770   95.8310 C   0  0  0  0  0
   57.9600   41.8370   95.4580 C   0  0  0  0  0
   58.1530   40.8770   95.4660 O   0  0  0  0  0
   57.0970   42.1610   95.0800 C   0  0  0  0  0
   56.9210   43.1400   95.0830 C   0  0  0  0  0
   57.5850   43.7870   95.4530 C   0  0  0  0  0
   59.1460   43.4020   97.8010 H   0  0  0  0  0
   58.0890   44.9090   97.2900 H   0  0  0  0  0
   61.1650   45.2710   94.2620 H   0  0  0  0  0
   62.5720   46.6430   95.0080 H   0  0  0  0  0
   60.3530   45.8870   98.9020 H   0  0  0  0  0
   61.7600   47.2590   99.6470 H   0  0  0  0  0
   63.2000   48.0900   98.3610 H   0  0  0  0  0
   63.2300   47.5510   96.3290 H   0  0  0  0  0
   59.6270   42.2980   95.3080 H   0  0  0  0  0
   58.6030   42.2290   96.9430 H   0  0  0  0  0
   56.3580   41.4540   94.6700 H   0  0  0  0  0
   55.9730   43.5180   94.6690 H   0  0  0  0  0
   57.3650   44.8660   95.4440 H   0  0  0  0  0
  6  1  2  0  0  0
  1 10  1  0  0  0
  1  2  1  0  0  0
  3  2  1  0  0  0
  2 15  1  0  0  0
  4  3  1  0  0  0
  3 24  1  0  0  0
  3 23  1  0  0  0
  5  4  2  0  0  0
 16  4  1  0  0  0
  5  6  1  0  0  0
  7  6  1  0  0  0
 25  7  1  0  0  0
  7  8  2  0  0  0
 26  8  1  0  0  0
  8  9  1  0  0  0
  9 14  2  0  0  0
  9 10  1  0  0  0
 10 11  2  0  0  0
 11 12  1  0  0  0
 13 12  2  0  0  0
 12 28  1  0  0  0
 14 13  1  0  0  0
 13 29  1  0  0  0
 30 14  1  0  0  0
 15 27  1  0  0  0
 22 16  2  0  0  0
 16 17  1  0  0  0
 31 17  1  0  0  0
 18 17  1  0  0  0
 17 32  1  0  0  0
 20 18  1  0  0  0
 18 19  2  0  0  0
 33 20  1  0  0  0
 20 21  2  0  0  0
 34 21  1  0  0  0
 21 22  1  0  0  0
 35 22  1  0  0  0
M  END
$$$$
23877_ChemDiv_000A-0018.pdb
 OpenBabel06131021403D

 38 40  0  0  0  0  0  0  0  0999 V2000
   60.9570   45.7500   97.8770 N   0  0  0  0  0
   60.1530   45.3770   97.3950 C   0  0  0  0  0
   60.1790   45.2750   96.4110 C   0  0  0  0  0
   60.9770   45.5320   95.8980 N   0  0  0  0  0
   61.0040   45.4300   94.9130 C   0  0  0  0  0
   60.1830   45.0490   94.4210 O   0  0  0  0  0
   61.7820   45.9050   96.3800 C   0  0  0  0  0
   61.7590   46.0080   97.3580 C   0  0  0  0  0
   62.5630   46.3810   97.8390 O   0  0  0  0  0
   59.3280   45.1110   97.9220 O   0  0  0  0  0
   60.9390   45.8580   98.8870 C   0  0  0  0  0
   60.5890   46.7150   99.2960 C   0  0  0  0  0
   60.5510   46.8140  100.3060 C   0  0  0  0  0
   61.3050   47.2060  100.7960 C   0  0  0  0  0
   61.2840   47.3100  101.7860 C   0  0  0  0  0
   60.4640   47.0050  102.2950 C   0  0  0  0  0
   59.7020   46.6080  101.7900 C   0  0  0  0  0
   59.7310   46.5090  100.8140 C   0  0  0  0  0
   61.8310   45.6970   94.3890 C   0  0  0  0  0
   62.5460   45.0500   94.2300 C   0  0  0  0  0
   63.3570   45.2980   93.7210 C   0  0  0  0  0
   63.4450   46.2400   93.3590 C   0  0  0  0  0
   62.7190   46.8900   93.5230 C   0  0  0  0  0
   61.9190   46.6390   94.0270 C   0  0  0  0  0
   59.9240   44.1930   96.1570 H   0  0  0  0  0
   62.0460   46.9120   95.9160 H   0  0  0  0  0
   61.3000   45.0440   99.5360 H   0  0  0  0  0
   60.2500   47.5380   98.6470 H   0  0  0  0  0
   62.1950   47.5390  100.2380 H   0  0  0  0  0
   62.1410   47.7510  102.3200 H   0  0  0  0  0
   60.4150   47.1100  103.3900 H   0  0  0  0  0
   58.8080   46.2730  102.3390 H   0  0  0  0  0
   58.8770   46.0690  100.2760 H   0  0  0  0  0
   62.4470   44.0260   94.6250 H   0  0  0  0  0
   64.1550   44.5580   93.5500 H   0  0  0  0  0
   64.3400   46.5360   92.7890 H   0  0  0  0  0
   62.8120   47.9150   93.1310 H   0  0  0  0  0
   61.1190   47.3760   94.2000 H   0  0  0  0  0
  8  1  1  0  0  0
  2  1  1  0  0  0
  1 11  1  0  0  0
  3  2  1  0  0  0
  2 10  2  0  0  0
  4  3  1  0  0  0
 25  3  1  0  0  0
  5  4  1  0  0  0
  4  7  1  0  0  0
 19  5  1  0  0  0
  6  5  2  0  0  0
 26  7  1  0  0  0
  7  8  1  0  0  0
  8  9  2  0  0  0
 11 12  2  0  0  0
 11 27  1  0  0  0
 28 12  1  0  0  0
 12 13  1  0  0  0
 13 14  2  0  0  0
 13 18  1  0  0  0
 29 14  1  0  0  0
 14 15  1  0  0  0
 15 16  2  0  0  0
 15 30  1  0  0  0
 17 16  1  0  0  0
 16 31  1  0  0  0
 18 17  2  0  0  0
 17 32  1  0  0  0
 33 18  1  0  0  0
 24 19  2  0  0  0
 20 19  1  0  0  0
 21 20  2  0  0  0
 20 34  1  0  0  0
 22 21  1  0  0  0
 35 21  1  0  0  0
 36 22  1  0  0  0
 22 23  2  0  0  0
 37 23  1  0  0  0
 23 24  1  0  0  0
 24 38  1  0  0  0
M  END
$$$$
23877_ChemDiv_000A-0018.pdb
 OpenBabel06131021413D

 38 40  0  0  0  0  0  0  0  0999 V2000
   60.9900   45.7200   98.1800 N   0  0  0  0  0
   60.3370   45.1100   97.7110 C   0  0  0  0  0
   60.3660   45.0320   96.7240 C   0  0  0  0  0
   61.0220   45.5400   96.1970 N   0  0  0  0  0
   61.0510   45.4620   95.2100 C   0  0  0  0  0
   60.3850   44.8400   94.7310 O   0  0  0  0  0
   61.6750   46.1500   96.6660 C   0  0  0  0  0
   61.6490   46.2310   97.6460 C   0  0  0  0  0
   62.3010   46.8400   98.1140 O   0  0  0  0  0
   59.6600   44.5840   98.2530 O   0  0  0  0  0
   60.9670   45.8060   99.1920 C   0  0  0  0  0
   60.3970   46.5220   99.6240 C   0  0  0  0  0
   60.3670   46.6020  100.6360 C   0  0  0  0  0
   60.9920   47.1940  101.1070 C   0  0  0  0  0
   60.9750   47.2830  102.0990 C   0  0  0  0  0
   60.2990   46.7500  102.6290 C   0  0  0  0  0
   59.6680   46.1500  102.1430 C   0  0  0  0  0
   59.6900   46.0680  101.1660 C   0  0  0  0  0
   61.7310   45.9900   94.6710 C   0  0  0  0  0
   61.5130   46.8850   94.3410 C   0  0  0  0  0
   62.1660   47.4090   93.8150 C   0  0  0  0  0
   63.0750   47.0100   93.6160 C   0  0  0  0  0
   63.2900   46.1040   93.9520 C   0  0  0  0  0
   62.6400   45.5910   94.4710 C   0  0  0  0  0
   60.4690   43.9290   96.4550 H   0  0  0  0  0
   61.5830   47.1930   96.2150 H   0  0  0  0  0
   61.5610   45.1210   99.8180 H   0  0  0  0  0
   59.8100   47.2130   98.9980 H   0  0  0  0  0
   61.7280   47.7720  100.5260 H   0  0  0  0  0
   61.6830   47.9530  102.6120 H   0  0  0  0  0
   60.2600   46.8310  103.7270 H   0  0  0  0  0
   58.9300   45.5670  102.7160 H   0  0  0  0  0
   58.9830   45.4000  100.6490 H   0  0  0  0  0
   60.5230   47.3160   94.5590 H   0  0  0  0  0
   61.9070   48.4150   93.4500 H   0  0  0  0  0
   63.8170   47.5780   93.0320 H   0  0  0  0  0
   64.2780   45.6670   93.7370 H   0  0  0  0  0
   62.8950   44.5840   94.8370 H   0  0  0  0  0
  8  1  1  0  0  0
  2  1  1  0  0  0
  1 11  1  0  0  0
  3  2  1  0  0  0
  2 10  2  0  0  0
  4  3  1  0  0  0
 25  3  1  0  0  0
  5  4  1  0  0  0
  4  7  1  0  0  0
 19  5  1  0  0  0
  6  5  2  0  0  0
 26  7  1  0  0  0
  7  8  1  0  0  0
  8  9  2  0  0  0
 11 12  2  0  0  0
 11 27  1  0  0  0
 28 12  1  0  0  0
 12 13  1  0  0  0
 13 14  2  0  0  0
 13 18  1  0  0  0
 29 14  1  0  0  0
 14 15  1  0  0  0
 15 30  1  0  0  0
 15 16  2  0  0  0
 17 16  1  0  0  0
 16 31  1  0  0  0
 18 17  2  0  0  0
 17 32  1  0  0  0
 33 18  1  0  0  0
 20 19  2  0  0  0
 24 19  1  0  0  0
 21 20  1  0  0  0
 20 34  1  0  0  0
 35 21  1  0  0  0
 22 21  2  0  0  0
 36 22  1  0  0  0
 22 23  1  0  0  0
 37 23  1  0  0  0
 23 24  2  0  0  0
 24 38  1  0  0  0
M  END
$$$$
23878_ChemDiv_000A-0531.pdb
 OpenBabel06131021413D

 36 37  0  0  0  0  0  0  0  0999 V2000
   62.3560   48.7360  100.1490 C   0  0  0  0  0
   62.9660   48.1320   99.6060 C   0  0  0  0  0
   62.6310   47.2390   99.3030 C   0  0  0  0  0
   61.7120   46.9380   99.5270 N   0  0  0  0  0
   61.0950   47.5500  100.0770 C   0  0  0  0  0
   61.4160   48.4440  100.3860 N   0  0  0  0  0
   60.8210   49.0340  100.9160 C   0  0  0  0  0
   60.1610   47.2630  100.3140 O   0  0  0  0  0
   63.2290   46.6460   98.7710 O   0  0  0  0  0
   63.8160   48.5950   99.4900 N   0  0  0  0  0
   63.7970   49.4810   99.9320 C   0  0  0  0  0
   62.8610   49.5710  100.3550 N   0  0  0  0  0
   64.5940   48.2170   98.9900 C   0  0  0  0  0
   61.3910   46.0430   99.2180 C   0  0  0  0  0
   60.8970   45.9690   98.3570 C   0  0  0  0  0
   60.5920   45.0900   98.0480 C   0  0  0  0  0
   60.0330   45.0120   97.2410 C   0  0  0  0  0
   59.6840   44.1220   96.9580 C   0  0  0  0  0
   59.0480   43.4990   97.4950 O   0  0  0  0  0
   59.9440   43.7680   96.0980 C   0  0  0  0  0
   59.8150   48.5200  101.0710 H   0  0  0  0  0
   60.6770   50.0310  100.3820 H   0  0  0  0  0
   61.3000   49.2340  101.9310 H   0  0  0  0  0
   64.6120   50.2210   99.9650 H   0  0  0  0  0
   64.3250   47.1830   98.5920 H   0  0  0  0  0
   65.5070   48.1530   99.6700 H   0  0  0  0  0
   64.8450   48.9020   98.1140 H   0  0  0  0  0
   62.2800   45.3300   99.1870 H   0  0  0  0  0
   60.5910   45.7840   99.9880 H   0  0  0  0  0
   60.6940   46.8690   97.7550 H   0  0  0  0  0
   60.8760   44.1840   98.6070 H   0  0  0  0  0
   59.1520   45.7280   97.3430 H   0  0  0  0  0
   60.7720   45.2590   96.4090 H   0  0  0  0  0
   60.6370   44.5070   95.5760 H   0  0  0  0  0
   59.0220   43.5710   95.4570 H   0  0  0  0  0
   60.4940   42.7810   96.2500 H   0  0  0  0  0
  2  1  2  0  0  0
  1 12  1  0  0  0
  1  6  1  0  0  0
  3  2  1  0  0  0
 10  2  1  0  0  0
  9  3  2  0  0  0
  3  4  1  0  0  0
 14  4  1  0  0  0
  4  5  1  0  0  0
  5  8  2  0  0  0
  5  6  1  0  0  0
  6  7  1  0  0  0
 22  7  1  0  0  0
  7 21  1  0  0  0
  7 23  1  0  0  0
 13 10  1  0  0  0
 10 11  1  0  0  0
 11 24  1  0  0  0
 11 12  2  0  0  0
 27 13  1  0  0  0
 25 13  1  0  0  0
 13 26  1  0  0  0
 15 14  1  0  0  0
 28 14  1  0  0  0
 14 29  1  0  0  0
 30 15  1  0  0  0
 16 15  2  0  0  0
 17 16  1  0  0  0
 16 31  1  0  0  0
 33 17  1  0  0  0
 18 17  1  0  0  0
 17 32  1  0  0  0
 20 18  1  0  0  0
 18 19  2  0  0  0
 35 20  1  0  0  0
 34 20  1  0  0  0
 20 36  1  0  0  0
M  END
$$$$
23878_ChemDiv_000A-0531.pdb
 OpenBabel06131021413D

 36 37  0  0  0  0  0  0  0  0999 V2000
   62.4900   48.6810  100.1050 C   0  0  0  0  0
   63.0780   47.9720   99.6770 C   0  0  0  0  0
   62.6810   47.0870   99.4300 C   0  0  0  0  0
   61.7220   46.8960   99.5980 N   0  0  0  0  0
   61.1260   47.6150  100.0310 C   0  0  0  0  0
   61.5090   48.5020  100.2830 N   0  0  0  0  0
   60.9350   49.1950  100.7000 C   0  0  0  0  0
   60.1520   47.4390  100.2090 O   0  0  0  0  0
   63.2570   46.3920   99.0110 O   0  0  0  0  0
   63.9760   48.3420   99.5950 N   0  0  0  0  0
   64.0110   49.2660   99.9490 C   0  0  0  0  0
   63.0580   49.4840  100.2760 N   0  0  0  0  0
   64.7500   47.8460   99.2040 C   0  0  0  0  0
   61.3390   46.0070   99.3460 C   0  0  0  0  0
   60.9350   45.8840   98.4440 C   0  0  0  0  0
   60.6830   44.9850   98.1460 C   0  0  0  0  0
   60.2540   44.8540   97.2700 C   0  0  0  0  0
   59.9400   43.9470   96.9970 C   0  0  0  0  0
   60.4980   43.0700   96.9770 O   0  0  0  0  0
   59.0230   43.8340   96.7150 C   0  0  0  0  0
   59.8740   48.7940  100.8110 H   0  0  0  0  0
   60.9350   50.1420  100.0650 H   0  0  0  0  0
   61.3480   49.4530  101.7310 H   0  0  0  0  0
   64.8910   49.9280   99.9860 H   0  0  0  0  0
   64.4120   46.8060   98.8810 H   0  0  0  0  0
   65.5940   47.7680   99.9660 H   0  0  0  0  0
   65.1370   48.4130   98.2940 H   0  0  0  0  0
   62.1420   45.2120   99.4940 H   0  0  0  0  0
   60.4380   45.9170  100.0380 H   0  0  0  0  0
   60.7730   46.7520   97.7860 H   0  0  0  0  0
   60.8810   44.1170   98.7950 H   0  0  0  0  0
   59.3780   45.5790   97.1860 H   0  0  0  0  0
   61.1160   45.0410   96.5470 H   0  0  0  0  0
   58.8410   42.7420   96.4420 H   0  0  0  0  0
   58.7990   44.5070   95.8230 H   0  0  0  0  0
   58.3290   44.1270   97.5710 H   0  0  0  0  0
  2  1  2  0  0  0
  1 12  1  0  0  0
  1  6  1  0  0  0
  3  2  1  0  0  0
 10  2  1  0  0  0
  9  3  2  0  0  0
  3  4  1  0  0  0
 14  4  1  0  0  0
  4  5  1  0  0  0
  5  8  2  0  0  0
  5  6  1  0  0  0
  6  7  1  0  0  0
 22  7  1  0  0  0
  7 21  1  0  0  0
  7 23  1  0  0  0
 13 10  1  0  0  0
 10 11  1  0  0  0
 11 24  1  0  0  0
 11 12  2  0  0  0
 27 13  1  0  0  0
 25 13  1  0  0  0
 13 26  1  0  0  0
 15 14  1  0  0  0
 14 28  1  0  0  0
 14 29  1  0  0  0
 30 15  1  0  0  0
 16 15  2  0  0  0
 17 16  1  0  0  0
 16 31  1  0  0  0
 33 17  1  0  0  0
 18 17  1  0  0  0
 32 17  1  0  0  0
 20 18  1  0  0  0
 19 18  2  0  0  0
 35 20  1  0  0  0
 34 20  1  0  0  0
 20 36  1  0  0  0
M  END
$$$$
23878_ChemDiv_000A-0531.pdb
 OpenBabel06131021413D

 36 37  0  0  0  0  0  0  0  0999 V2000
   62.8100   48.0550   99.9980 C   0  0  0  0  0
   61.8270   48.0040  100.2490 C   0  0  0  0  0
   61.2850   47.2150   99.9590 C   0  0  0  0  0
   61.6960   46.4830   99.4290 N   0  0  0  0  0
   62.6920   46.5350   99.1740 C   0  0  0  0  0
   63.2450   47.3170   99.4570 N   0  0  0  0  0
   64.2040   47.3660   99.2110 C   0  0  0  0  0
   63.1250   45.8030   98.6380 O   0  0  0  0  0
   60.3220   47.1650  100.2060 O   0  0  0  0  0
   61.6110   48.8050  100.7620 N   0  0  0  0  0
   62.4080   49.3850  100.8620 C   0  0  0  0  0
   63.1770   48.9040  100.3720 N   0  0  0  0  0
   60.7050   49.0030  101.1320 C   0  0  0  0  0
   61.1420   45.7010   99.1460 C   0  0  0  0  0
   60.6830   45.7170   98.2620 C   0  0  0  0  0
   60.2870   44.8940   97.9070 C   0  0  0  0  0
   59.8970   44.8790   97.0040 C   0  0  0  0  0
   59.5720   44.0210   96.6140 C   0  0  0  0  0
   60.1200   43.1480   96.4750 O   0  0  0  0  0
   58.6530   43.9560   96.3210 C   0  0  0  0  0
   64.4900   46.4420   98.6080 H   0  0  0  0  0
   64.8490   47.4400  100.1480 H   0  0  0  0  0
   64.3810   48.2970   98.5770 H   0  0  0  0  0
   62.4620   50.3500  101.3910 H   0  0  0  0  0
   59.9900   48.1580  100.8590 H   0  0  0  0  0
   60.3190   49.9940  100.7220 H   0  0  0  0  0
   60.7730   49.0850  102.2670 H   0  0  0  0  0
   61.7860   44.7620   99.2020 H   0  0  0  0  0
   60.2710   45.7340   99.8800 H   0  0  0  0  0
   60.6210   46.6540   97.6870 H   0  0  0  0  0
   60.2780   43.9810   98.5220 H   0  0  0  0  0
   59.0460   45.6370   96.9670 H   0  0  0  0  0
   60.7970   45.1200   96.3470 H   0  0  0  0  0
   58.4590   42.9120   95.9060 H   0  0  0  0  0
   58.4360   44.7440   95.5260 H   0  0  0  0  0
   57.9630   44.1400   97.2090 H   0  0  0  0  0
  6  1  1  0  0  0
  1  2  2  0  0  0
  1 12  1  0  0  0
  3  2  1  0  0  0
  2 10  1  0  0  0
  4  3  1  0  0  0
  3  9  2  0  0  0
 14  4  1  0  0  0
  5  4  1  0  0  0
  8  5  2  0  0  0
  5  6  1  0  0  0
  7  6  1  0  0  0
 23  7  1  0  0  0
 21  7  1  0  0  0
  7 22  1  0  0  0
 10 11  1  0  0  0
 10 13  1  0  0  0
 12 11  2  0  0  0
 11 24  1  0  0  0
 26 13  1  0  0  0
 25 13  1  0  0  0
 13 27  1  0  0  0
 15 14  1  0  0  0
 14 28  1  0  0  0
 14 29  1  0  0  0
 30 15  1  0  0  0
 16 15  2  0  0  0
 17 16  1  0  0  0
 16 31  1  0  0  0
 33 17  1  0  0  0
 18 17  1  0  0  0
 32 17  1  0  0  0
 20 18  1  0  0  0
 19 18  2  0  0  0
 35 20  1  0  0  0
 34 20  1  0  0  0
 20 36  1  0  0  0
M  END
$$$$
23879_ChemDiv_000A-0034.pdb
 OpenBabel06131021413D

 52 53  0  0  0  0  0  0  0  0999 V2000
   62.0140   47.8390   96.4560 C   0  0  0  0  0
   62.3530   47.7050   95.5250 C   0  0  0  0  0
   62.3060   46.8260   95.1110 C   0  0  0  0  0
   62.6610   46.6960   94.1440 C   0  0  0  0  0
   63.0320   47.4380   93.6580 C   0  0  0  0  0
   63.0820   48.3640   94.0900 C   0  0  0  0  0
   62.7410   48.4990   95.0290 C   0  0  0  0  0
   62.7930   49.3660   95.4200 C   0  0  0  0  0
   62.4610   49.5270   96.3500 C   0  0  0  0  0
   62.0670   48.7640   96.8800 C   0  0  0  0  0
   61.7370   48.8940   97.7880 C   0  0  0  0  0
   61.3440   48.1020   98.2950 C   0  0  0  0  0
   61.2980   47.2330   97.8890 C   0  0  0  0  0
   61.6330   47.0910   96.9610 C   0  0  0  0  0
   61.7790   49.7960   98.2250 C   0  0  0  0  0
   62.5300   49.9940   98.8680 C   0  0  0  0  0
   62.6390   50.9290   99.1900 N   0  0  0  0  0
   62.1220   51.2480   99.9750 C   0  0  0  0  0
   63.2660   51.5420   98.7270 C   0  0  0  0  0
   60.8930   46.4770   98.4500 O   0  0  0  0  0
   61.4890   45.9250   99.0590 C   0  0  0  0  0
   61.5780   46.1580   96.5380 O   0  0  0  0  0
   60.6790   45.7590   96.3350 C   0  0  0  0  0
   62.6240   45.7950   93.6920 O   0  0  0  0  0
   63.2710   45.0530   93.9420 C   0  0  0  0  0
   63.3580   47.2910   92.7510 O   0  0  0  0  0
   62.7740   47.5160   91.9610 C   0  0  0  0  0
   61.8790   45.9750   95.6640 H   0  0  0  0  0
   63.5080   49.2120   93.5300 H   0  0  0  0  0
   63.2230   50.2000   94.8430 H   0  0  0  0  0
   62.5250   50.5330   96.7940 H   0  0  0  0  0
   60.9680   48.2440   99.3200 H   0  0  0  0  0
   61.0160   50.5590   98.0060 H   0  0  0  0  0
   63.2110   49.1970   99.2050 H   0  0  0  0  0
   62.3840   52.3370  100.1860 H   0  0  0  0  0
   62.3510   50.6030  100.8870 H   0  0  0  0  0
   61.0080   51.1680   99.7480 H   0  0  0  0  0
   63.7610   50.9950   97.8580 H   0  0  0  0  0
   64.0560   51.9220   99.4550 H   0  0  0  0  0
   62.6860   52.4380   98.3250 H   0  0  0  0  0
   60.8610   45.1390   99.5960 H   0  0  0  0  0
   62.0110   46.5980   99.8170 H   0  0  0  0  0
   62.2850   45.4040   98.4320 H   0  0  0  0  0
   60.8170   44.7260   95.8720 H   0  0  0  0  0
   60.0980   46.4360   95.6250 H   0  0  0  0  0
   60.0860   45.6590   97.3030 H   0  0  0  0  0
   63.0520   44.1290   93.3120 H   0  0  0  0  0
   63.1780   44.8060   95.0510 H   0  0  0  0  0
   64.3370   45.4010   93.7380 H   0  0  0  0  0
   63.3300   47.2740   90.9960 H   0  0  0  0  0
   62.4850   48.6190   91.9850 H   0  0  0  0  0
   61.8210   46.8930   92.0100 H   0  0  0  0  0
  2  1  2  0  0  0
  1 10  1  0  0  0
  1 14  1  0  0  0
  7  2  1  0  0  0
  3  2  1  0  0  0
  4  3  2  0  0  0
  5  4  1  0  0  0
 24  4  1  0  0  0
 26  5  1  0  0  0
  5  6  2  0  0  0
 29  6  1  0  0  0
  6  7  1  0  0  0
  7  8  2  0  0  0
 30  8  1  0  0  0
  8  9  1  0  0  0
  9 31  1  0  0  0
  9 10  2  0  0  0
 10 11  1  0  0  0
 11 15  1  0  0  0
 11 12  2  0  0  0
 13 12  1  0  0  0
 12 32  1  0  0  0
 14 13  2  0  0  0
 13 20  1  0  0  0
 33 15  1  0  0  0
 15 16  2  0  0  0
 16 17  1  0  0  0
 16 34  1  0  0  0
 19 17  1  0  0  0
 17 18  1  0  0  0
 37 18  1  0  0  0
 18 35  1  0  0  0
 18 36  1  0  0  0
 38 19  1  0  0  0
 40 19  1  0  0  0
 19 39  1  0  0  0
 20 21  1  0  0  0
 43 21  1  0  0  0
 21 41  1  0  0  0
 21 42  1  0  0  0
 28 22  1  0  0  0
 23 22  1  0  0  0
 45 23  1  0  0  0
 44 23  1  0  0  0
 23 46  1  0  0  0
 24 25  1  0  0  0
 47 25  1  0  0  0
 49 25  1  0  0  0
 25 48  1  0  0  0
 27 26  1  0  0  0
 50 27  1  0  0  0
 27 51  1  0  0  0
 27 52  1  0  0  0
M  END
$$$$
23879_ChemDiv_000A-0034.pdb
 OpenBabel06131021413D

 52 53  0  0  0  0  0  0  0  0999 V2000
   61.8880   48.0930   98.0410 C   0  0  0  0  0
   61.9850   47.7560   97.1050 C   0  0  0  0  0
   61.5630   46.9200   96.8420 C   0  0  0  0  0
   61.6690   46.5770   95.8680 C   0  0  0  0  0
   62.1800   47.0810   95.2280 C   0  0  0  0  0
   62.6250   47.9600   95.5000 C   0  0  0  0  0
   62.5270   48.3010   96.4450 C   0  0  0  0  0
   62.9470   49.1210   96.6860 C   0  0  0  0  0
   62.8660   49.4810   97.6160 C   0  0  0  0  0
   62.3340   48.9710   98.3060 C   0  0  0  0  0
   62.2390   49.2990   99.2190 C   0  0  0  0  0
   61.6950   48.7590   99.8900 C   0  0  0  0  0
   61.2780   47.9330   99.6330 C   0  0  0  0  0
   61.3700   47.5900   98.7020 C   0  0  0  0  0
   62.6700   50.1600   99.5010 C   0  0  0  0  0
   62.1170   51.0030   99.5160 C   0  0  0  0  0
   62.5640   51.8550   99.7660 N   0  0  0  0  0
   62.9710   52.4280   99.0660 C   0  0  0  0  0
   62.6040   52.1330  100.7180 C   0  0  0  0  0
   60.7450   47.4360  100.3530 O   0  0  0  0  0
   61.2090   46.7520  100.9430 C   0  0  0  0  0
   60.9190   46.7070   98.4400 O   0  0  0  0  0
   59.9170   46.6480   98.4220 C   0  0  0  0  0
   61.2420   45.7140   95.5690 O   0  0  0  0  0
   61.6490   44.8140   95.8080 C   0  0  0  0  0
   62.2650   46.7380   94.3190 O   0  0  0  0  0
   61.6860   47.1090   93.5820 C   0  0  0  0  0
   60.9770   46.3410   97.5730 H   0  0  0  0  0
   63.2100   48.5340   94.7640 H   0  0  0  0  0
   63.5270   49.6780   95.9340 H   0  0  0  0  0
   63.3550   50.4300   97.8860 H   0  0  0  0  0
   61.5840   49.1270  100.9220 H   0  0  0  0  0
   63.7330   50.1840   99.7900 H   0  0  0  0  0
   61.0450   50.9800   99.2620 H   0  0  0  0  0
   62.8240   51.9440   98.0450 H   0  0  0  0  0
   64.0820   52.5780   99.2750 H   0  0  0  0  0
   62.4620   53.4480   99.0740 H   0  0  0  0  0
   63.1520   53.1290  100.8010 H   0  0  0  0  0
   63.1340   51.3380  101.3390 H   0  0  0  0  0
   61.5430   52.2540  101.1180 H   0  0  0  0  0
   60.4570   46.3100  101.6770 H   0  0  0  0  0
   62.0720   47.2380  101.5070 H   0  0  0  0  0
   61.6300   45.9180  100.2900 H   0  0  0  0  0
   59.6030   45.5970   98.1100 H   0  0  0  0  0
   59.4890   47.4180   97.6990 H   0  0  0  0  0
   59.5100   46.8670   99.4640 H   0  0  0  0  0
   61.0080   43.9780   95.3710 H   0  0  0  0  0
   61.7240   44.7030   96.9400 H   0  0  0  0  0
   62.6990   44.7490   95.3690 H   0  0  0  0  0
   61.9340   46.5830   92.6020 H   0  0  0  0  0
   61.8500   48.2320   93.4790 H   0  0  0  0  0
   60.5900   46.9270   93.8390 H   0  0  0  0  0
  2  1  2  0  0  0
  1 10  1  0  0  0
  1 14  1  0  0  0
  7  2  1  0  0  0
  3  2  1  0  0  0
  4  3  2  0  0  0
  5  4  1  0  0  0
 24  4  1  0  0  0
 26  5  1  0  0  0
  5  6  2  0  0  0
 29  6  1  0  0  0
  6  7  1  0  0  0
  7  8  2  0  0  0
 30  8  1  0  0  0
  8  9  1  0  0  0
  9 31  1  0  0  0
  9 10  2  0  0  0
 10 11  1  0  0  0
 11 15  1  0  0  0
 11 12  2  0  0  0
 13 12  1  0  0  0
 12 32  1  0  0  0
 14 13  2  0  0  0
 13 20  1  0  0  0
 15 16  2  0  0  0
 15 33  1  0  0  0
 34 16  1  0  0  0
 16 17  1  0  0  0
 18 17  1  0  0  0
 17 19  1  0  0  0
 35 18  1  0  0  0
 18 37  1  0  0  0
 18 36  1  0  0  0
 19 38  1  0  0  0
 19 40  1  0  0  0
 19 39  1  0  0  0
 20 21  1  0  0  0
 43 21  1  0  0  0
 21 42  1  0  0  0
 21 41  1  0  0  0
 28 22  1  0  0  0
 23 22  1  0  0  0
 45 23  1  0  0  0
 44 23  1  0  0  0
 23 46  1  0  0  0
 24 25  1  0  0  0
 49 25  1  0  0  0
 47 25  1  0  0  0
 25 48  1  0  0  0
 27 26  1  0  0  0
 50 27  1  0  0  0
 51 27  1  0  0  0
 27 52  1  0  0  0
M  END
$$$$
23880_ChemDiv_000A-0570.pdb
 OpenBabel06131021413D

 34 35  0  0  0  0  0  0  0  0999 V2000
   60.7710   46.8380   99.1960 C   0  0  0  0  0
   60.7820   46.1030   98.5250 N   0  0  0  0  0
   61.0280   46.3080   97.6360 C   0  0  0  0  0
   61.2720   47.2290   97.3590 N   0  0  0  0  0
   61.0140   47.7600   98.9230 C   0  0  0  0  0
   61.0120   48.4770   99.5420 C   0  0  0  0  0
   60.7630   48.2790  100.4510 N   0  0  0  0  0
   60.5200   47.3570  100.7240 C   0  0  0  0  0
   60.5350   46.6730  100.0770 N   0  0  0  0  0
   60.2970   45.7700  100.3440 C   0  0  0  0  0
   60.2670   47.1660  101.6550 O   0  0  0  0  0
   61.2410   49.3450   99.2850 O   0  0  0  0  0
   60.9660   45.4600   97.1840 S   0  0  0  0  0
   60.2490   45.2880   96.5670 C   0  0  0  0  0
   60.1350   44.4120   96.1830 C   0  0  0  0  0
   59.4790   44.2720   95.5540 C   0  0  0  0  0
   59.6650   44.4400   94.6290 O   0  0  0  0  0
   58.6440   43.9720   95.8080 O   0  0  0  0  0
   61.5350   47.3950   96.3580 C   0  0  0  0  0
   61.7920   48.3020   96.0160 C   0  0  0  0  0
   62.0180   48.4370   95.0530 O   0  0  0  0  0
   62.2350   49.3510   94.7030 C   0  0  0  0  0
   60.5180   45.0920   98.8070 H   0  0  0  0  0
   61.2930   47.9550   97.8750 H   0  0  0  0  0
   61.0500   44.9150  100.3700 H   0  0  0  0  0
   59.5420   44.9990   99.9770 H   0  0  0  0  0
   59.5530   46.0980   96.2970 H   0  0  0  0  0
   60.7880   43.5820   96.4960 H   0  0  0  0  0
   57.8910   43.8120   95.0750 H   0  0  0  0  0
   61.5290   46.5440   95.6580 H   0  0  0  0  0
   61.8250   49.1570   96.7090 H   0  0  0  0  0
   62.4620   49.2870   93.5880 H   0  0  0  0  0
   63.1270   49.7870   95.2630 H   0  0  0  0  0
   61.3390   50.0370   94.8640 H   0  0  0  0  0
  2  1  1  0  0  0
  5  1  2  0  0  0
  1  9  1  0  0  0
  3  2  1  0  0  0
  2 23  1  0  0  0
 13  3  1  0  0  0
  4  3  1  0  0  0
 19  4  2  0  0  0
  4 24  1  0  0  0
  5  6  1  0  0  0
 12  6  2  0  0  0
  6  7  1  0  0  0
  7  8  2  0  0  0
  9  8  1  0  0  0
  8 11  1  0  0  0
  9 10  1  0  0  0
 26 10  1  0  0  0
 10 25  1  0  0  0
 10 11  1  0  0  0
 14 13  1  0  0  0
 15 14  2  0  0  0
 27 14  1  0  0  0
 16 15  1  0  0  0
 15 28  1  0  0  0
 17 16  2  0  0  0
 16 18  1  0  0  0
 29 18  1  0  0  0
 30 19  1  0  0  0
 20 19  1  0  0  0
 21 20  1  0  0  0
 20 31  1  0  0  0
 22 21  1  0  0  0
 32 22  1  0  0  0
 22 34  1  0  0  0
 22 33  1  0  0  0
M  END
$$$$
23880_ChemDiv_000A-0570.pdb
 OpenBabel06131021413D

 34 35  0  0  0  0  0  0  0  0999 V2000
   61.6440   47.9160   97.5280 C   0  0  0  0  0
   61.4610   46.9700   97.2800 N   0  0  0  0  0
   60.9800   46.4300   97.8890 C   0  0  0  0  0
   60.6570   46.7810   98.7590 N   0  0  0  0  0
   61.3230   48.2710   98.3970 C   0  0  0  0  0
   61.4840   49.1680   98.6560 C   0  0  0  0  0
   61.9730   49.7260   98.0430 N   0  0  0  0  0
   62.2940   49.3720   97.1740 C   0  0  0  0  0
   62.1130   48.4740   96.9550 N   0  0  0  0  0
   62.4270   48.1270   96.1050 C   0  0  0  0  0
   62.7940   49.9520   96.5560 O   0  0  0  0  0
   61.1820   49.5020   99.4740 O   0  0  0  0  0
   60.9280   45.5790   97.4420 S   0  0  0  0  0
   60.0950   45.2750   97.0680 C   0  0  0  0  0
   60.0490   44.4370   96.5960 C   0  0  0  0  0
   59.2610   44.1840   96.1930 C   0  0  0  0  0
   58.6260   43.6600   96.6830 O   0  0  0  0  0
   59.0810   44.4310   95.3220 O   0  0  0  0  0
   60.1280   46.1340   99.3920 C   0  0  0  0  0
   59.8820   46.3870  100.3300 C   0  0  0  0  0
   59.8240   45.6930  101.0460 O   0  0  0  0  0
   59.7180   45.9580  102.0060 C   0  0  0  0  0
   60.7660   47.6070   99.0770 H   0  0  0  0  0
   63.2430   47.3350   96.0250 H   0  0  0  0  0
   61.9320   47.6050   95.2210 H   0  0  0  0  0
   59.1880   45.8900   97.1810 H   0  0  0  0  0
   60.9350   43.7850   96.5390 H   0  0  0  0  0
   57.7140   43.3640   96.2240 H   0  0  0  0  0
   59.8330   45.1430   99.0130 H   0  0  0  0  0
   58.8940   46.9550  100.3000 H   0  0  0  0  0
   60.7930   46.9890  100.6580 H   0  0  0  0  0
   59.6730   45.0230  102.6560 H   0  0  0  0  0
   58.7720   46.5790  102.1420 H   0  0  0  0  0
   60.6130   46.5900  102.3210 H   0  0  0  0  0
  9  1  1  0  0  0
  2  1  1  0  0  0
  1  5  2  0  0  0
  2  3  2  0  0  0
 13  3  1  0  0  0
  3  4  1  0  0  0
  4 23  1  0  0  0
  4 19  2  0  0  0
  5  6  1  0  0  0
  7  6  1  0  0  0
  6 12  2  0  0  0
  8  7  2  0  0  0
 11  8  1  0  0  0
  9  8  1  0  0  0
 10  9  1  0  0  0
 25 10  1  0  0  0
 24 10  1  0  0  0
 10 11  1  0  0  0
 14 13  1  0  0  0
 15 14  2  0  0  0
 14 26  1  0  0  0
 16 15  1  0  0  0
 27 15  1  0  0  0
 18 16  2  0  0  0
 16 17  1  0  0  0
 28 17  1  0  0  0
 29 19  1  0  0  0
 19 20  1  0  0  0
 30 20  1  0  0  0
 20 31  1  0  0  0
 20 21  1  0  0  0
 21 22  1  0  0  0
 22 33  1  0  0  0
 22 34  1  0  0  0
 22 32  1  0  0  0
M  END
$$$$
23882_ChemDiv_1486-0459.pdb
 OpenBabel06131021413D

 54 56  0  0  0  0  0  0  0  0999 V2000
   62.2810   46.9520   95.3600 C   0  0  0  0  0
   62.5030   47.8690   95.5890 N   0  0  0  0  0
   62.1070   48.0680   96.4750 C   0  0  0  0  0
   61.6440   47.2860   96.7940 N   0  0  0  0  0
   61.7360   46.5830   96.1240 C   0  0  0  0  0
   61.4030   45.6500   96.0900 C   0  0  0  0  0
   61.6050   45.0570   95.2930 N   0  0  0  0  0
   62.1500   45.4270   94.5290 C   0  0  0  0  0
   62.4860   46.3840   94.5720 N   0  0  0  0  0
   63.0250   46.7490   93.8180 C   0  0  0  0  0
   62.3530   44.8300   93.7260 O   0  0  0  0  0
   60.8500   45.2740   96.8670 O   0  0  0  0  0
   62.1580   48.9340   96.9910 S   0  0  0  0  0
   63.0360   49.2050   97.3990 C   0  0  0  0  0
   63.0960   50.0380   97.9580 C   0  0  0  0  0
   62.2830   50.4070   98.4330 N   0  0  0  0  0
   63.9780   50.5160   98.0480 O   0  0  0  0  0
   62.3530   51.2270   98.9790 C   0  0  0  0  0
   62.2620   52.1310   98.5630 C   0  0  0  0  0
   62.3360   52.9450   99.1260 C   0  0  0  0  0
   62.5000   52.8750  100.1020 C   0  0  0  0  0
   62.5920   51.9640  100.5280 C   0  0  0  0  0
   62.5160   51.1380   99.9480 C   0  0  0  0  0
   61.1530   47.2250   97.6740 C   0  0  0  0  0
   61.6710   47.0270   98.5390 C   0  0  0  0  0
   61.1810   46.9570   99.4210 C   0  0  0  0  0
   61.6960   47.0700  100.2620 C   0  0  0  0  0
   61.2490   46.9610  101.1490 C   0  0  0  0  0
   61.5250   47.5080  101.9250 C   0  0  0  0  0
   61.0100   47.4460  102.7770 C   0  0  0  0  0
   61.3070   47.9630  103.5610 C   0  0  0  0  0
   60.7690   47.9900  104.3850 C   0  0  0  0  0
   61.2400   44.0380   95.2620 H   0  0  0  0  0
   63.1490   45.9480   93.0160 H   0  0  0  0  0
   64.0450   47.0940   94.1930 H   0  0  0  0  0
   62.4830   47.6470   93.3700 H   0  0  0  0  0
   63.9330   48.5880   97.2330 H   0  0  0  0  0
   61.3310   49.9000   98.3420 H   0  0  0  0  0
   62.0800   52.2240   97.4810 H   0  0  0  0  0
   62.2350   53.9390   98.6610 H   0  0  0  0  0
   62.5810   53.7850  100.7170 H   0  0  0  0  0
   62.7730   51.8700  101.6110 H   0  0  0  0  0
   62.6150   50.1380  100.3990 H   0  0  0  0  0
   60.0620   47.3710   97.7070 H   0  0  0  0  0
   62.7640   46.8910   98.5060 H   0  0  0  0  0
   60.0980   46.7590   99.4480 H   0  0  0  0  0
   62.7680   47.3170  100.2170 H   0  0  0  0  0
   61.3080   45.8620  101.4470 H   0  0  0  0  0
   60.2050   47.3660  100.9360 H   0  0  0  0  0
   62.3940   48.1800  101.8490 H   0  0  0  0  0
   60.1170   46.8050  102.8410 H   0  0  0  0  0
   62.2560   48.5200  103.5150 H   0  0  0  0  0
   59.8180   47.4360  104.4400 H   0  0  0  0  0
   61.1180   48.5740  105.2520 H   0  0  0  0  0
  9  1  1  0  0  0
  1  2  1  0  0  0
  1  5  2  0  0  0
  2  3  2  0  0  0
  3  4  1  0  0  0
  3 13  1  0  0  0
  5  4  1  0  0  0
  4 24  1  0  0  0
  6  5  1  0  0  0
  7  6  1  0  0  0
  6 12  2  0  0  0
  8  7  1  0  0  0
 33  7  1  0  0  0
 11  8  2  0  0  0
  8  9  1  0  0  0
 10  9  1  0  0  0
 34 10  1  0  0  0
 36 10  1  0  0  0
 10 35  1  0  0  0
 13 14  2  0  0  0
 37 14  1  0  0  0
 14 15  1  0  0  0
 15 17  2  0  0  0
 15 16  1  0  0  0
 38 16  1  0  0  0
 16 18  1  0  0  0
 19 18  2  0  0  0
 18 23  1  0  0  0
 39 19  1  0  0  0
 19 20  1  0  0  0
 40 20  1  0  0  0
 20 21  2  0  0  0
 21 22  1  0  0  0
 21 41  1  0  0  0
 23 22  2  0  0  0
 22 42  1  0  0  0
 23 43  1  0  0  0
 24 44  1  0  0  0
 24 25  2  0  0  0
 45 25  1  0  0  0
 25 26  1  0  0  0
 26 46  1  0  0  0
 26 27  2  0  0  0
 47 27  1  0  0  0
 27 28  1  0  0  0
 49 28  1  0  0  0
 28 48  1  0  0  0
 28 29  1  0  0  0
 50 29  1  0  0  0
 29 30  2  0  0  0
 30 51  1  0  0  0
 30 31  1  0  0  0
 52 31  1  0  0  0
 31 32  2  0  0  0
 32 53  1  0  0  0
 32 54  1  0  0  0
M  END
$$$$
23883_ChemDiv_000A-0047.pdb
 OpenBabel06131021413D

 32 31  0  0  0  0  0  0  0  0999 V2000
   60.5390   45.1120   96.9940 C   0  0  0  0  0
   61.3910   45.5150   97.1760 C   0  0  0  0  0
   62.0020   45.8060   96.4530 C   0  0  0  0  0
   61.7100   45.6710   95.4890 C   0  0  0  0  0
   60.8250   45.2520   95.3060 C   0  0  0  0  0
   60.2460   44.9760   96.0290 C   0  0  0  0  0
   59.3680   44.5600   95.8450 C   0  0  0  0  0
   58.7610   44.2710   96.5790 C   0  0  0  0  0
   59.0530   44.4060   97.5430 C   0  0  0  0  0
   59.9340   44.8230   97.7140 C   0  0  0  0  0
   60.2260   44.9590   98.6780 O   0  0  0  0  0
   57.8770   43.8530   96.3740 O   0  0  0  0  0
   60.5350   45.1170   94.3490 O   0  0  0  0  0
   62.8870   46.2250   96.6490 O   0  0  0  0  0
   61.6830   45.6510   98.1390 O   0  0  0  0  0
   62.3080   45.9560   94.7360 C   0  0  0  0  0
   62.2410   46.9110   94.3930 C   0  0  0  0  0
   62.8370   47.1710   93.6540 C   0  0  0  0  0
   63.4880   46.5400   93.2420 C   0  0  0  0  0
   62.7880   48.1160   93.2960 O   0  0  0  0  0
   63.5550   45.5850   93.5850 C   0  0  0  0  0
   64.0830   46.8260   92.4920 O   0  0  0  0  0
   62.9330   45.3060   94.3600 C   0  0  0  0  0
   62.0710   45.9400   94.4420 H   0  0  0  0  0
   59.0530   44.4120   94.8000 H   0  0  0  0  0
   59.0130   43.4020   98.0810 H   0  0  0  0  0
   58.3130   45.1780   97.9390 H   0  0  0  0  0
   61.1630   47.1180   94.0870 H   0  0  0  0  0
   62.5950   47.5460   95.2710 H   0  0  0  0  0
   64.6340   45.3780   93.8880 H   0  0  0  0  0
   63.1950   44.9540   92.7060 H   0  0  0  0  0
   62.9740   44.2810   94.7610 H   0  0  0  0  0
  6  1  1  0  0  0
  1  2  1  0  0  0
  1 10  2  0  0  0
  3  2  1  0  0  0
  2 15  2  0  0  0
  4  3  1  0  0  0
  3 14  2  0  0  0
 16  4  1  0  0  0
  5  4  1  0  0  0
 13  5  2  0  0  0
  5  6  1  0  0  0
  7  6  2  0  0  0
 25  7  1  0  0  0
  7  8  1  0  0  0
 12  8  2  0  0  0
  8  9  1  0  0  0
  9 10  1  0  0  0
  9 27  1  0  0  0
  9 26  1  0  0  0
 10 11  1  0  0  0
 15 11  1  0  0  0
 23 16  2  0  0  0
 18 17  1  0  0  0
 17 24  1  0  0  0
 19 18  1  0  0  0
 20 18  2  0  0  0
 22 19  2  0  0  0
 19 21  1  0  0  0
 31 21  1  0  0  0
 21 30  1  0  0  0
 21 23  1  0  0  0
M  END
$$$$
23883_ChemDiv_000A-0047.pdb
 OpenBabel06131021423D

 32 30  0  0  0  0  0  0  0  0999 V2000
   60.5220   45.1040   96.9800 C   0  0  0  0  0
   61.3550   45.5360   97.1820 C   0  0  0  0  0
   61.9620   45.8710   96.4750 C   0  0  0  0  0
   61.6860   45.7500   95.5040 C   0  0  0  0  0
   60.8200   45.3010   95.3000 C   0  0  0  0  0
   60.2460   44.9830   96.0090 C   0  0  0  0  0
   59.3870   44.5380   95.8030 C   0  0  0  0  0
   58.7840   44.2040   96.5220 C   0  0  0  0  0
   59.0600   44.3250   97.4930 C   0  0  0  0  0
   59.9220   44.7730   97.6850 C   0  0  0  0  0
   60.1980   44.8940   98.6560 O   0  0  0  0  0
   57.9200   43.7570   96.2960 O   0  0  0  0  0
   60.5460   45.1810   94.3360 O   0  0  0  0  0
   62.8280   46.3200   96.6920 O   0  0  0  0  0
   61.6310   45.6570   98.1530 O   0  0  0  0  0
   62.2800   46.0790   94.7660 C   0  0  0  0  0
   62.1780   47.0400   94.4480 C   0  0  0  0  0
   62.7710   47.3430   93.7230 C   0  0  0  0  0
   63.4510   46.7500   93.3020 C   0  0  0  0  0
   62.6880   48.2950   93.3900 O   0  0  0  0  0
   63.5530   45.7890   93.6200 C   0  0  0  0  0
   64.0420   47.0800   92.5670 O   0  0  0  0  0
   62.9340   45.4660   94.3800 C   0  0  0  0  0
   62.0620   46.0010   94.4570 H   0  0  0  0  0
   59.0890   44.4080   94.7500 H   0  0  0  0  0
   59.0560   43.3060   98.0040 H   0  0  0  0  0
   58.2850   45.0550   97.9000 H   0  0  0  0  0
   61.0950   47.2120   94.1350 H   0  0  0  0  0
   62.4960   47.6650   95.3470 H   0  0  0  0  0
   64.6360   45.6170   93.9300 H   0  0  0  0  0
   63.2300   45.1670   92.7210 H   0  0  0  0  0
   63.0110   44.4330   94.7540 H   0  0  0  0  0
  6  1  1  0  0  0
  1  2  1  0  0  0
  1 10  2  0  0  0
  3  2  1  0  0  0
  2 15  2  0  0  0
  4  3  1  0  0  0
  3 14  2  0  0  0
 16  4  1  0  0  0
  5  4  1  0  0  0
 13  5  2  0  0  0
  5  6  1  0  0  0
  7  6  2  0  0  0
 25  7  1  0  0  0
  7  8  1  0  0  0
 12  8  2  0  0  0
  8  9  1  0  0  0
  9 10  1  0  0  0
  9 27  1  0  0  0
  9 26  1  0  0  0
 10 11  1  0  0  0
 15 11  1  0  0  0
 23 16  2  0  0  0
 17 16  1  0  0  0
 18 17  1  0  0  0
 19 18  1  0  0  0
 20 18  2  0  0  0
 22 19  2  0  0  0
 19 21  1  0  0  0
 31 21  1  0  0  0
 21 30  1  0  0  0
M  END
$$$$
23884_ChemDiv_1863-1069.pdb
 OpenBabel06131021423D

 32 33  0  0  0  0  0  0  0  0999 V2000
   60.6510   45.2220   96.9360 C   0  0  0  0  0
   60.7980   45.5320   95.9970 C   0  0  0  0  0
   60.2020   45.2230   95.2730 C   0  0  0  0  0
   59.4470   44.5960   95.4760 N   0  0  0  0  0
   59.2990   44.2860   96.4150 C   0  0  0  0  0
   59.9040   44.5960   97.1710 N   0  0  0  0  0
   59.7580   44.2880   98.1030 C   0  0  0  0  0
   58.5530   43.6590   96.6500 O   0  0  0  0  0
   60.3500   45.5330   94.3340 O   0  0  0  0  0
   61.5860   46.1390   96.0100 N   0  0  0  0  0
   61.9220   46.2060   96.9330 C   0  0  0  0  0
   61.3480   45.6390   97.5250 N   0  0  0  0  0
   62.7030   46.7470   97.2340 S   0  0  0  0  0
   62.5470   47.5840   97.7760 C   0  0  0  0  0
   63.3190   48.0670   98.1550 C   0  0  0  0  0
   63.1430   48.8680   98.6750 O   0  0  0  0  0
   64.2650   47.7430   98.0080 N   0  0  0  0  0
   61.9840   46.6130   95.2130 C   0  0  0  0  0
   62.7380   46.1940   94.6820 C   0  0  0  0  0
   61.6370   47.5240   94.9260 C   0  0  0  0  0
   58.7950   44.2560   94.6820 H   0  0  0  0  0
   58.8590   43.5870   98.1360 H   0  0  0  0  0
   59.5880   45.1810   98.7920 H   0  0  0  0  0
   60.6840   43.7270   98.4620 H   0  0  0  0  0
   61.5230   47.9550   97.9430 H   0  0  0  0  0
   64.4460   46.8480   97.4260 H   0  0  0  0  0
   65.0970   48.2910   98.4320 H   0  0  0  0  0
   63.1620   46.7240   93.8140 H   0  0  0  0  0
   63.1340   45.2080   94.9720 H   0  0  0  0  0
   62.2170   47.8810   94.0120 H   0  0  0  0  0
   61.7430   48.2730   95.7790 H   0  0  0  0  0
   60.5320   47.4370   94.6590 H   0  0  0  0  0
  2  1  2  0  0  0
  1  6  1  0  0  0
  1 12  1  0  0  0
  3  2  1  0  0  0
  2 10  1  0  0  0
  9  3  2  0  0  0
  3  4  1  0  0  0
 21  4  1  0  0  0
  4  5  1  0  0  0
  5  8  2  0  0  0
  5  6  1  0  0  0
  6  7  1  0  0  0
  7 22  1  0  0  0
  7 24  1  0  0  0
  7 23  1  0  0  0
 18 10  1  0  0  0
 10 11  1  0  0  0
 11 13  1  0  0  0
 11 12  2  0  0  0
 13 14  2  0  0  0
 14 25  1  0  0  0
 14 15  1  0  0  0
 17 15  1  0  0  0
 15 16  2  0  0  0
 26 17  1  0  0  0
 17 27  1  0  0  0
 19 18  2  0  0  0
 20 18  1  0  0  0
 28 19  1  0  0  0
 19 29  1  0  0  0
 30 20  1  0  0  0
 32 20  1  0  0  0
 20 31  1  0  0  0
M  END
$$$$
23884_ChemDiv_1863-1069.pdb
 OpenBabel06131021423D

 32 33  0  0  0  0  0  0  0  0999 V2000
   60.4910   45.6710   98.1660 C   0  0  0  0  0
   61.0980   45.7790   97.3790 C   0  0  0  0  0
   61.9660   46.2400   97.4810 C   0  0  0  0  0
   62.2420   46.6020   98.3740 N   0  0  0  0  0
   61.6350   46.4930   99.1610 C   0  0  0  0  0
   60.7390   46.0210   99.0720 N   0  0  0  0  0
   60.1370   45.9140   99.8530 C   0  0  0  0  0
   61.8830   46.8430  100.0670 O   0  0  0  0  0
   62.5730   46.3490   96.6930 O   0  0  0  0  0
   60.6450   45.3580   96.6010 N   0  0  0  0  0
   59.7780   44.9960   96.8930 C   0  0  0  0  0
   59.6660   45.1830   97.8710 N   0  0  0  0  0
   59.1180   44.5210   96.3190 S   0  0  0  0  0
   59.0030   43.5230   96.4150 C   0  0  0  0  0
   58.2780   43.0680   95.9240 C   0  0  0  0  0
   58.2150   42.1020   95.9990 O   0  0  0  0  0
   57.6190   43.5870   95.3610 N   0  0  0  0  0
   61.0060   45.3050   95.6600 C   0  0  0  0  0
   60.7810   46.0180   94.9750 C   0  0  0  0  0
   61.6040   44.5330   95.3770 C   0  0  0  0  0
   63.1920   47.1080   98.4860 H   0  0  0  0  0
   59.1930   45.3600   99.5330 H   0  0  0  0  0
   59.8690   46.9330  100.2870 H   0  0  0  0  0
   60.6720   45.3090  100.6580 H   0  0  0  0  0
   59.6820   42.9460   97.0630 H   0  0  0  0  0
   56.8320   43.0660   94.8310 H   0  0  0  0  0
   57.7000   44.6640   95.2880 H   0  0  0  0  0
   61.1830   45.9450   93.9520 H   0  0  0  0  0
   60.1340   46.8650   95.2540 H   0  0  0  0  0
   61.9000   44.6620   94.2840 H   0  0  0  0  0
   61.0630   43.5400   95.5250 H   0  0  0  0  0
   62.5440   44.5310   96.0220 H   0  0  0  0  0
  2  1  2  0  0  0
 12  1  1  0  0  0
  1  6  1  0  0  0
 10  2  1  0  0  0
  2  3  1  0  0  0
  9  3  2  0  0  0
  3  4  1  0  0  0
  4 21  1  0  0  0
  4  5  1  0  0  0
  6  5  1  0  0  0
  5  8  2  0  0  0
  6  7  1  0  0  0
 22  7  1  0  0  0
  7 23  1  0  0  0
  7 24  1  0  0  0
 18 10  1  0  0  0
 10 11  1  0  0  0
 13 11  1  0  0  0
 11 12  2  0  0  0
 13 14  2  0  0  0
 15 14  1  0  0  0
 14 25  1  0  0  0
 17 15  1  0  0  0
 15 16  2  0  0  0
 26 17  1  0  0  0
 27 17  1  0  0  0
 19 18  2  0  0  0
 20 18  1  0  0  0
 28 19  1  0  0  0
 19 29  1  0  0  0
 30 20  1  0  0  0
 20 31  1  0  0  0
 20 32  1  0  0  0
M  END
$$$$
23885_ChemDiv_000A-0051.pdb
 OpenBabel06131021423D

 52 54  0  0  0  0  0  0  0  0999 V2000
   63.1030   47.5020   96.4440 C   0  0  0  0  0
   62.3590   46.8870   96.4580 C   0  0  0  0  0
   61.6860   46.9320   95.7580 C   0  0  0  0  0
   60.8840   46.2920   95.7460 C   0  0  0  0  0
   60.8260   45.6000   96.5110 C   0  0  0  0  0
   61.5330   45.5750   97.2210 C   0  0  0  0  0
   62.2880   46.2170   97.1850 C   0  0  0  0  0
   60.0810   44.9160   96.6050 S   0  0  0  0  0
   60.5490   44.5440   97.4320 O   0  0  0  0  0
   59.6270   45.2860   95.7940 O   0  0  0  0  0
   59.3550   44.2310   96.7190 C   0  0  0  0  0
   59.0370   43.6850   95.9370 C   0  0  0  0  0
   58.3070   42.9930   96.0680 C   0  0  0  0  0
   58.5380   42.1040   96.3620 O   0  0  0  0  0
   57.3830   43.2530   95.8890 O   0  0  0  0  0
   56.9610   42.9440   95.0610 C   0  0  0  0  0
   63.0800   48.3510   96.9630 C   0  0  0  0  0
   63.4990   48.3750   97.8370 C   0  0  0  0  0
   63.4880   49.2120   98.3720 C   0  0  0  0  0
   63.0370   50.0600   98.0150 C   0  0  0  0  0
   62.6050   50.0210   97.1040 C   0  0  0  0  0
   62.6320   49.1600   96.5860 C   0  0  0  0  0
   63.0100   50.9220   98.5330 S   0  0  0  0  0
   62.2400   50.5450   99.0750 O   0  0  0  0  0
   63.7860   51.2600   97.9630 O   0  0  0  0  0
   62.9910   51.8090   99.0580 C   0  0  0  0  0
   63.3400   51.8180   99.9900 C   0  0  0  0  0
   63.4760   52.7080  100.4410 C   0  0  0  0  0
   64.3660   53.0760  100.4950 O   0  0  0  0  0
   62.6730   53.1830  100.8200 O   0  0  0  0  0
   62.5980   53.2270  101.8120 C   0  0  0  0  0
   63.3360   47.7550   95.3570 H   0  0  0  0  0
   63.8990   46.9110   97.0080 H   0  0  0  0  0
   61.7860   47.6860   94.9610 H   0  0  0  0  0
   60.1200   46.3410   94.9540 H   0  0  0  0  0
   61.4720   44.8380   98.0370 H   0  0  0  0  0
   63.0620   46.1850   97.9680 H   0  0  0  0  0
   58.9030   44.0770   97.7110 H   0  0  0  0  0
   59.4800   43.8380   94.9400 H   0  0  0  0  0
   55.8910   43.3350   95.0100 H   0  0  0  0  0
   56.9680   41.8050   95.0160 H   0  0  0  0  0
   57.5480   43.3430   94.1690 H   0  0  0  0  0
   63.9880   47.4730   98.2370 H   0  0  0  0  0
   64.5620   49.4700   98.6540 H   0  0  0  0  0
   62.7970   48.9270   99.2330 H   0  0  0  0  0
   62.1100   50.9100   96.6830 H   0  0  0  0  0
   62.1620   49.1080   95.5910 H   0  0  0  0  0
   62.5930   52.7270   98.5970 H   0  0  0  0  0
   63.5720   50.8780  100.5150 H   0  0  0  0  0
   61.6480   53.7890  102.0970 H   0  0  0  0  0
   63.5120   53.7460  102.2540 H   0  0  0  0  0
   62.5470   52.1680  102.2310 H   0  0  0  0  0
 32  1  1  0  0  0
  1  2  1  0  0  0
  1 17  1  0  0  0
  1 33  1  0  0  0
  3  2  2  0  0  0
  2  7  1  0  0  0
 34  3  1  0  0  0
  4  3  1  0  0  0
 35  4  1  0  0  0
  4  5  2  0  0  0
  5  8  1  0  0  0
  5  6  1  0  0  0
  7  6  2  0  0  0
  6 36  1  0  0  0
  7 37  1  0  0  0
 10  8  2  0  0  0
  8 11  1  0  0  0
  8  9  2  0  0  0
 12 11  2  0  0  0
 11 38  1  0  0  0
 39 12  1  0  0  0
 12 13  1  0  0  0
 15 13  1  0  0  0
 13 14  2  0  0  0
 16 15  1  0  0  0
 42 16  1  0  0  0
 40 16  1  0  0  0
 41 16  1  0  0  0
 22 17  1  0  0  0
 17 18  2  0  0  0
 18 43  1  0  0  0
 18 19  1  0  0  0
 20 19  1  0  0  0
 19 44  1  0  0  0
 19 45  1  0  0  0
 21 20  1  0  0  0
 20 23  1  0  0  0
 20 24  1  0  0  0
 22 21  2  0  0  0
 46 21  1  0  0  0
 47 22  1  0  0  0
 25 23  2  0  0  0
 23 26  1  0  0  0
 23 24  1  0  0  0
 48 26  1  0  0  0
 26 27  2  0  0  0
 27 28  1  0  0  0
 27 49  1  0  0  0
 28 29  2  0  0  0
 28 30  1  0  0  0
 30 31  1  0  0  0
 31 50  1  0  0  0
 31 52  1  0  0  0
 31 51  1  0  0  0
M  END
$$$$
23885_ChemDiv_000A-0051.pdb
 OpenBabel06131021423D

 56 58  0  0  0  0  0  0  0  0999 V2000
   62.0520   46.0930   98.6980 C   0  0  0  0  0
   62.0840   47.0490   98.8310 C   0  0  0  0  0
   62.4570   47.6170   98.1360 C   0  0  0  0  0
   62.5050   48.6360   98.2500 C   0  0  0  0  0
   62.1390   49.0270   99.1330 C   0  0  0  0  0
   61.7600   48.4180   99.8330 C   0  0  0  0  0
   61.7370   47.4390   99.6730 C   0  0  0  0  0
   62.1320   50.0160   99.3590 S   0  0  0  0  0
   61.1250   50.0310   99.1980 O   0  0  0  0  0
   63.1210   49.9960   99.5160 O   0  0  0  0  0
   62.1020   50.9970   99.5790 C   0  0  0  0  0
   62.2680   51.6880   98.8690 C   0  0  0  0  0
   62.5670   52.6210   99.1310 C   0  0  0  0  0
   61.9100   53.2900   99.3520 O   0  0  0  0  0
   63.5240   52.8130   99.1510 O   0  0  0  0  0
   63.9160   53.3220   98.4120 C   0  0  0  0  0
   61.2790   45.6610   98.2410 C   0  0  0  0  0
   60.5180   45.3850   98.7750 C   0  0  0  0  0
   59.7360   44.9520   98.3400 C   0  0  0  0  0
   59.7170   44.7910   97.3280 C   0  0  0  0  0
   60.5160   45.0840   96.7850 C   0  0  0  0  0
   61.2930   45.5190   97.2530 C   0  0  0  0  0
   58.9400   44.3560   96.8600 S   0  0  0  0  0
   59.2870   43.4560   97.1700 O   0  0  0  0  0
   58.6280   45.2840   96.5710 O   0  0  0  0  0
   58.1400   43.9220   96.3770 C   0  0  0  0  0
   58.2320   43.7000   95.4100 C   0  0  0  0  0
   57.6030   43.0200   95.0150 C   0  0  0  0  0
   56.7190   43.2980   94.7460 O   0  0  0  0  0
   57.9220   42.0700   94.9140 O   0  0  0  0  0
   57.5210   41.3900   95.5190 C   0  0  0  0  0
   63.0060   45.7760   98.1610 H   0  0  0  0  0
   61.9240   45.7180   99.7670 H   0  0  0  0  0
   62.8350   47.1590   97.2090 H   0  0  0  0  0
   62.9280   49.2830   97.4660 H   0  0  0  0  0
   61.3710   48.8340  100.7760 H   0  0  0  0  0
   61.3180   46.7740  100.4450 H   0  0  0  0  0
   61.0990   51.2230  100.0710 H   0  0  0  0  0
   63.0210   51.1170  100.2420 H   0  0  0  0  0
   63.0190   51.2650   98.1230 H   0  0  0  0  0
   61.2210   51.8730   98.4570 H   0  0  0  0  0
   65.0340   53.4560   98.5930 H   0  0  0  0  0
   63.4070   54.3380   98.3190 H   0  0  0  0  0
   63.7600   52.7500   97.4380 H   0  0  0  0  0
   60.5200   45.5510   99.8640 H   0  0  0  0  0
   59.5410   43.9580   98.8630 H   0  0  0  0  0
   58.9320   45.7510   98.4620 H   0  0  0  0  0
   60.5370   44.9290   95.6950 H   0  0  0  0  0
   62.1690   45.8420   96.6690 H   0  0  0  0  0
   57.7070   45.1930   95.9770 H   0  0  0  0  0
   57.2040   43.7080   96.9170 H   0  0  0  0  0
   58.1570   44.6630   94.8050 H   0  0  0  0  0
   59.2500   43.1900   95.3490 H   0  0  0  0  0
   57.9720   40.3670   95.2940 H   0  0  0  0  0
   56.3890   41.3600   95.3840 H   0  0  0  0  0
   57.7480   41.6700   96.6000 H   0  0  0  0  0
 32  1  1  0  0  0
 17  1  1  0  0  0
  1  2  1  0  0  0
  1 33  1  0  0  0
  3  2  2  0  0  0
  2  7  1  0  0  0
 34  3  1  0  0  0
  3  4  1  0  0  0
 35  4  1  0  0  0
  4  5  2  0  0  0
  5  8  1  0  0  0
  5  6  1  0  0  0
  7  6  2  0  0  0
  6 36  1  0  0  0
  7 37  1  0  0  0
  9  8  2  0  0  0
  8 10  2  0  0  0
  8 11  1  0  0  0
 12 11  1  0  0  0
 11 38  1  0  0  0
 11 39  1  0  0  0
 40 12  1  0  0  0
 41 12  1  0  0  0
 12 13  1  0  0  0
 13 15  1  0  0  0
 13 14  2  0  0  0
 16 15  1  0  0  0
 44 16  1  0  0  0
 43 16  1  0  0  0
 16 42  1  0  0  0
 22 17  1  0  0  0
 17 18  2  0  0  0
 19 18  1  0  0  0
 18 45  1  0  0  0
 20 19  1  0  0  0
 19 47  1  0  0  0
 19 46  1  0  0  0
 21 20  1  0  0  0
 23 20  1  0  0  0
 24 20  1  0  0  0
 48 21  1  0  0  0
 21 22  2  0  0  0
 49 22  1  0  0  0
 26 23  2  0  0  0
 25 23  1  0  0  0
 23 24  1  0  0  0
 50 25  1  0  0  0
 27 26  1  0  0  0
 26 51  1  0  0  0
 52 27  1  0  0  0
 28 27  1  0  0  0
 53 27  1  0  0  0
 29 28  2  0  0  0
 30 28  1  0  0  0
 30 31  1  0  0  0
 54 31  1  0  0  0
 55 31  1  0  0  0
 31 56  1  0  0  0
M  END
$$$$
23886_ChemDiv_3277-0481.pdb
 OpenBabel06131021423D

 39 40  0  0  0  0  0  0  0  0999 V2000
   61.4530   48.1280   98.8850 C   0  0  0  0  0
   61.4640   47.1560   98.6180 C   0  0  0  0  0
   62.3070   46.7730   98.2210 C   0  0  0  0  0
   63.1040   47.3380   98.0970 N   0  0  0  0  0
   63.0820   48.2920   98.3630 C   0  0  0  0  0
   62.2580   48.7020   98.7600 N   0  0  0  0  0
   62.2390   49.6600   99.0260 C   0  0  0  0  0
   63.8930   48.8660   98.2360 O   0  0  0  0  0
   63.9220   46.9440   97.7060 C   0  0  0  0  0
   62.3230   45.8130   97.9560 O   0  0  0  0  0
   60.5650   46.7680   98.8260 N   0  0  0  0  0
   59.9890   47.4950   99.2230 C   0  0  0  0  0
   60.5410   48.3250   99.2550 N   0  0  0  0  0
   59.0360   47.3860   99.5240 Cl  0  0  0  0  0
   60.2910   45.8300   98.6670 C   0  0  0  0  0
   59.9390   45.5450   97.7700 C   0  0  0  0  0
   59.5710   44.6290   97.6450 C   0  0  0  0  0
   59.1320   44.3620   96.7850 C   0  0  0  0  0
   58.8180   43.4140   96.6740 C   0  0  0  0  0
   58.2250   43.1730   95.8820 C   0  0  0  0  0
   58.1200   42.2050   95.6290 C   0  0  0  0  0
   57.5260   41.9440   94.8650 C   0  0  0  0  0
   63.2500   50.1370   98.8030 H   0  0  0  0  0
   61.9930   49.7570  100.1350 H   0  0  0  0  0
   61.4310   50.1990   98.4290 H   0  0  0  0  0
   63.7400   45.8430   97.4710 H   0  0  0  0  0
   64.7970   47.0540   98.4280 H   0  0  0  0  0
   64.1790   47.4950   96.7420 H   0  0  0  0  0
   60.3730   45.0920   99.4810 H   0  0  0  0  0
   59.9610   46.2490   96.9230 H   0  0  0  0  0
   59.6470   43.8970   98.4650 H   0  0  0  0  0
   58.9960   45.0950   95.9750 H   0  0  0  0  0
   59.7290   42.7290   96.6660 H   0  0  0  0  0
   58.1190   43.2740   97.5640 H   0  0  0  0  0
   57.1900   43.6180   96.0540 H   0  0  0  0  0
   58.7890   43.6120   94.9940 H   0  0  0  0  0
   58.6600   41.4290   96.1940 H   0  0  0  0  0
   56.9850   42.7180   94.2990 H   0  0  0  0  0
   57.4140   40.8830   94.5920 H   0  0  0  0  0
  2  1  2  0  0  0
  6  1  1  0  0  0
  1 13  1  0  0  0
  3  2  1  0  0  0
  2 11  1  0  0  0
 10  3  2  0  0  0
  4  3  1  0  0  0
  9  4  1  0  0  0
  4  5  1  0  0  0
  8  5  2  0  0  0
  5  6  1  0  0  0
  6  7  1  0  0  0
 25  7  1  0  0  0
 23  7  1  0  0  0
  7 24  1  0  0  0
 28  9  1  0  0  0
 26  9  1  0  0  0
  9 27  1  0  0  0
 15 11  1  0  0  0
 11 12  1  0  0  0
 12 13  2  0  0  0
 12 14  1  0  0  0
 16 15  2  0  0  0
 15 29  1  0  0  0
 30 16  1  0  0  0
 17 16  1  0  0  0
 18 17  2  0  0  0
 17 31  1  0  0  0
 32 18  1  0  0  0
 19 18  1  0  0  0
 20 19  1  0  0  0
 33 19  1  0  0  0
 19 34  1  0  0  0
 36 20  1  0  0  0
 21 20  1  0  0  0
 20 35  1  0  0  0
 22 21  2  0  0  0
 21 37  1  0  0  0
 38 22  1  0  0  0
 39 22  1  0  0  0
M  END
$$$$
23886_ChemDiv_3277-0481.pdb
 OpenBabel06131021423D

 37 38  0  0  0  0  0  0  0  0999 V2000
   62.6370   49.8440  100.8440 C   0  0  0  0  0
   62.7650   49.0220  100.2750 C   0  0  0  0  0
   63.4400   49.0510   99.5270 C   0  0  0  0  0
   63.9640   49.8670   99.3580 N   0  0  0  0  0
   63.8300   50.6690   99.9240 C   0  0  0  0  0
   63.1660   50.6710  100.6740 N   0  0  0  0  0
   63.0340   51.4780  101.2400 C   0  0  0  0  0
   64.3640   51.4990   99.7510 O   0  0  0  0  0
   64.6220   49.8770   98.6200 C   0  0  0  0  0
   63.5700   48.2410   98.9620 O   0  0  0  0  0
   62.1430   48.3130  100.6100 N   0  0  0  0  0
   61.6240   48.6890  101.3900 C   0  0  0  0  0
   61.9340   49.6270  101.5260 N   0  0  0  0  0
   60.9280   48.1950  101.9210 Cl  0  0  0  0  0
   62.0540   47.3990  100.2380 C   0  0  0  0  0
   61.4470   47.2240   99.4570 C   0  0  0  0  0
   61.2840   46.2900   99.1520 C   0  0  0  0  0
   60.6400   46.0960   98.4090 C   0  0  0  0  0
   60.5250   45.1460   98.1030 C   0  0  0  0  0
   59.9290   44.9470   97.3020 C   0  0  0  0  0
   59.7840   43.9900   97.0280 C   0  0  0  0  0
   59.2010   43.7710   96.2420 C   0  0  0  0  0
   63.7290   52.3090  100.8850 H   0  0  0  0  0
   63.2400   51.2310  102.3340 H   0  0  0  0  0
   61.9530   51.8280  101.1470 H   0  0  0  0  0
   64.6220   48.8640   98.0960 H   0  0  0  0  0
   65.6620   50.1140   99.0220 H   0  0  0  0  0
   64.3330   50.6860   97.8710 H   0  0  0  0  0
   62.6250   46.5690  100.6840 H   0  0  0  0  0
   60.9610   48.0650   98.9380 H   0  0  0  0  0
   61.8190   45.4590   99.6380 H   0  0  0  0  0
   60.0680   46.9100   97.9360 H   0  0  0  0  0
   61.0390   44.3270   98.6300 H   0  0  0  0  0
   59.4500   45.7670   96.7440 H   0  0  0  0  0
   60.2680   43.1790   97.5940 H   0  0  0  0  0
   58.7160   44.5800   95.6740 H   0  0  0  0  0
   59.0460   42.7210   95.9470 H   0  0  0  0  0
  2  1  2  0  0  0
  6  1  1  0  0  0
  1 13  1  0  0  0
  3  2  1  0  0  0
  2 11  1  0  0  0
 10  3  2  0  0  0
  4  3  1  0  0  0
  9  4  1  0  0  0
  4  5  1  0  0  0
  8  5  2  0  0  0
  5  6  1  0  0  0
  6  7  1  0  0  0
 23  7  1  0  0  0
 25  7  1  0  0  0
  7 24  1  0  0  0
 28  9  1  0  0  0
 26  9  1  0  0  0
  9 27  1  0  0  0
 15 11  1  0  0  0
 11 12  1  0  0  0
 12 13  2  0  0  0
 12 14  1  0  0  0
 16 15  2  0  0  0
 15 29  1  0  0  0
 30 16  1  0  0  0
 17 16  1  0  0  0
 18 17  2  0  0  0
 17 31  1  0  0  0
 32 18  1  0  0  0
 19 18  1  0  0  0
 20 19  2  0  0  0
 19 33  1  0  0  0
 34 20  1  0  0  0
 21 20  1  0  0  0
 22 21  2  0  0  0
 21 35  1  0  0  0
 36 22  1  0  0  0
 37 22  1  0  0  0
M  END
$$$$
23890_ChemDiv_C066-4409.pdb
 OpenBabel06131021423D

 31 32  0  0  0  0  0  0  0  0999 V2000
   61.2370   46.7860   94.8270 C   0  0  0  0  0
   60.8100   45.8930   95.0270 C   0  0  0  0  0
   61.0300   45.4150   95.8870 N   0  0  0  0  0
   61.6710   45.8280   96.5370 C   0  0  0  0  0
   62.0920   46.7080   96.3410 C   0  0  0  0  0
   61.8770   47.1920   95.4840 C   0  0  0  0  0
   62.2970   48.0740   95.2840 C   0  0  0  0  0
   62.9330   48.4780   95.9360 C   0  0  0  0  0
   63.1490   48.0030   96.7840 C   0  0  0  0  0
   62.7300   47.1170   96.9910 C   0  0  0  0  0
   61.8880   45.3510   97.3890 O   0  0  0  0  0
   60.6100   44.5360   96.0830 C   0  0  0  0  0
   59.7020   44.5110   96.5030 C   0  0  0  0  0
   59.3010   44.8350   97.3620 C   0  0  0  0  0
   59.0340   44.0490   95.9180 C   0  0  0  0  0
   61.0200   47.2630   93.9760 C   0  0  0  0  0
   61.5690   47.1010   93.1630 O   0  0  0  0  0
   60.2550   47.9000   93.9440 O   0  0  0  0  0
   60.1070   45.4430   94.3080 H   0  0  0  0  0
   62.0590   48.6000   94.3460 H   0  0  0  0  0
   63.3980   49.4520   95.7180 H   0  0  0  0  0
   63.8540   48.4550   97.5000 H   0  0  0  0  0
   62.9720   46.5970   97.9310 H   0  0  0  0  0
   61.3260   43.9280   96.7290 H   0  0  0  0  0
   60.4220   44.1070   95.0440 H   0  0  0  0  0
   58.1940   44.5640   97.3910 H   0  0  0  0  0
   59.4340   45.9630   97.4590 H   0  0  0  0  0
   59.8330   44.3330   98.2370 H   0  0  0  0  0
   59.3440   43.6430   94.9420 H   0  0  0  0  0
   57.9890   43.9460   96.2500 H   0  0  0  0  0
   60.0240   48.4080   93.0390 H   0  0  0  0  0
 16  1  1  0  0  0
  1  2  2  0  0  0
  1  6  1  0  0  0
 19  2  1  0  0  0
  2  3  1  0  0  0
  3 12  1  0  0  0
  3  4  1  0  0  0
  5  4  1  0  0  0
  4 11  2  0  0  0
  6  5  2  0  0  0
  5 10  1  0  0  0
  7  6  1  0  0  0
 20  7  1  0  0  0
  7  8  2  0  0  0
 21  8  1  0  0  0
  8  9  1  0  0  0
  9 10  2  0  0  0
  9 22  1  0  0  0
 10 23  1  0  0  0
 25 12  1  0  0  0
 12 13  1  0  0  0
 12 24  1  0  0  0
 15 13  2  0  0  0
 13 14  1  0  0  0
 14 26  1  0  0  0
 14 27  1  0  0  0
 14 28  1  0  0  0
 29 15  1  0  0  0
 15 30  1  0  0  0
 17 16  2  0  0  0
 18 16  1  0  0  0
 31 18  1  0  0  0
M  END
$$$$
23890_ChemDiv_C066-4409.pdb
 OpenBabel06131021423D

 31 32  0  0  0  0  0  0  0  0999 V2000
   59.7420   44.8000   96.9270 C   0  0  0  0  0
   59.8300   45.1270   97.8780 C   0  0  0  0  0
   60.6910   45.5550   98.1810 N   0  0  0  0  0
   61.4540   45.6530   97.5380 C   0  0  0  0  0
   61.3670   45.3310   96.6000 C   0  0  0  0  0
   60.5090   44.9020   96.2900 C   0  0  0  0  0
   60.4190   44.5780   95.3520 C   0  0  0  0  0
   61.1820   44.6800   94.7170 C   0  0  0  0  0
   62.0310   45.1030   95.0200 C   0  0  0  0  0
   62.1270   45.4300   95.9610 C   0  0  0  0  0
   62.3060   46.0780   97.8420 O   0  0  0  0  0
   60.7780   45.8770   99.1180 C   0  0  0  0  0
   60.4420   46.7890   99.3540 C   0  0  0  0  0
   60.6210   47.7220   99.0380 C   0  0  0  0  0
   59.7600   46.7550  100.0860 C   0  0  0  0  0
   58.8890   44.3750   96.6230 C   0  0  0  0  0
   58.1650   44.9360   96.2370 O   0  0  0  0  0
   58.7680   43.3900   96.7070 O   0  0  0  0  0
   58.9890   45.0170   98.5810 H   0  0  0  0  0
   59.4800   44.1090   95.0170 H   0  0  0  0  0
   61.0850   44.3240   93.6790 H   0  0  0  0  0
   62.8700   45.2120   94.3150 H   0  0  0  0  0
   63.0680   45.8980   96.2900 H   0  0  0  0  0
   61.8730   45.8020   99.4270 H   0  0  0  0  0
   60.0710   45.1890   99.6900 H   0  0  0  0  0
   61.4020   47.6990   98.2080 H   0  0  0  0  0
   60.9840   48.3690   99.9040 H   0  0  0  0  0
   59.6550   48.1720   98.6320 H   0  0  0  0  0
   59.2990   47.6860  100.4530 H   0  0  0  0  0
   59.4710   45.7870  100.5250 H   0  0  0  0  0
   57.8620   42.9360   96.3840 H   0  0  0  0  0
  6  1  1  0  0  0
 16  1  1  0  0  0
  1  2  2  0  0  0
  2  3  1  0  0  0
  2 19  1  0  0  0
  4  3  1  0  0  0
  3 12  1  0  0  0
  5  4  1  0  0  0
  4 11  2  0  0  0
 10  5  2  0  0  0
  6  5  1  0  0  0
  7  6  2  0  0  0
  8  7  1  0  0  0
 20  7  1  0  0  0
 21  8  1  0  0  0
  8  9  2  0  0  0
 22  9  1  0  0  0
  9 10  1  0  0  0
 10 23  1  0  0  0
 12 13  1  0  0  0
 12 24  1  0  0  0
 12 25  1  0  0  0
 14 13  1  0  0  0
 13 15  2  0  0  0
 26 14  1  0  0  0
 28 14  1  0  0  0
 14 27  1  0  0  0
 15 29  1  0  0  0
 15 30  1  0  0  0
 17 16  2  0  0  0
 16 18  1  0  0  0
 31 18  1  0  0  0
M  END
$$$$
23891_ChemDiv_6016-3115.pdb
 OpenBabel06131021423D

 55 59  0  0  0  0  0  0  0  0999 V2000
   63.5180   47.9990   98.9880 N   0  0  0  0  0
   63.0580   48.2260   99.8330 N   0  0  0  0  0
   62.3930   47.6150  100.2400 C   0  0  0  0  0
   62.1980   46.7470   99.7620 C   0  0  0  0  0
   62.6580   46.5210   98.9170 C   0  0  0  0  0
   63.3340   47.1510   98.5120 C   0  0  0  0  0
   63.7880   46.9270   97.6790 O   0  0  0  0  0
   62.4700   45.6640   98.4410 C   0  0  0  0  0
   61.7920   45.0310   98.8460 C   0  0  0  0  0
   61.3320   45.2570   99.6900 C   0  0  0  0  0
   61.5290   46.1280  100.1680 C   0  0  0  0  0
   64.2100   48.6450   98.5730 C   0  0  0  0  0
   63.9170   49.5260   98.1590 C   0  0  0  0  0
   64.1960   50.3900   98.5430 N   0  0  0  0  0
   63.9100   51.2500   98.1390 C   0  0  0  0  0
   64.7850   50.3810   99.3630 C   0  0  0  0  0
   64.2050   52.1250   98.5440 C   0  0  0  0  0
   64.7840   52.1100   99.3520 C   0  0  0  0  0
   65.0700   51.2510   99.7550 C   0  0  0  0  0
   63.3400   49.5480   97.3560 O   0  0  0  0  0
   65.0870   53.0020   99.7680 C   0  0  0  0  0
   64.5600   53.4110  100.5580 C   0  0  0  0  0
   64.8120   53.1560  101.4730 C   0  0  0  0  0
   64.2850   53.5640  102.2630 C   0  0  0  0  0
   63.5530   54.1910  102.0670 C   0  0  0  0  0
   63.2970   54.4490  101.1470 C   0  0  0  0  0
   63.8250   54.0400  100.3570 C   0  0  0  0  0
   61.9340   47.8420  101.0830 C   0  0  0  0  0
   61.0990   48.3710  101.0860 C   0  0  0  0  0
   60.6390   48.5970  101.9300 C   0  0  0  0  0
   60.9950   48.3050  102.8080 C   0  0  0  0  0
   61.8470   47.7640  102.8120 C   0  0  0  0  0
   62.3070   47.5370  101.9680 C   0  0  0  0  0
   62.9860   45.4140   97.5010 H   0  0  0  0  0
   61.5650   44.0800   98.3400 H   0  0  0  0  0
   60.5980   44.5550  100.1160 H   0  0  0  0  0
   61.0190   46.3850  101.1100 H   0  0  0  0  0
   65.0080   48.8660   99.3570 H   0  0  0  0  0
   64.5560   48.0600   97.6580 H   0  0  0  0  0
   63.2680   51.2490   97.2440 H   0  0  0  0  0
   65.1060   49.4290   99.8150 H   0  0  0  0  0
   63.8910   53.0820   98.0980 H   0  0  0  0  0
   65.7130   51.2590  100.6500 H   0  0  0  0  0
   65.1550   53.7810   98.9390 H   0  0  0  0  0
   66.0770   52.7190  100.2570 H   0  0  0  0  0
   65.6380   52.4500  101.6530 H   0  0  0  0  0
   64.5380   53.3020  103.3030 H   0  0  0  0  0
   62.9930   54.6260  102.9100 H   0  0  0  0  0
   62.4700   55.1540  100.9680 H   0  0  0  0  0
   63.5740   54.3000   99.3160 H   0  0  0  0  0
   60.6740   48.7150  100.1300 H   0  0  0  0  0
   59.7090   49.1870  101.8950 H   0  0  0  0  0
   60.4790   48.5620  103.7460 H   0  0  0  0  0
   62.2690   47.4220  103.7700 H   0  0  0  0  0
   63.2360   46.9450  101.9940 H   0  0  0  0  0
  6  1  1  0  0  0
 12  1  1  0  0  0
  1  2  1  0  0  0
  2  3  2  0  0  0
  4  3  1  0  0  0
  3 28  1  0  0  0
  5  4  2  0  0  0
  4 11  1  0  0  0
  8  5  1  0  0  0
  6  5  1  0  0  0
  7  6  2  0  0  0
 34  8  1  0  0  0
  8  9  2  0  0  0
 35  9  1  0  0  0
  9 10  1  0  0  0
 10 36  1  0  0  0
 10 11  2  0  0  0
 11 37  1  0  0  0
 39 12  1  0  0  0
 13 12  1  0  0  0
 12 38  1  0  0  0
 20 13  2  0  0  0
 13 14  1  0  0  0
 15 14  2  0  0  0
 14 16  1  0  0  0
 40 15  1  0  0  0
 15 17  1  0  0  0
 16 19  2  0  0  0
 16 41  1  0  0  0
 42 17  1  0  0  0
 17 18  2  0  0  0
 18 19  1  0  0  0
 18 21  1  0  0  0
 19 43  1  0  0  0
 44 21  1  0  0  0
 21 45  1  0  0  0
 21 22  1  0  0  0
 27 22  2  0  0  0
 22 23  1  0  0  0
 23 46  1  0  0  0
 23 24  2  0  0  0
 25 24  1  0  0  0
 24 47  1  0  0  0
 26 25  2  0  0  0
 25 48  1  0  0  0
 27 26  1  0  0  0
 49 26  1  0  0  0
 50 27  1  0  0  0
 28 29  2  0  0  0
 28 33  1  0  0  0
 51 29  1  0  0  0
 29 30  1  0  0  0
 52 30  1  0  0  0
 30 31  2  0  0  0
 31 32  1  0  0  0
 31 53  1  0  0  0
 33 32  2  0  0  0
 32 54  1  0  0  0
 33 55  1  0  0  0
M  END
$$$$
23891_ChemDiv_6016-3115.pdb
 OpenBabel06131021423D

 55 59  0  0  0  0  0  0  0  0999 V2000
   61.6280   47.2120   97.9900 N   0  0  0  0  0
   61.8450   47.4320   97.0510 N   0  0  0  0  0
   61.5640   46.8440   96.3050 C   0  0  0  0  0
   61.0450   46.0090   96.5340 C   0  0  0  0  0
   60.8280   45.7900   97.4720 C   0  0  0  0  0
   61.1200   46.3960   98.2250 C   0  0  0  0  0
   60.9060   46.1790   99.1510 O   0  0  0  0  0
   60.3160   44.9660   97.7040 C   0  0  0  0  0
   60.0220   44.3570   96.9510 C   0  0  0  0  0
   60.2390   44.5760   96.0120 C   0  0  0  0  0
   60.7590   45.4150   95.7840 C   0  0  0  0  0
   61.9270   47.8320   98.7610 C   0  0  0  0  0
   61.4950   48.7440   98.8930 C   0  0  0  0  0
   62.0290   49.5720   98.8660 N   0  0  0  0  0
   61.6080   50.4610   98.9950 C   0  0  0  0  0
   63.0230   49.4950   98.7040 C   0  0  0  0  0
   62.1690   51.2980   98.9650 C   0  0  0  0  0
   63.1470   51.2170   98.8040 C   0  0  0  0  0
   63.5680   50.3280   98.6760 C   0  0  0  0  0
   60.5230   48.8320   99.0520 O   0  0  0  0  0
   63.7220   52.0700   98.7730 C   0  0  0  0  0
   63.8460   52.5790   97.8820 C   0  0  0  0  0
   64.5910   52.3240   97.2940 C   0  0  0  0  0
   64.7150   52.8330   96.4030 C   0  0  0  0  0
   64.0820   53.5520   96.1790 C   0  0  0  0  0
   63.3310   53.8100   96.7690 C   0  0  0  0  0
   63.2080   53.3010   97.6600 C   0  0  0  0  0
   61.7800   47.0640   95.3670 C   0  0  0  0  0
   61.1620   47.5950   94.8090 C   0  0  0  0  0
   61.3790   47.8140   93.8710 C   0  0  0  0  0
   62.2230   47.5120   93.4510 C   0  0  0  0  0
   62.8600   46.9680   94.0150 C   0  0  0  0  0
   62.6430   46.7490   94.9540 C   0  0  0  0  0
   60.0770   44.7250   98.7520 H   0  0  0  0  0
   59.4550   43.4410   97.1800 H   0  0  0  0  0
   59.9120   43.9010   95.2050 H   0  0  0  0  0
   61.0020   45.6650   94.7390 H   0  0  0  0  0
   63.0550   47.9780   98.6860 H   0  0  0  0  0
   61.5570   47.2630   99.6770 H   0  0  0  0  0
   60.5230   50.5340   99.1720 H   0  0  0  0  0
   63.4950   48.5100   98.5610 H   0  0  0  0  0
   61.7060   52.2870   99.1080 H   0  0  0  0  0
   64.6530   50.2610   98.5000 H   0  0  0  0  0
   63.3250   52.8010   99.5530 H   0  0  0  0  0
   64.7690   51.6650   98.9700 H   0  0  0  0  0
   65.2800   51.5130   97.5790 H   0  0  0  0  0
   65.5390   52.5760   95.7190 H   0  0  0  0  0
   64.2150   54.0940   95.2290 H   0  0  0  0  0
   62.6420   54.6210   96.4830 H   0  0  0  0  0
   62.3850   53.5570   98.3460 H   0  0  0  0  0
   60.2130   47.9500   95.2410 H   0  0  0  0  0
   60.6660   48.4080   93.2780 H   0  0  0  0  0
   62.4590   47.7610   92.4040 H   0  0  0  0  0
   63.8080   46.6150   93.5790 H   0  0  0  0  0
   63.3510   46.1550   95.5540 H   0  0  0  0  0
  2  1  1  0  0  0
  1  6  1  0  0  0
  1 12  1  0  0  0
  3  2  2  0  0  0
 28  3  1  0  0  0
  3  4  1  0  0  0
 11  4  2  0  0  0
  4  5  1  0  0  0
  5  8  2  0  0  0
  5  6  1  0  0  0
  6  7  2  0  0  0
  9  8  1  0  0  0
  8 34  1  0  0  0
 10  9  2  0  0  0
  9 35  1  0  0  0
 36 10  1  0  0  0
 11 10  1  0  0  0
 37 11  1  0  0  0
 38 12  1  0  0  0
 12 13  1  0  0  0
 12 39  1  0  0  0
 14 13  1  0  0  0
 13 20  2  0  0  0
 16 14  2  0  0  0
 14 15  1  0  0  0
 17 15  2  0  0  0
 15 40  1  0  0  0
 41 16  1  0  0  0
 19 16  1  0  0  0
 18 17  1  0  0  0
 17 42  1  0  0  0
 19 18  2  0  0  0
 21 18  1  0  0  0
 43 19  1  0  0  0
 22 21  1  0  0  0
 21 45  1  0  0  0
 21 44  1  0  0  0
 23 22  2  0  0  0
 27 22  1  0  0  0
 24 23  1  0  0  0
 23 46  1  0  0  0
 47 24  1  0  0  0
 25 24  2  0  0  0
 48 25  1  0  0  0
 25 26  1  0  0  0
 49 26  1  0  0  0
 26 27  2  0  0  0
 27 50  1  0  0  0
 29 28  2  0  0  0
 33 28  1  0  0  0
 30 29  1  0  0  0
 29 51  1  0  0  0
 52 30  1  0  0  0
 31 30  2  0  0  0
 53 31  1  0  0  0
 31 32  1  0  0  0
 54 32  1  0  0  0
 32 33  2  0  0  0
 33 55  1  0  0  0
M  END
$$$$
23893_ChemDiv_6216-0081.pdb
 OpenBabel06131021433D

 50 53  0  0  0  0  0  0  0  0999 V2000
   64.9190   51.1820   98.1220 C   0  0  0  0  0
   64.3050   50.4990   97.7130 C   0  0  0  0  0
   63.5150   50.1550   98.2460 C   0  0  0  0  0
   63.3560   50.5020   99.1770 C   0  0  0  0  0
   63.9680   51.1770   99.5770 C   0  0  0  0  0
   64.7580   51.5210   99.0440 C   0  0  0  0  0
   62.5760   50.1620   99.7030 C   0  0  0  0  0
   65.7020   51.5230   97.5940 C   0  0  0  0  0
   66.5870   51.0430   97.6460 N   0  0  0  0  0
   67.3670   51.3820   97.1200 N   0  0  0  0  0
   67.2620   52.2010   96.5420 C   0  0  0  0  0
   68.2530   50.9110   97.1640 C   0  0  0  0  0
   66.3840   52.6720   96.4950 C   0  0  0  0  0
   68.0390   52.5390   96.0180 O   0  0  0  0  0
   65.6040   52.3330   97.0210 C   0  0  0  0  0
   66.2860   53.4820   95.9220 C   0  0  0  0  0
   64.7270   52.8030   96.9740 C   0  0  0  0  0
   64.6290   53.6130   96.4010 C   0  0  0  0  0
   65.4090   53.9530   95.8750 C   0  0  0  0  0
   62.9090   49.4800   97.8380 C   0  0  0  0  0
   63.1490   48.5130   97.8470 N   0  0  0  0  0
   62.5750   47.8560   97.3640 C   0  0  0  0  0
   62.8160   46.8890   97.3720 N   0  0  0  0  0
   61.7610   48.1660   96.8740 O   0  0  0  0  0
   62.2400   46.2230   96.8880 C   0  0  0  0  0
   61.4830   45.7790   97.3660 C   0  0  0  0  0
   60.9140   45.1200   96.8810 C   0  0  0  0  0
   61.0940   44.9010   95.9260 C   0  0  0  0  0
   61.8490   45.3450   95.4520 C   0  0  0  0  0
   62.4310   46.0150   95.9370 C   0  0  0  0  0
   64.4900   50.1270   96.6930 H   0  0  0  0  0
   63.7870   51.5500  100.5980 H   0  0  0  0  0
   65.4370   52.2680   99.4840 H   0  0  0  0  0
   61.9990   49.4020   99.0800 H   0  0  0  0  0
   61.8950   51.0260  100.0020 H   0  0  0  0  0
   62.9550   49.6570  100.6520 H   0  0  0  0  0
   69.0040   51.4510   96.4980 H   0  0  0  0  0
   68.1400   49.8260   96.8330 H   0  0  0  0  0
   68.6300   50.9220   98.2400 H   0  0  0  0  0
   67.1450   53.8550   95.3420 H   0  0  0  0  0
   63.8680   52.4290   97.5530 H   0  0  0  0  0
   63.6600   54.1340   96.3470 H   0  0  0  0  0
   65.2980   54.8490   95.2430 H   0  0  0  0  0
   61.9650   49.8040   97.3720 H   0  0  0  0  0
   63.6990   46.5560   97.9020 H   0  0  0  0  0
   61.2790   46.0160   98.4220 H   0  0  0  0  0
   60.0790   44.6300   97.4060 H   0  0  0  0  0
   60.4610   44.1710   95.3970 H   0  0  0  0  0
   62.0510   45.1060   94.3960 H   0  0  0  0  0
   63.2670   46.5080   95.4160 H   0  0  0  0  0
  8  1  1  0  0  0
  2  1  2  0  0  0
  1  6  1  0  0  0
 31  2  1  0  0  0
  2  3  1  0  0  0
 20  3  1  0  0  0
  3  4  2  0  0  0
  4  5  1  0  0  0
  4  7  1  0  0  0
  6  5  2  0  0  0
  5 32  1  0  0  0
  6 33  1  0  0  0
 34  7  1  0  0  0
  7 35  1  0  0  0
  7 36  1  0  0  0
 15  8  1  0  0  0
  8  9  2  0  0  0
 10  9  1  0  0  0
 11 10  1  0  0  0
 10 12  1  0  0  0
 14 11  2  0  0  0
 13 11  1  0  0  0
 37 12  1  0  0  0
 38 12  1  0  0  0
 12 39  1  0  0  0
 16 13  2  0  0  0
 13 15  1  0  0  0
 17 15  2  0  0  0
 40 16  1  0  0  0
 19 16  1  0  0  0
 18 17  1  0  0  0
 17 41  1  0  0  0
 19 18  2  0  0  0
 42 18  1  0  0  0
 43 19  1  0  0  0
 44 20  1  0  0  0
 20 21  2  0  0  0
 22 21  1  0  0  0
 24 22  2  0  0  0
 22 23  1  0  0  0
 25 23  1  0  0  0
 23 45  1  0  0  0
 30 25  2  0  0  0
 25 26  1  0  0  0
 27 26  2  0  0  0
 26 46  1  0  0  0
 28 27  1  0  0  0
 27 47  1  0  0  0
 48 28  1  0  0  0
 29 28  2  0  0  0
 49 29  1  0  0  0
 29 30  1  0  0  0
 50 30  1  0  0  0
M  END
$$$$
23893_ChemDiv_6216-0081.pdb
 OpenBabel06131021433D

 50 53  0  0  0  0  0  0  0  0999 V2000
   65.0030   51.1280   97.9730 C   0  0  0  0  0
   64.4190   50.4630   97.4950 C   0  0  0  0  0
   63.5970   50.0950   97.9590 C   0  0  0  0  0
   63.3760   50.4000   98.8910 C   0  0  0  0  0
   63.9570   51.0580   99.3600 C   0  0  0  0  0
   64.7790   51.4260   98.8960 C   0  0  0  0  0
   62.5650   50.0370   99.3500 C   0  0  0  0  0
   65.8170   51.4920   97.5130 C   0  0  0  0  0
   66.6990   51.0120   97.6010 N   0  0  0  0  0
   67.5100   51.3750   97.1430 N   0  0  0  0  0
   67.4400   52.2180   96.5970 C   0  0  0  0  0
   68.3930   50.9030   97.2250 C   0  0  0  0  0
   66.5650   52.6900   96.5120 C   0  0  0  0  0
   68.2480   52.5800   96.1400 O   0  0  0  0  0
   65.7540   52.3270   96.9710 C   0  0  0  0  0
   66.5020   53.5240   95.9700 C   0  0  0  0  0
   64.8800   52.7980   96.8870 C   0  0  0  0  0
   64.8160   53.6320   96.3440 C   0  0  0  0  0
   65.6270   53.9950   95.8860 C   0  0  0  0  0
   63.0220   49.4380   97.4830 C   0  0  0  0  0
   63.2780   48.4760   97.4440 N   0  0  0  0  0
   62.7490   47.8450   96.8810 C   0  0  0  0  0
   63.0050   46.8820   96.8420 N   0  0  0  0  0
   61.9640   48.1770   96.3580 O   0  0  0  0  0
   62.4740   46.2440   96.2770 C   0  0  0  0  0
   61.6950   45.7590   96.6720 C   0  0  0  0  0
   61.1710   45.1260   96.1080 C   0  0  0  0  0
   61.4180   44.9740   95.1550 C   0  0  0  0  0
   62.1960   45.4580   94.7640 C   0  0  0  0  0
   62.7330   46.1020   95.3300 C   0  0  0  0  0
   64.6720   50.1370   96.4740 H   0  0  0  0  0
   63.7070   51.3850  100.3820 H   0  0  0  0  0
   65.4240   52.1550   99.4120 H   0  0  0  0  0
   62.0330   49.3040   98.6580 H   0  0  0  0  0
   61.8620   50.8870   99.6400 H   0  0  0  0  0
   62.8840   49.4930  100.3000 H   0  0  0  0  0
   69.1850   51.4720   96.6340 H   0  0  0  0  0
   68.3060   49.8330   96.8400 H   0  0  0  0  0
   68.6980   50.8670   98.3230 H   0  0  0  0  0
   67.3960   53.9240   95.4660 H   0  0  0  0  0
   63.9870   52.3980   97.3930 H   0  0  0  0  0
   63.8510   54.1540   96.2490 H   0  0  0  0  0
   65.5540   54.9170   95.2880 H   0  0  0  0  0
   62.0940   49.7770   96.9950 H   0  0  0  0  0
   63.8550   46.5250   97.4090 H   0  0  0  0  0
   61.4170   45.9230   97.7250 H   0  0  0  0  0
   60.3120   44.5900   96.5420 H   0  0  0  0  0
   60.8340   44.2740   94.5370 H   0  0  0  0  0
   62.4730   45.2910   93.7110 H   0  0  0  0  0
   63.5940   46.6380   94.9000 H   0  0  0  0  0
  2  1  2  0  0  0
  8  1  1  0  0  0
  1  6  1  0  0  0
 31  2  1  0  0  0
  2  3  1  0  0  0
 20  3  1  0  0  0
  3  4  2  0  0  0
  4  7  1  0  0  0
  4  5  1  0  0  0
  6  5  2  0  0  0
  5 32  1  0  0  0
  6 33  1  0  0  0
 34  7  1  0  0  0
  7 35  1  0  0  0
  7 36  1  0  0  0
 15  8  1  0  0  0
  8  9  2  0  0  0
 10  9  1  0  0  0
 11 10  1  0  0  0
 10 12  1  0  0  0
 14 11  2  0  0  0
 13 11  1  0  0  0
 37 12  1  0  0  0
 38 12  1  0  0  0
 12 39  1  0  0  0
 16 13  2  0  0  0
 13 15  1  0  0  0
 17 15  2  0  0  0
 40 16  1  0  0  0
 19 16  1  0  0  0
 18 17  1  0  0  0
 17 41  1  0  0  0
 19 18  2  0  0  0
 42 18  1  0  0  0
 43 19  1  0  0  0
 44 20  1  0  0  0
 21 20  2  0  0  0
 22 21  1  0  0  0
 24 22  2  0  0  0
 23 22  1  0  0  0
 25 23  1  0  0  0
 23 45  1  0  0  0
 30 25  2  0  0  0
 25 26  1  0  0  0
 27 26  2  0  0  0
 26 46  1  0  0  0
 28 27  1  0  0  0
 27 47  1  0  0  0
 48 28  1  0  0  0
 29 28  2  0  0  0
 49 29  1  0  0  0
 29 30  1  0  0  0
 50 30  1  0  0  0
M  END
$$$$
23894_ChemDiv_000A-0301.pdb
 OpenBabel06131021433D

 33 38  0  0  0  0  0  0  0  0999 V2000
   60.4160   45.1510   97.4290 C   0  0  0  0  0
   60.3830   45.1490   96.4340 C   0  0  0  0  0
   60.9310   45.7210   95.8420 C   0  0  0  0  0
   61.5830   46.3690   96.2280 C   0  0  0  0  0
   61.6950   46.4500   97.2080 N   0  0  0  0  0
   61.1390   45.8700   97.8080 C   0  0  0  0  0
   61.3410   46.0430   98.7910 C   0  0  0  0  0
   62.1410   46.9510   95.6250 C   0  0  0  0  0
   62.0410   46.8810   94.6430 C   0  0  0  0  0
   61.3930   46.2380   94.2610 C   0  0  0  0  0
   60.8340   45.6540   94.8610 C   0  0  0  0  0
   60.1770   45.0040   94.4390 O   0  0  0  0  0
   62.0740   46.9470   93.6250 C   0  0  0  0  0
   62.7460   47.5920   94.6940 C   0  0  0  0  0
   59.7140   44.4810   96.1840 C   0  0  0  0  0
   59.3360   44.0730   97.0180 C   0  0  0  0  0
   59.7480   44.4660   97.7560 N   0  0  0  0  0
   58.6320   43.3640   96.9570 C   0  0  0  0  0
   58.3060   43.0630   96.0370 C   0  0  0  0  0
   58.6670   43.4530   95.2380 C   0  0  0  0  0
   59.3680   44.1590   95.3100 C   0  0  0  0  0
   62.4050   47.1520   97.6250 H   0  0  0  0  0
   62.1420   46.8500   98.8790 H   0  0  0  0  0
   61.6910   45.0830   99.2970 H   0  0  0  0  0
   60.3910   46.3990   99.3120 H   0  0  0  0  0
   60.6570   45.5080   93.7870 H   0  0  0  0  0
   61.7260   47.8300   92.9940 H   0  0  0  0  0
   62.8490   46.8590   92.7930 H   0  0  0  0  0
   62.6550   48.6960   94.4240 H   0  0  0  0  0
   63.8050   47.7950   94.3240 H   0  0  0  0  0
   58.9890   42.4470   97.5330 H   0  0  0  0  0
   57.5320   42.2830   95.9610 H   0  0  0  0  0
   58.3100   43.1240   94.2490 H   0  0  0  0  0
  2  1  1  0  0  0
  1 17  1  0  0  0
  1  6  2  0  0  0
  3  2  1  0  0  0
 15  2  2  0  0  0
 11  3  1  0  0  0
  3  4  2  0  0  0
  8  4  1  0  0  0
  4  5  1  0  0  0
  5 22  1  0  0  0
  5  6  1  0  0  0
  6  7  1  0  0  0
  7 23  1  0  0  0
  7 24  1  0  0  0
  7 25  1  0  0  0
  9  8  1  0  0  0
 14  8  1  0  0  0
 13  9  1  0  0  0
 10  9  1  0  0  0
  9 14  1  0  0  0
 13 10  1  0  0  0
 10 11  2  0  0  0
 12 11  1  0  0  0
 26 12  1  0  0  0
 28 13  1  0  0  0
 27 13  1  0  0  0
 30 14  1  0  0  0
 29 14  1  0  0  0
 21 15  1  0  0  0
 15 16  1  0  0  0
 18 16  1  0  0  0
 16 17  2  0  0  0
 19 18  2  0  0  0
 18 31  1  0  0  0
 20 19  1  0  0  0
 32 19  1  0  0  0
 33 20  1  0  0  0
 20 21  2  0  0  0
M  END
$$$$
23894_ChemDiv_000A-0301.pdb
 OpenBabel06131021433D

 33 38  0  0  0  0  0  0  0  0999 V2000
   60.4300   45.1510   97.4180 C   0  0  0  0  0
   60.3950   45.1450   96.4230 C   0  0  0  0  0
   60.9460   45.7110   95.8270 C   0  0  0  0  0
   61.6030   46.3560   96.2100 C   0  0  0  0  0
   61.7170   46.4400   97.1890 N   0  0  0  0  0
   61.1590   45.8660   97.7930 C   0  0  0  0  0
   61.3640   46.0410   98.7750 C   0  0  0  0  0
   62.1630   46.9310   95.6030 C   0  0  0  0  0
   62.0620   46.8590   94.6220 C   0  0  0  0  0
   61.4080   46.2190   94.2440 C   0  0  0  0  0
   60.8460   45.6410   94.8470 C   0  0  0  0  0
   60.1840   44.9940   94.4290 O   0  0  0  0  0
   62.0930   46.9210   93.6040 C   0  0  0  0  0
   62.7710   47.5650   94.6680 C   0  0  0  0  0
   59.7210   44.4810   96.1770 C   0  0  0  0  0
   59.3420   44.0780   97.0130 C   0  0  0  0  0
   59.7580   44.4720   97.7490 N   0  0  0  0  0
   58.6330   43.3740   96.9560 C   0  0  0  0  0
   58.3030   43.0720   96.0380 C   0  0  0  0  0
   58.6650   43.4560   95.2370 C   0  0  0  0  0
   59.3710   44.1580   95.3050 C   0  0  0  0  0
   62.4320   47.1400   97.6020 H   0  0  0  0  0
   62.1710   46.8420   98.8580 H   0  0  0  0  0
   61.7080   45.0800   99.2840 H   0  0  0  0  0
   60.4180   46.4060   99.2960 H   0  0  0  0  0
   60.6650   45.4930   93.7750 H   0  0  0  0  0
   61.7500   47.8050   92.9710 H   0  0  0  0  0
   62.8650   46.8240   92.7710 H   0  0  0  0  0
   62.6870   48.6680   94.3930 H   0  0  0  0  0
   63.8300   47.7600   94.2950 H   0  0  0  0  0
   58.9850   42.4570   97.5350 H   0  0  0  0  0
   57.5230   42.2970   95.9670 H   0  0  0  0  0
   58.3040   43.1250   94.2500 H   0  0  0  0  0
  2  1  1  0  0  0
  1 17  1  0  0  0
  1  6  2  0  0  0
  3  2  1  0  0  0
 15  2  2  0  0  0
 11  3  1  0  0  0
  3  4  2  0  0  0
  8  4  1  0  0  0
  4  5  1  0  0  0
  5 22  1  0  0  0
  5  6  1  0  0  0
  6  7  1  0  0  0
  7 23  1  0  0  0
  7 24  1  0  0  0
  7 25  1  0  0  0
  9  8  1  0  0  0
 14  8  1  0  0  0
 13  9  1  0  0  0
 10  9  1  0  0  0
  9 14  1  0  0  0
 13 10  1  0  0  0
 10 11  2  0  0  0
 12 11  1  0  0  0
 26 12  1  0  0  0
 28 13  1  0  0  0
 27 13  1  0  0  0
 30 14  1  0  0  0
 29 14  1  0  0  0
 21 15  1  0  0  0
 15 16  1  0  0  0
 18 16  1  0  0  0
 16 17  2  0  0  0
 19 18  2  0  0  0
 18 31  1  0  0  0
 20 19  1  0  0  0
 32 19  1  0  0  0
 33 20  1  0  0  0
 20 21  2  0  0  0
M  END
$$$$
23897_ChemDiv_6393-0026.pdb
 OpenBabel06131021433D

 31 34  0  0  0  0  0  0  0  0999 V2000
   58.8050   44.0410   95.7690 N   0  0  0  0  0
   59.5010   44.4130   95.1950 N   0  0  0  0  0
   60.2220   44.9500   95.5880 C   0  0  0  0  0
   60.2430   45.1110   96.5470 C   0  0  0  0  0
   59.5470   44.7390   97.1200 C   0  0  0  0  0
   58.8310   44.2060   96.7350 C   0  0  0  0  0
   58.1360   43.8350   97.3090 O   0  0  0  0  0
   59.5690   44.9000   98.0790 C   0  0  0  0  0
   60.2860   45.4330   98.4650 C   0  0  0  0  0
   60.9750   45.8020   97.8960 C   0  0  0  0  0
   60.9600   45.6440   96.9320 C   0  0  0  0  0
   61.5460   45.9210   96.2070 C   0  0  0  0  0
   60.9900   45.3980   95.1950 C   0  0  0  0  0
   61.3760   45.5180   94.3100 C   0  0  0  0  0
   62.1990   46.0450   94.1970 C   0  0  0  0  0
   62.7550   46.5680   95.2090 C   0  0  0  0  0
   62.3590   46.4420   96.1010 C   0  0  0  0  0
   58.0760   43.5000   95.3840 C   0  0  0  0  0
   58.2570   42.5830   95.0880 C   0  0  0  0  0
   58.1610   41.8400   95.7120 O   0  0  0  0  0
   58.5330   42.4110   94.1680 O   0  0  0  0  0
   58.7840   44.4800   98.7270 H   0  0  0  0  0
   60.3120   45.6160   99.5510 H   0  0  0  0  0
   61.7830   46.4050   98.3380 H   0  0  0  0  0
   60.8900   45.0630   93.4320 H   0  0  0  0  0
   62.6360   46.1800   93.1950 H   0  0  0  0  0
   63.6760   47.1600   95.0910 H   0  0  0  0  0
   62.8400   46.8940   96.9830 H   0  0  0  0  0
   57.2120   43.4760   96.1270 H   0  0  0  0  0
   57.8560   44.0390   94.4040 H   0  0  0  0  0
   58.3580   40.8460   95.3890 H   0  0  0  0  0
  2  1  1  0  0  0
 18  1  1  0  0  0
  1  6  1  0  0  0
  2  3  1  0  0  0
 13  3  2  0  0  0
  3  4  1  0  0  0
  4 11  2  0  0  0
  4  5  1  0  0  0
  6  5  1  0  0  0
  5  8  2  0  0  0
  6  7  2  0  0  0
  8  9  1  0  0  0
  8 22  1  0  0  0
 10  9  2  0  0  0
  9 23  1  0  0  0
 11 10  1  0  0  0
 10 24  1  0  0  0
 12 11  1  0  0  0
 13 12  1  0  0  0
 17 12  2  0  0  0
 14 13  1  0  0  0
 25 14  1  0  0  0
 15 14  2  0  0  0
 26 15  1  0  0  0
 15 16  1  0  0  0
 27 16  1  0  0  0
 16 17  1  0  0  0
 17 28  1  0  0  0
 30 18  1  0  0  0
 19 18  1  0  0  0
 18 29  1  0  0  0
 21 19  2  0  0  0
 19 20  1  0  0  0
 31 20  1  0  0  0
M  END
$$$$
23898_ChemDiv_0883-0066.pdb
 OpenBabel06131021433D

 35 41  0  0  0  0  0  0  0  0999 V2000
   61.0560   45.2130   95.2470 C   0  0  0  0  0
   60.7630   45.2660   96.2060 C   0  0  0  0  0
   61.2420   45.7840   96.9350 C   0  0  0  0  0
   62.0810   46.3020   96.7310 C   0  0  0  0  0
   62.4310   46.3000   95.8200 N   0  0  0  0  0
   61.9850   45.8090   95.1070 C   0  0  0  0  0
   62.5500   46.8060   97.4310 C   0  0  0  0  0
   62.1910   46.8060   98.3600 C   0  0  0  0  0
   61.3250   46.2670   98.5550 C   0  0  0  0  0
   60.8760   45.7740   97.8430 C   0  0  0  0  0
   60.0250   45.2590   98.0880 O   0  0  0  0  0
   61.9960   46.9290   99.3340 C   0  0  0  0  0
   63.0420   47.3880   98.3700 C   0  0  0  0  0
   59.9490   44.7340   96.2910 C   0  0  0  0  0
   59.7310   44.3490   95.3930 C   0  0  0  0  0
   60.4200   44.6580   94.7870 N   0  0  0  0  0
   58.9440   43.7850   95.2840 C   0  0  0  0  0
   58.3390   43.5780   96.0640 C   0  0  0  0  0
   58.5520   43.9560   96.9480 C   0  0  0  0  0
   59.3640   44.5380   97.0600 C   0  0  0  0  0
   62.4590   45.8940   94.2030 C   0  0  0  0  0
   62.2410   46.6330   93.5510 C   0  0  0  0  0
   63.1550   45.2370   93.9490 C   0  0  0  0  0
   61.6710   47.9040   99.8280 H   0  0  0  0  0
   62.5350   46.7680  100.3260 H   0  0  0  0  0
   63.0970   48.5160   98.5220 H   0  0  0  0  0
   64.0400   47.4350   98.9200 H   0  0  0  0  0
   58.7110   43.3660   94.2920 H   0  0  0  0  0
   57.4530   42.9380   95.9290 H   0  0  0  0  0
   57.9030   43.7420   97.8110 H   0  0  0  0  0
   62.8910   46.5240   92.6210 H   0  0  0  0  0
   62.4130   47.6500   94.0360 H   0  0  0  0  0
   61.1430   46.5570   93.2520 H   0  0  0  0  0
   63.6670   45.3250   92.9780 H   0  0  0  0  0
   63.4170   44.4180   94.6380 H   0  0  0  0  0
 16  1  2  0  0  0
  6  1  1  0  0  0
  1  2  1  0  0  0
  2 14  1  0  0  0
  2  3  2  0  0  0
  4  3  1  0  0  0
  3 10  1  0  0  0
  5  4  1  0  0  0
  4  7  2  0  0  0
  6  5  2  0  0  0
 21  6  1  0  0  0
  7  8  1  0  0  0
  7 13  1  0  0  0
  8 13  1  0  0  0
  8  9  2  0  0  0
  8 12  1  0  0  0
 10  9  1  0  0  0
  9 12  1  0  0  0
 10 11  2  0  0  0
 20 11  1  0  0  0
 12 24  1  0  0  0
 12 25  1  0  0  0
 13 26  1  0  0  0
 13 27  1  0  0  0
 15 14  1  0  0  0
 14 20  2  0  0  0
 16 15  1  0  0  0
 17 15  2  0  0  0
 28 17  1  0  0  0
 17 18  1  0  0  0
 29 18  1  0  0  0
 18 19  2  0  0  0
 19 20  1  0  0  0
 19 30  1  0  0  0
 22 21  1  0  0  0
 23 21  2  0  0  0
 31 22  1  0  0  0
 33 22  1  0  0  0
 22 32  1  0  0  0
 34 23  1  0  0  0
 23 35  1  0  0  0
M  END
$$$$
23898_ChemDiv_0883-0066.pdb
 OpenBabel06131021433D

 35 41  0  0  0  0  0  0  0  0999 V2000
   61.0110   45.3340   95.2590 C   0  0  0  0  0
   60.7350   45.3330   96.2250 C   0  0  0  0  0
   61.1940   45.8550   96.9640 C   0  0  0  0  0
   61.9940   46.4340   96.7650 C   0  0  0  0  0
   62.3240   46.4880   95.8480 N   0  0  0  0  0
   61.8970   45.9940   95.1250 C   0  0  0  0  0
   62.4430   46.9420   97.4750 C   0  0  0  0  0
   62.1030   46.8840   98.4090 C   0  0  0  0  0
   61.2780   46.2830   98.5990 C   0  0  0  0  0
   60.8470   45.7870   97.8770 C   0  0  0  0  0
   60.0370   45.2090   98.1180 O   0  0  0  0  0
   61.9200   46.9590   99.3910 C   0  0  0  0  0
   62.9140   47.5200   98.4260 C   0  0  0  0  0
   59.9590   44.7460   96.3040 C   0  0  0  0  0
   59.7490   44.3810   95.3960 C   0  0  0  0  0
   60.4030   44.7560   94.7900 N   0  0  0  0  0
   58.9980   43.7700   95.2800 C   0  0  0  0  0
   58.4230   43.4960   96.0620 C   0  0  0  0  0
   58.6290   43.8550   96.9560 C   0  0  0  0  0
   59.4040   44.4850   97.0750 C   0  0  0  0  0
   62.3460   46.1430   94.2170 C   0  0  0  0  0
   62.0670   46.8890   93.5970 C   0  0  0  0  0
   63.0790   45.5430   93.9260 C   0  0  0  0  0
   61.5420   47.8920   99.9270 H   0  0  0  0  0
   62.4870   46.7980  100.3670 H   0  0  0  0  0
   62.8980   48.6430   98.6200 H   0  0  0  0  0
   63.9170   47.6130   98.9600 H   0  0  0  0  0
   58.7740   43.3720   94.2780 H   0  0  0  0  0
   57.5770   42.8050   95.9190 H   0  0  0  0  0
   58.0130   43.5670   97.8220 H   0  0  0  0  0
   62.7040   46.8570   92.6520 H   0  0  0  0  0
   62.1810   47.8970   94.1160 H   0  0  0  0  0
   60.9710   46.7520   93.3150 H   0  0  0  0  0
   63.5650   45.7000   92.9500 H   0  0  0  0  0
   63.4080   44.7190   94.5790 H   0  0  0  0  0
 16  1  2  0  0  0
  6  1  1  0  0  0
  1  2  1  0  0  0
  2 14  1  0  0  0
  2  3  2  0  0  0
  4  3  1  0  0  0
  3 10  1  0  0  0
  5  4  1  0  0  0
  4  7  2  0  0  0
  6  5  2  0  0  0
 21  6  1  0  0  0
  7  8  1  0  0  0
  7 13  1  0  0  0
  8 13  1  0  0  0
  8  9  2  0  0  0
  8 12  1  0  0  0
 10  9  1  0  0  0
  9 12  1  0  0  0
 10 11  2  0  0  0
 20 11  1  0  0  0
 12 24  1  0  0  0
 12 25  1  0  0  0
 13 26  1  0  0  0
 13 27  1  0  0  0
 15 14  1  0  0  0
 14 20  2  0  0  0
 16 15  1  0  0  0
 17 15  2  0  0  0
 28 17  1  0  0  0
 17 18  1  0  0  0
 29 18  1  0  0  0
 18 19  2  0  0  0
 19 20  1  0  0  0
 19 30  1  0  0  0
 22 21  1  0  0  0
 23 21  2  0  0  0
 31 22  1  0  0  0
 33 22  1  0  0  0
 22 32  1  0  0  0
 34 23  1  0  0  0
 23 35  1  0  0  0
M  END
$$$$
23899_ChemDiv_6434-3527.pdb
 OpenBabel06131021433D

 46 49  0  0  0  0  0  0  0  0999 V2000
   62.2450   48.3850  100.8900 C   0  0  0  0  0
   63.0290   47.7680  100.7470 C   0  0  0  0  0
   62.9990   47.0830  100.0090 C   0  0  0  0  0
   62.1950   47.0170   99.4210 C   0  0  0  0  0
   61.4110   47.6330   99.5630 C   0  0  0  0  0
   61.4410   48.3180  100.3020 C   0  0  0  0  0
   62.2860   49.0630  101.6290 C   0  0  0  0  0
   62.6910   49.9640  101.4390 N   0  0  0  0  0
   62.7370   50.6470  102.1680 N   0  0  0  0  0
   62.3780   50.4270  103.0830 C   0  0  0  0  0
   63.1390   51.5460  101.9860 C   0  0  0  0  0
   61.9770   49.5320  103.2620 C   0  0  0  0  0
   62.4240   51.1110  103.8120 O   0  0  0  0  0
   61.9310   48.8480  102.5340 C   0  0  0  0  0
   61.6230   49.3200  104.1700 C   0  0  0  0  0
   61.5310   47.9560  102.7150 C   0  0  0  0  0
   61.1770   47.7410  103.6200 C   0  0  0  0  0
   61.2230   48.4240  104.3490 C   0  0  0  0  0
   62.1650   46.3370   98.6880 O   0  0  0  0  0
   61.8110   45.4220   98.8680 C   0  0  0  0  0
   61.8930   44.7100   98.1770 C   0  0  0  0  0
   61.0850   44.3950   97.6850 N   0  0  0  0  0
   60.1780   44.7960   97.8840 C   0  0  0  0  0
   61.1670   43.6820   96.9940 C   0  0  0  0  0
   59.3790   44.4800   97.3940 C   0  0  0  0  0
   59.4520   43.7680   96.7010 C   0  0  0  0  0
   60.3470   43.3680   96.5000 C   0  0  0  0  0
   62.7830   44.3100   97.9750 O   0  0  0  0  0
   63.9160   47.8420  101.3960 H   0  0  0  0  0
   63.8540   46.4060   99.8510 H   0  0  0  0  0
   60.5240   47.5590   98.9140 H   0  0  0  0  0
   60.5860   48.9930  100.4610 H   0  0  0  0  0
   63.4830   51.5960  100.9000 H   0  0  0  0  0
   64.0170   51.7350  102.6880 H   0  0  0  0  0
   62.3530   52.3520  102.1670 H   0  0  0  0  0
   61.6740   50.0730  104.9720 H   0  0  0  0  0
   61.4790   47.2040  101.9120 H   0  0  0  0  0
   60.7350   46.7520  103.8180 H   0  0  0  0  0
   60.8310   48.1870  105.3510 H   0  0  0  0  0
   62.2770   45.0400   99.8360 H   0  0  0  0  0
   60.6850   45.5990   98.9020 H   0  0  0  0  0
   60.0800   45.5850   98.6470 H   0  0  0  0  0
   62.1500   43.2390   96.7710 H   0  0  0  0  0
   58.3950   44.9210   97.6180 H   0  0  0  0  0
   58.5560   43.4240   96.1610 H   0  0  0  0  0
   60.4360   42.5810   95.7350 H   0  0  0  0  0
  6  1  2  0  0  0
  2  1  1  0  0  0
  1  7  1  0  0  0
  3  2  2  0  0  0
  2 29  1  0  0  0
  4  3  1  0  0  0
 30  3  1  0  0  0
 19  4  1  0  0  0
  4  5  2  0  0  0
 31  5  1  0  0  0
  5  6  1  0  0  0
  6 32  1  0  0  0
  8  7  2  0  0  0
  7 14  1  0  0  0
  8  9  1  0  0  0
 11  9  1  0  0  0
  9 10  1  0  0  0
 10 12  1  0  0  0
 10 13  2  0  0  0
 33 11  1  0  0  0
 11 35  1  0  0  0
 11 34  1  0  0  0
 14 12  2  0  0  0
 12 15  1  0  0  0
 14 16  1  0  0  0
 15 18  2  0  0  0
 15 36  1  0  0  0
 37 16  1  0  0  0
 16 17  2  0  0  0
 17 38  1  0  0  0
 17 18  1  0  0  0
 18 39  1  0  0  0
 19 20  1  0  0  0
 21 20  1  0  0  0
 20 41  1  0  0  0
 20 40  1  0  0  0
 22 21  1  0  0  0
 28 21  2  0  0  0
 24 22  2  0  0  0
 22 23  1  0  0  0
 25 23  2  0  0  0
 23 42  1  0  0  0
 27 24  1  0  0  0
 43 24  1  0  0  0
 26 25  1  0  0  0
 25 44  1  0  0  0
 45 26  1  0  0  0
 27 26  2  0  0  0
 46 27  1  0  0  0
M  END
$$$$
23899_ChemDiv_6434-3527.pdb
 OpenBabel06131021433D

 46 49  0  0  0  0  0  0  0  0999 V2000
   62.8950   48.0590   97.8600 C   0  0  0  0  0
   62.7680   48.8850   97.2970 C   0  0  0  0  0
   63.5710   49.4190   97.0050 C   0  0  0  0  0
   64.4880   49.1300   97.2700 C   0  0  0  0  0
   64.6150   48.3030   97.8330 C   0  0  0  0  0
   63.8120   47.7690   98.1260 C   0  0  0  0  0
   62.0880   47.5340   98.1460 C   0  0  0  0  0
   61.6400   47.7690   99.0150 N   0  0  0  0  0
   60.8350   47.2530   99.3100 N   0  0  0  0  0
   60.4820   46.5060   98.7340 C   0  0  0  0  0
   60.3840   47.4810  100.1740 C   0  0  0  0  0
   60.9320   46.2800   97.8730 C   0  0  0  0  0
   59.6770   45.9900   99.0290 O   0  0  0  0  0
   61.7370   46.7950   97.5790 C   0  0  0  0  0
   60.5780   45.5390   97.3080 C   0  0  0  0  0
   62.1840   46.5680   96.7200 C   0  0  0  0  0
   61.8340   45.8290   96.1530 C   0  0  0  0  0
   61.0290   45.3140   96.4480 C   0  0  0  0  0
   65.2850   49.6600   96.9800 O   0  0  0  0  0
   65.6080   50.4220   97.5360 C   0  0  0  0  0
   66.4440   50.9030   97.2860 C   0  0  0  0  0
   66.4000   51.8430   96.9540 N   0  0  0  0  0
   65.5080   52.3120   96.8690 C   0  0  0  0  0
   67.2350   52.3230   96.7040 C   0  0  0  0  0
   65.4690   53.2440   96.5400 C   0  0  0  0  0
   66.3000   53.7330   96.2880 C   0  0  0  0  0
   67.1850   53.2730   96.3700 C   0  0  0  0  0
   67.3260   50.4470   97.3670 O   0  0  0  0  0
   61.7550   49.2030   97.0020 H   0  0  0  0  0
   63.4360   50.3240   96.3920 H   0  0  0  0  0
   65.6280   47.9840   98.1270 H   0  0  0  0  0
   63.9470   46.8650   98.7400 H   0  0  0  0  0
   59.4940   46.7870  100.3330 H   0  0  0  0  0
   60.0400   48.5680  100.1650 H   0  0  0  0  0
   61.1240   47.3440  101.0300 H   0  0  0  0  0
   59.6920   44.9710   97.6330 H   0  0  0  0  0
   63.0700   47.1370   96.3950 H   0  0  0  0  0
   62.3320   45.5790   95.2030 H   0  0  0  0  0
   60.6400   44.4960   95.8210 H   0  0  0  0  0
   65.7070   50.0650   98.6140 H   0  0  0  0  0
   64.8080   51.2130   97.3540 H   0  0  0  0  0
   64.5800   51.7850   97.1430 H   0  0  0  0  0
   68.2100   51.8180   96.7920 H   0  0  0  0  0
   64.4940   53.7480   96.4510 H   0  0  0  0  0
   66.2450   54.7710   95.9220 H   0  0  0  0  0
   68.1080   53.8070   96.0940 H   0  0  0  0  0
  2  1  2  0  0  0
  1  6  1  0  0  0
  1  7  1  0  0  0
 29  2  1  0  0  0
  3  2  1  0  0  0
 30  3  1  0  0  0
  3  4  2  0  0  0
 19  4  1  0  0  0
  4  5  1  0  0  0
  5  6  2  0  0  0
  5 31  1  0  0  0
  6 32  1  0  0  0
 14  7  1  0  0  0
  7  8  2  0  0  0
  8  9  1  0  0  0
 10  9  1  0  0  0
  9 11  1  0  0  0
 12 10  1  0  0  0
 10 13  2  0  0  0
 34 11  1  0  0  0
 11 33  1  0  0  0
 11 35  1  0  0  0
 15 12  2  0  0  0
 14 12  1  0  0  0
 16 14  2  0  0  0
 18 15  1  0  0  0
 15 36  1  0  0  0
 17 16  1  0  0  0
 37 16  1  0  0  0
 38 17  1  0  0  0
 17 18  2  0  0  0
 39 18  1  0  0  0
 19 20  1  0  0  0
 21 20  1  0  0  0
 41 20  1  0  0  0
 20 40  1  0  0  0
 22 21  1  0  0  0
 21 28  2  0  0  0
 24 22  2  0  0  0
 23 22  1  0  0  0
 25 23  2  0  0  0
 23 42  1  0  0  0
 27 24  1  0  0  0
 24 43  1  0  0  0
 26 25  1  0  0  0
 44 25  1  0  0  0
 45 26  1  0  0  0
 26 27  2  0  0  0
 46 27  1  0  0  0
M  END
$$$$
23900_ChemDiv_0883-0068.pdb
 OpenBabel06131021433D

 38 44  0  0  0  0  0  0  0  0999 V2000
   60.4030   45.1270   97.4450 C   0  0  0  0  0
   60.3610   45.1220   96.4410 C   0  0  0  0  0
   60.9250   45.7090   95.8330 C   0  0  0  0  0
   61.5900   46.3610   96.2160 C   0  0  0  0  0
   61.6880   46.4230   97.1820 N   0  0  0  0  0
   61.1600   45.8720   97.7860 C   0  0  0  0  0
   62.1380   46.9300   95.6310 C   0  0  0  0  0
   62.0350   46.8640   94.6390 C   0  0  0  0  0
   61.3420   46.1840   94.2590 C   0  0  0  0  0
   60.8090   45.6290   94.8590 C   0  0  0  0  0
   60.1410   44.9760   94.4370 O   0  0  0  0  0
   62.0760   46.9420   93.6400 C   0  0  0  0  0
   62.7560   47.5790   94.8140 C   0  0  0  0  0
   59.6910   44.4620   96.1810 C   0  0  0  0  0
   59.3120   44.0520   97.0180 C   0  0  0  0  0
   59.7640   44.4770   97.7610 N   0  0  0  0  0
   58.6230   43.3650   96.9540 C   0  0  0  0  0
   58.2770   43.0520   96.0560 C   0  0  0  0  0
   58.6490   43.4540   95.2320 C   0  0  0  0  0
   59.3620   44.1650   95.3020 C   0  0  0  0  0
   61.3670   46.0430   98.7740 C   0  0  0  0  0
   60.8180   46.6810   99.2930 C   0  0  0  0  0
   60.9920   47.6530   99.2820 C   0  0  0  0  0
   60.0790   46.3250   99.8300 C   0  0  0  0  0
   61.7350   47.8440   93.0320 H   0  0  0  0  0
   62.8680   46.8630   92.8240 H   0  0  0  0  0
   62.6670   48.6990   94.6230 H   0  0  0  0  0
   63.8410   47.7860   94.5310 H   0  0  0  0  0
   58.2140   42.9220   97.8760 H   0  0  0  0  0
   58.3970   41.9200   95.9950 H   0  0  0  0  0
   58.2870   43.1280   94.2440 H   0  0  0  0  0
   62.4600   46.3530   98.8640 H   0  0  0  0  0
   61.0980   45.0450   99.2550 H   0  0  0  0  0
   61.8840   47.8720   98.6070 H   0  0  0  0  0
   61.1950   48.0300  100.3390 H   0  0  0  0  0
   60.0740   48.1940   98.8770 H   0  0  0  0  0
   59.8810   45.2410   99.8450 H   0  0  0  0  0
   59.4460   47.0090  100.4180 H   0  0  0  0  0
  2  1  1  0  0  0
  1 16  2  0  0  0
  1  6  1  0  0  0
  3  2  1  0  0  0
 14  2  2  0  0  0
 10  3  1  0  0  0
  3  4  1  0  0  0
  7  4  1  0  0  0
  4  5  2  0  0  0
  5  6  1  0  0  0
  6 21  1  0  0  0
  8  7  1  0  0  0
 13  7  1  0  0  0
 12  8  1  0  0  0
  9  8  1  0  0  0
  8 13  1  0  0  0
 12  9  1  0  0  0
  9 10  2  0  0  0
 11 10  1  0  0  0
 11 20  1  0  0  0
 26 12  1  0  0  0
 25 12  1  0  0  0
 28 13  1  0  0  0
 27 13  1  0  0  0
 20 14  1  0  0  0
 14 15  1  0  0  0
 17 15  2  0  0  0
 15 16  1  0  0  0
 18 17  1  0  0  0
 17 29  1  0  0  0
 19 18  1  0  0  0
 30 18  1  0  0  0
 31 19  1  0  0  0
 19 20  2  0  0  0
 21 32  1  0  0  0
 21 33  1  0  0  0
 21 22  1  0  0  0
 23 22  1  0  0  0
 22 24  2  0  0  0
 34 23  1  0  0  0
 36 23  1  0  0  0
 23 35  1  0  0  0
 24 37  1  0  0  0
 24 38  1  0  0  0
M  END
$$$$
23900_ChemDiv_0883-0068.pdb
 OpenBabel06131021443D

 38 44  0  0  0  0  0  0  0  0999 V2000
   60.2560   45.2590   97.4540 C   0  0  0  0  0
   60.2850   45.1910   96.4510 C   0  0  0  0  0
   60.8860   45.7440   95.8480 C   0  0  0  0  0
   61.5190   46.4270   96.2350 C   0  0  0  0  0
   61.5480   46.5500   97.1990 N   0  0  0  0  0
   60.9820   46.0330   97.7990 C   0  0  0  0  0
   62.1020   46.9640   95.6550 C   0  0  0  0  0
   62.0700   46.8350   94.6640 C   0  0  0  0  0
   61.4100   46.1250   94.2800 C   0  0  0  0  0
   60.8400   45.6030   94.8750 C   0  0  0  0  0
   60.2080   44.9170   94.4500 O   0  0  0  0  0
   62.1810   46.8510   93.6670 C   0  0  0  0  0
   62.7720   47.5680   94.8430 C   0  0  0  0  0
   59.6400   44.5080   96.1880 C   0  0  0  0  0
   59.2060   44.1470   97.0210 C   0  0  0  0  0
   59.6020   44.6230   97.7650 N   0  0  0  0  0
   58.5280   43.4500   96.9520 C   0  0  0  0  0
   58.2480   43.0770   96.0540 C   0  0  0  0  0
   58.6740   43.4310   95.2340 C   0  0  0  0  0
   59.3760   44.1520   95.3080 C   0  0  0  0  0
   61.1180   46.2680   98.7860 C   0  0  0  0  0
   60.5290   46.9310   99.2240 C   0  0  0  0  0
   60.6970   47.9020   99.1640 C   0  0  0  0  0
   59.7560   46.6000   99.7290 C   0  0  0  0  0
   61.8780   47.7090   92.9810 H   0  0  0  0  0
   63.0290   46.7300   92.9150 H   0  0  0  0  0
   62.6890   48.6730   94.5760 H   0  0  0  0  0
   63.8720   47.7700   94.6230 H   0  0  0  0  0
   58.0580   43.0610   97.8690 H   0  0  0  0  0
   58.3810   41.9450   96.0730 H   0  0  0  0  0
   58.3830   43.0400   94.2460 H   0  0  0  0  0
   62.2000   46.5960   98.9320 H   0  0  0  0  0
   60.8240   45.2990   99.3090 H   0  0  0  0  0
   61.6330   48.0880   98.5410 H   0  0  0  0  0
   60.8220   48.3460  100.2060 H   0  0  0  0  0
   59.8060   48.4060   98.6620 H   0  0  0  0  0
   59.5660   45.5170   99.7980 H   0  0  0  0  0
   59.0780   47.3110  100.2270 H   0  0  0  0  0
  2  1  1  0  0  0
  1 16  2  0  0  0
  1  6  1  0  0  0
  3  2  1  0  0  0
 14  2  2  0  0  0
 10  3  1  0  0  0
  3  4  1  0  0  0
  7  4  1  0  0  0
  4  5  2  0  0  0
  5  6  1  0  0  0
  6 21  1  0  0  0
  8  7  1  0  0  0
 13  7  1  0  0  0
 12  8  1  0  0  0
  9  8  1  0  0  0
  8 13  1  0  0  0
 12  9  1  0  0  0
  9 10  2  0  0  0
 11 10  1  0  0  0
 11 20  1  0  0  0
 26 12  1  0  0  0
 25 12  1  0  0  0
 27 13  1  0  0  0
 28 13  1  0  0  0
 20 14  1  0  0  0
 14 15  1  0  0  0
 17 15  2  0  0  0
 15 16  1  0  0  0
 18 17  1  0  0  0
 17 29  1  0  0  0
 19 18  1  0  0  0
 18 30  1  0  0  0
 31 19  1  0  0  0
 19 20  2  0  0  0
 21 32  1  0  0  0
 21 22  1  0  0  0
 21 33  1  0  0  0
 23 22  1  0  0  0
 22 24  2  0  0  0
 34 23  1  0  0  0
 36 23  1  0  0  0
 23 35  1  0  0  0
 24 37  1  0  0  0
 24 38  1  0  0  0
M  END
$$$$
23901_ChemDiv_6434-3542.pdb
 OpenBabel06131021443D

 44 47  0  0  0  0  0  0  0  0999 V2000
   61.8200   48.1870  100.9790 C   0  0  0  0  0
   60.8780   47.9860  100.6830 C   0  0  0  0  0
   60.6830   47.1330  100.1790 C   0  0  0  0  0
   61.4240   46.4920   99.9770 C   0  0  0  0  0
   62.3660   46.6930  100.2740 C   0  0  0  0  0
   62.5610   47.5460  100.7770 C   0  0  0  0  0
   62.0070   49.0410  101.4820 C   0  0  0  0  0
   61.9220   49.0510  102.4860 N   0  0  0  0  0
   62.1050   49.8940  102.9910 N   0  0  0  0  0
   62.3740   50.7270  102.4920 C   0  0  0  0  0
   62.0220   49.9080  103.9880 C   0  0  0  0  0
   62.4570   50.7140  101.4950 C   0  0  0  0  0
   62.5580   51.5710  102.9970 O   0  0  0  0  0
   62.2740   49.8710  100.9900 C   0  0  0  0  0
   62.7240   51.5420  101.0060 C   0  0  0  0  0
   62.3560   49.8550   99.9960 C   0  0  0  0  0
   62.6220   50.6820   99.5080 C   0  0  0  0  0
   62.8060   51.5260  100.0130 C   0  0  0  0  0
   61.2310   45.6430   99.4760 O   0  0  0  0  0
   61.2810   45.6300   98.4770 C   0  0  0  0  0
   61.2100   44.7630   97.9840 C   0  0  0  0  0
   60.4030   44.5660   97.4320 N   0  0  0  0  0
   59.6680   45.2340   97.3700 C   0  0  0  0  0
   60.1510   43.7840   96.8840 C   0  0  0  0  0
   58.9690   44.8590   96.7850 C   0  0  0  0  0
   59.2690   43.9630   96.4850 C   0  0  0  0  0
   61.9490   44.0900   98.0460 O   0  0  0  0  0
   60.0650   48.6940  100.9080 H   0  0  0  0  0
   59.6550   46.9090   99.8520 H   0  0  0  0  0
   63.1790   45.9850  100.0510 H   0  0  0  0  0
   63.5890   47.7710  101.1030 H   0  0  0  0  0
   61.7100   48.8760  104.3580 H   0  0  0  0  0
   61.2580   50.6900  104.3090 H   0  0  0  0  0
   63.0300   50.1810  104.4440 H   0  0  0  0  0
   62.9270   52.4710  101.5620 H   0  0  0  0  0
   62.1530   48.9260   99.4400 H   0  0  0  0  0
   62.7140   50.6670   98.4100 H   0  0  0  0  0
   63.1000   52.4390   99.4710 H   0  0  0  0  0
   60.4920   46.3430   98.0670 H   0  0  0  0  0
   62.3620   45.9340   98.2830 H   0  0  0  0  0
   59.6410   46.2170   97.8660 H   0  0  0  0  0
   60.7520   42.8710   96.7440 H   0  0  0  0  0
   58.0210   45.3490   96.5120 H   0  0  0  0  0
   58.7120   43.2850   95.8200 H   0  0  0  0  0
  2  1  2  0  0  0
  6  1  1  0  0  0
  1  7  1  0  0  0
  3  2  1  0  0  0
  2 28  1  0  0  0
 29  3  1  0  0  0
  4  3  2  0  0  0
 19  4  1  0  0  0
  4  5  1  0  0  0
 30  5  1  0  0  0
  5  6  2  0  0  0
  6 31  1  0  0  0
 14  7  1  0  0  0
  7  8  2  0  0  0
  8  9  1  0  0  0
 10  9  1  0  0  0
  9 11  1  0  0  0
 12 10  1  0  0  0
 10 13  2  0  0  0
 11 33  1  0  0  0
 11 32  1  0  0  0
 11 34  1  0  0  0
 14 12  2  0  0  0
 15 12  1  0  0  0
 16 14  1  0  0  0
 18 15  2  0  0  0
 15 35  1  0  0  0
 36 16  1  0  0  0
 17 16  2  0  0  0
 37 17  1  0  0  0
 17 18  1  0  0  0
 38 18  1  0  0  0
 20 19  1  0  0  0
 21 20  1  0  0  0
 39 20  1  0  0  0
 40 20  1  0  0  0
 22 21  1  0  0  0
 21 27  2  0  0  0
 24 22  1  0  0  0
 23 22  1  0  0  0
 25 23  2  0  0  0
 23 41  1  0  0  0
 26 24  2  0  0  0
 42 24  1  0  0  0
 26 25  1  0  0  0
 43 25  1  0  0  0
 44 26  1  0  0  0
M  END
$$$$
23901_ChemDiv_6434-3542.pdb
 OpenBabel06131021443D

 44 47  0  0  0  0  0  0  0  0999 V2000
   62.9630   47.8290   97.6190 C   0  0  0  0  0
   63.8880   47.6930   97.9940 C   0  0  0  0  0
   64.6160   48.3610   97.7860 C   0  0  0  0  0
   64.4160   49.1540   97.2100 C   0  0  0  0  0
   63.4900   49.2900   96.8350 C   0  0  0  0  0
   62.7630   48.6230   97.0430 C   0  0  0  0  0
   62.2410   47.1580   97.8310 C   0  0  0  0  0
   62.1150   46.3620   97.2260 N   0  0  0  0  0
   61.4010   45.6920   97.4300 N   0  0  0  0  0
   60.8140   45.8170   98.2390 C   0  0  0  0  0
   61.2720   44.9010   96.8310 C   0  0  0  0  0
   60.9430   46.6090   98.8390 C   0  0  0  0  0
   60.1000   45.1470   98.4430 O   0  0  0  0  0
   61.6560   47.2790   98.6350 C   0  0  0  0  0
   60.3590   46.7280   99.6390 C   0  0  0  0  0
   61.7860   48.0680   99.2310 C   0  0  0  0  0
   61.2030   48.1860  100.0300 C   0  0  0  0  0
   60.4890   47.5160  100.2340 C   0  0  0  0  0
   65.1400   49.8190   97.0030 O   0  0  0  0  0
   65.2830   50.6060   97.6050 C   0  0  0  0  0
   66.0850   51.1900   97.4810 C   0  0  0  0  0
   65.9790   52.1210   97.1410 N   0  0  0  0  0
   65.0730   52.4700   96.9230 C   0  0  0  0  0
   66.6340   52.8370   96.9550 C   0  0  0  0  0
   65.1760   53.3970   96.6060 C   0  0  0  0  0
   66.1420   53.6230   96.6260 C   0  0  0  0  0
   66.9970   50.8390   97.6990 O   0  0  0  0  0
   64.1040   46.8190   98.6280 H   0  0  0  0  0
   65.6290   48.2170   98.1930 H   0  0  0  0  0
   63.2730   50.1640   96.2000 H   0  0  0  0  0
   61.7490   48.7680   96.6370 H   0  0  0  0  0
   62.0290   44.9410   95.9790 H   0  0  0  0  0
   60.2100   44.8890   96.4160 H   0  0  0  0  0
   61.4340   43.9460   97.4320 H   0  0  0  0  0
   59.5730   45.9900   99.8640 H   0  0  0  0  0
   62.5720   48.8070   99.0060 H   0  0  0  0  0
   61.3450   49.0560  100.6900 H   0  0  0  0  0
   59.8460   47.6500  101.1180 H   0  0  0  0  0
   65.2660   50.2420   98.6850 H   0  0  0  0  0
   64.4270   51.2990   97.3100 H   0  0  0  0  0
   64.1240   51.9180   97.0190 H   0  0  0  0  0
   67.7250   52.7670   97.0920 H   0  0  0  0  0
   64.3610   54.0660   96.2850 H   0  0  0  0  0
   66.5860   54.5870   96.3310 H   0  0  0  0  0
  6  1  2  0  0  0
  1  7  1  0  0  0
  1  2  1  0  0  0
  3  2  2  0  0  0
  2 28  1  0  0  0
  4  3  1  0  0  0
  3 29  1  0  0  0
  5  4  2  0  0  0
 19  4  1  0  0  0
 30  5  1  0  0  0
  5  6  1  0  0  0
 31  6  1  0  0  0
  8  7  2  0  0  0
  7 14  1  0  0  0
  8  9  1  0  0  0
 11  9  1  0  0  0
  9 10  1  0  0  0
 10 13  2  0  0  0
 10 12  1  0  0  0
 32 11  1  0  0  0
 33 11  1  0  0  0
 11 34  1  0  0  0
 14 12  2  0  0  0
 12 15  1  0  0  0
 14 16  1  0  0  0
 15 35  1  0  0  0
 15 18  2  0  0  0
 36 16  1  0  0  0
 16 17  2  0  0  0
 17 18  1  0  0  0
 17 37  1  0  0  0
 18 38  1  0  0  0
 19 20  1  0  0  0
 40 20  1  0  0  0
 21 20  1  0  0  0
 20 39  1  0  0  0
 22 21  1  0  0  0
 21 27  2  0  0  0
 23 22  1  0  0  0
 24 22  1  0  0  0
 25 23  2  0  0  0
 23 41  1  0  0  0
 26 24  2  0  0  0
 24 42  1  0  0  0
 43 25  1  0  0  0
 25 26  1  0  0  0
 44 26  1  0  0  0
M  END
$$$$
23903_ChemDiv_6434-3545.pdb
 OpenBabel06131021443D

 49 52  0  0  0  0  0  0  0  0999 V2000
   63.0030   47.7170   97.5440 C   0  0  0  0  0
   62.9480   48.4630   96.8740 C   0  0  0  0  0
   63.7350   49.0820   96.7450 C   0  0  0  0  0
   64.5620   48.9500   97.2810 C   0  0  0  0  0
   64.6210   48.2060   97.9500 C   0  0  0  0  0
   63.8340   47.5880   98.0790 C   0  0  0  0  0
   62.2160   47.1060   97.6660 C   0  0  0  0  0
   62.1320   46.2890   97.0890 N   0  0  0  0  0
   61.3540   45.6780   97.2030 N   0  0  0  0  0
   60.6570   45.8810   97.8970 C   0  0  0  0  0
   61.2700   44.8630   96.6290 C   0  0  0  0  0
   60.7430   46.6930   98.4680 C   0  0  0  0  0
   59.8760   45.2680   98.0120 O   0  0  0  0  0
   61.5210   47.3040   98.3530 C   0  0  0  0  0
   60.0490   46.8920   99.1550 C   0  0  0  0  0
   61.6080   48.1170   98.9250 C   0  0  0  0  0
   60.9130   48.3150   99.6120 C   0  0  0  0  0
   60.1350   47.7040   99.7260 C   0  0  0  0  0
   65.3420   49.5630   97.1530 O   0  0  0  0  0
   65.4130   50.4010   97.6880 C   0  0  0  0  0
   66.1650   51.0340   97.5280 C   0  0  0  0  0
   65.9850   51.9340   97.1380 N   0  0  0  0  0
   66.7570   52.5640   96.9820 C   0  0  0  0  0
   65.0550   52.2000   96.9080 C   0  0  0  0  0
   66.5780   53.4640   96.5910 C   0  0  0  0  0
   65.6390   53.7390   96.3570 C   0  0  0  0  0
   64.8870   53.1050   96.5170 C   0  0  0  0  0
   65.4700   54.6460   95.9650 C   0  0  0  0  0
   67.0980   50.7710   97.7570 O   0  0  0  0  0
   62.0310   48.6060   96.2810 H   0  0  0  0  0
   63.6780   49.9020   96.0120 H   0  0  0  0  0
   65.5400   48.0640   98.5410 H   0  0  0  0  0
   63.8930   46.7690   98.8130 H   0  0  0  0  0
   62.1530   44.8110   95.9100 H   0  0  0  0  0
   60.2890   44.8890   96.0480 H   0  0  0  0  0
   61.2710   43.9360   97.2920 H   0  0  0  0  0
   59.1890   46.2160   99.2830 H   0  0  0  0  0
   62.4680   48.7930   98.7980 H   0  0  0  0  0
   61.0060   49.2110  100.2460 H   0  0  0  0  0
   59.3680   47.9260  100.4850 H   0  0  0  0  0
   65.4050   50.1240   98.7940 H   0  0  0  0  0
   64.5120   50.9980   97.3250 H   0  0  0  0  0
   67.7840   52.2620   97.2400 H   0  0  0  0  0
   64.2180   51.5050   97.0820 H   0  0  0  0  0
   67.4130   54.1600   96.4140 H   0  0  0  0  0
   63.8590   53.4050   96.2600 H   0  0  0  0  0
   64.3540   54.7740   95.7680 H   0  0  0  0  0
   66.0590   54.7740   94.9970 H   0  0  0  0  0
   65.8140   55.4430   96.7040 H   0  0  0  0  0
  2  1  2  0  0  0
  1  7  1  0  0  0
  1  6  1  0  0  0
 30  2  1  0  0  0
  3  2  1  0  0  0
 31  3  1  0  0  0
  3  4  2  0  0  0
 19  4  1  0  0  0
  4  5  1  0  0  0
  5  6  2  0  0  0
  5 32  1  0  0  0
  6 33  1  0  0  0
  8  7  2  0  0  0
  7 14  1  0  0  0
  8  9  1  0  0  0
 11  9  1  0  0  0
  9 10  1  0  0  0
 10 13  2  0  0  0
 10 12  1  0  0  0
 34 11  1  0  0  0
 35 11  1  0  0  0
 11 36  1  0  0  0
 14 12  2  0  0  0
 12 15  1  0  0  0
 14 16  1  0  0  0
 15 37  1  0  0  0
 15 18  2  0  0  0
 38 16  1  0  0  0
 16 17  2  0  0  0
 17 18  1  0  0  0
 17 39  1  0  0  0
 18 40  1  0  0  0
 19 20  1  0  0  0
 42 20  1  0  0  0
 21 20  1  0  0  0
 20 41  1  0  0  0
 22 21  1  0  0  0
 21 29  2  0  0  0
 24 22  2  0  0  0
 23 22  1  0  0  0
 25 23  2  0  0  0
 23 43  1  0  0  0
 27 24  1  0  0  0
 24 44  1  0  0  0
 26 25  1  0  0  0
 45 25  1  0  0  0
 28 26  1  0  0  0
 26 27  2  0  0  0
 46 27  1  0  0  0
 48 28  1  0  0  0
 47 28  1  0  0  0
 28 49  1  0  0  0
M  END
$$$$
23903_ChemDiv_6434-3545.pdb
 OpenBabel06131021443D

 49 52  0  0  0  0  0  0  0  0999 V2000
   63.0910   50.2990   99.3850 C   0  0  0  0  0
   62.8160   49.8640   98.5220 C   0  0  0  0  0
   62.7300   48.8600   98.4710 C   0  0  0  0  0
   62.9180   48.3050   99.2740 C   0  0  0  0  0
   63.1930   48.7360  100.1370 C   0  0  0  0  0
   63.2780   49.7400  100.1880 C   0  0  0  0  0
   63.1740   51.2990   99.4270 C   0  0  0  0  0
   62.3670   51.8500   99.6600 N   0  0  0  0  0
   62.4410   52.8430   99.7040 N   0  0  0  0  0
   63.3220   53.2880   99.5160 C   0  0  0  0  0
   61.6380   53.3940   99.9350 C   0  0  0  0  0
   64.1190   52.7370   99.2850 C   0  0  0  0  0
   63.3960   54.2840   99.5600 O   0  0  0  0  0
   64.0460   51.7440   99.2410 C   0  0  0  0  0
   64.9920   53.1820   99.0990 C   0  0  0  0  0
   64.8450   51.1930   99.0110 C   0  0  0  0  0
   65.7160   51.6390   98.8250 C   0  0  0  0  0
   65.7900   52.6310   98.8690 C   0  0  0  0  0
   62.8330   47.3100   99.2240 O   0  0  0  0  0
   61.9650   46.8700   99.4410 C   0  0  0  0  0
   61.8670   45.8840   99.3460 C   0  0  0  0  0
   61.2390   45.5070   98.6690 N   0  0  0  0  0
   61.1510   44.5060   98.5860 C   0  0  0  0  0
   60.7100   46.1160   98.0880 C   0  0  0  0  0
   60.5230   44.1290   97.9090 C   0  0  0  0  0
   59.9860   44.7400   97.3180 C   0  0  0  0  0
   60.0840   45.7270   97.4130 C   0  0  0  0  0
   59.3570   44.3500   96.6400 C   0  0  0  0  0
   62.3960   45.2700   99.9270 O   0  0  0  0  0
   62.6090   50.4820   97.6340 H   0  0  0  0  0
   62.4280   48.3800   97.5270 H   0  0  0  0  0
   63.4010   48.1170  101.0240 H   0  0  0  0  0
   63.5780   50.2190  101.1330 H   0  0  0  0  0
   61.9210   54.4980   99.9350 H   0  0  0  0  0
   61.2320   53.0910  100.9560 H   0  0  0  0  0
   60.8250   53.2160   99.1560 H   0  0  0  0  0
   65.0740   54.2790   99.1480 H   0  0  0  0  0
   64.7640   50.0960   98.9630 H   0  0  0  0  0
   66.6000   51.0330   98.5700 H   0  0  0  0  0
   66.7550   53.1200   98.6630 H   0  0  0  0  0
   61.1440   47.3740   98.8310 H   0  0  0  0  0
   61.8960   47.0130  100.5700 H   0  0  0  0  0
   61.7400   43.8380   99.2340 H   0  0  0  0  0
   60.8130   47.2080   98.1870 H   0  0  0  0  0
   60.4170   43.0370   97.8080 H   0  0  0  0  0
   59.4960   46.3970   96.7670 H   0  0  0  0  0
   58.8420   45.1920   96.0700 H   0  0  0  0  0
   58.5820   43.6900   97.1540 H   0  0  0  0  0
   59.9480   43.7080   95.9070 H   0  0  0  0  0
  2  1  2  0  0  0
  1  7  1  0  0  0
  1  6  1  0  0  0
 30  2  1  0  0  0
  3  2  1  0  0  0
 31  3  1  0  0  0
  3  4  2  0  0  0
 19  4  1  0  0  0
  4  5  1  0  0  0
  5  6  2  0  0  0
  5 32  1  0  0  0
  6 33  1  0  0  0
 14  7  1  0  0  0
  7  8  2  0  0  0
  8  9  1  0  0  0
 10  9  1  0  0  0
  9 11  1  0  0  0
 12 10  1  0  0  0
 10 13  2  0  0  0
 36 11  1  0  0  0
 34 11  1  0  0  0
 11 35  1  0  0  0
 15 12  2  0  0  0
 14 12  1  0  0  0
 16 14  2  0  0  0
 18 15  1  0  0  0
 15 37  1  0  0  0
 17 16  1  0  0  0
 38 16  1  0  0  0
 39 17  1  0  0  0
 17 18  2  0  0  0
 40 18  1  0  0  0
 19 20  1  0  0  0
 41 20  1  0  0  0
 21 20  1  0  0  0
 20 42  1  0  0  0
 22 21  1  0  0  0
 21 29  2  0  0  0
 24 22  2  0  0  0
 23 22  1  0  0  0
 25 23  2  0  0  0
 23 43  1  0  0  0
 27 24  1  0  0  0
 24 44  1  0  0  0
 26 25  1  0  0  0
 45 25  1  0  0  0
 28 26  1  0  0  0
 26 27  2  0  0  0
 46 27  1  0  0  0
 49 28  1  0  0  0
 47 28  1  0  0  0
 28 48  1  0  0  0
M  END
$$$$
23903_ChemDiv_6434-3545.pdb
 OpenBabel06131021443D

 49 52  0  0  0  0  0  0  0  0999 V2000
   62.8650   47.7840   97.7850 C   0  0  0  0  0
   62.6890   48.6290   97.2710 C   0  0  0  0  0
   63.4540   49.2450   97.0400 C   0  0  0  0  0
   64.3790   49.0140   97.3210 C   0  0  0  0  0
   64.5580   48.1720   97.8340 C   0  0  0  0  0
   63.7940   47.5560   98.0650 C   0  0  0  0  0
   62.0980   47.1770   98.0110 C   0  0  0  0  0
   61.8370   46.4530   97.3660 N   0  0  0  0  0
   61.0780   45.8460   97.5820 N   0  0  0  0  0
   60.5760   45.9610   98.4450 C   0  0  0  0  0
   60.8160   45.1240   96.9400 C   0  0  0  0  0
   60.8390   46.6800   99.0820 C   0  0  0  0  0
   59.8140   45.3510   98.6620 O   0  0  0  0  0
   61.5980   47.2870   98.8660 C   0  0  0  0  0
   60.3390   46.7910   99.9380 C   0  0  0  0  0
   61.8610   48.0070   99.5040 C   0  0  0  0  0
   61.3610   48.1170  100.3590 C   0  0  0  0  0
   60.6010   47.5100  100.5760 C   0  0  0  0  0
   65.1370   49.6250   97.0920 O   0  0  0  0  0
   65.3810   50.3720   97.7050 C   0  0  0  0  0
   66.1600   50.9560   97.4960 C   0  0  0  0  0
   66.0150   51.8780   97.1450 N   0  0  0  0  0
   66.8140   52.4560   96.9390 C   0  0  0  0  0
   65.0900   52.2150   97.0020 C   0  0  0  0  0
   66.6690   53.3780   96.5870 C   0  0  0  0  0
   65.7360   53.7250   96.4410 C   0  0  0  0  0
   64.9560   53.1410   96.6490 C   0  0  0  0  0
   65.6010   54.6540   96.0870 C   0  0  0  0  0
   67.0880   50.6200   97.6380 O   0  0  0  0  0
   61.6630   48.8820   96.9600 H   0  0  0  0  0
   63.2640   50.1730   96.4770 H   0  0  0  0  0
   65.5850   47.9210   98.1440 H   0  0  0  0  0
   63.9860   46.6290   98.6280 H   0  0  0  0  0
   61.5010   45.1580   96.0290 H   0  0  0  0  0
   59.7290   45.2540   96.6220 H   0  0  0  0  0
   60.9230   44.1110   97.4520 H   0  0  0  0  0
   59.4990   46.1200  100.1770 H   0  0  0  0  0
   62.7010   48.6780   99.2650 H   0  0  0  0  0
   61.6490   48.9110  101.0660 H   0  0  0  0  0
   60.0500   47.6340  101.5220 H   0  0  0  0  0
   65.5210   49.9460   98.7530 H   0  0  0  0  0
   64.5020   51.0860   97.5790 H   0  0  0  0  0
   67.8350   52.0750   97.1000 H   0  0  0  0  0
   64.2230   51.5750   97.2300 H   0  0  0  0  0
   67.5350   54.0190   96.3570 H   0  0  0  0  0
   63.9340   53.5200   96.4880 H   0  0  0  0  0
   66.6140   55.1480   95.9170 H   0  0  0  0  0
   64.9800   55.2690   96.8190 H   0  0  0  0  0
   65.0400   54.6000   95.0960 H   0  0  0  0  0
  2  1  2  0  0  0
  1  7  1  0  0  0
  1  6  1  0  0  0
 30  2  1  0  0  0
  3  2  1  0  0  0
 31  3  1  0  0  0
  3  4  2  0  0  0
 19  4  1  0  0  0
  4  5  1  0  0  0
  5  6  2  0  0  0
  5 32  1  0  0  0
  6 33  1  0  0  0
  8  7  2  0  0  0
  7 14  1  0  0  0
  8  9  1  0  0  0
 11  9  1  0  0  0
  9 10  1  0  0  0
 10 13  2  0  0  0
 10 12  1  0  0  0
 34 11  1  0  0  0
 35 11  1  0  0  0
 11 36  1  0  0  0
 14 12  2  0  0  0
 12 15  1  0  0  0
 14 16  1  0  0  0
 15 37  1  0  0  0
 15 18  2  0  0  0
 38 16  1  0  0  0
 16 17  2  0  0  0
 17 18  1  0  0  0
 17 39  1  0  0  0
 18 40  1  0  0  0
 19 20  1  0  0  0
 21 20  1  0  0  0
 42 20  1  0  0  0
 20 41  1  0  0  0
 22 21  1  0  0  0
 21 29  2  0  0  0
 23 22  2  0  0  0
 24 22  1  0  0  0
 25 23  1  0  0  0
 23 43  1  0  0  0
 27 24  2  0  0  0
 24 44  1  0  0  0
 45 25  1  0  0  0
 26 25  2  0  0  0
 28 26  1  0  0  0
 26 27  1  0  0  0
 46 27  1  0  0  0
 49 28  1  0  0  0
 47 28  1  0  0  0
 28 48  1  0  0  0
M  END
$$$$
23906_ChemDiv_8011-9692.pdb
 OpenBabel06131021443D

 18 19  0  0  0  0  0  0  0  0999 V2000
   62.4150   46.3650   98.4590 C   0  0  0  0  0
   63.3240   46.5610   98.7930 C   0  0  0  0  0
   64.2370   46.7650   99.1200 N   0  0  0  0  0
   61.8890   45.7100   98.9210 C   0  0  0  0  0
   60.9860   45.5360   98.6640 N   0  0  0  0  0
   60.7800   44.8270   98.0460 C   0  0  0  0  0
   59.8840   44.6900   97.8210 C   0  0  0  0  0
   61.4720   44.2910   97.6830 N   0  0  0  0  0
   59.3980   45.9150   98.7850 N   0  0  0  0  0
   59.6770   43.9790   97.2000 C   0  0  0  0  0
   60.2870   46.0730   99.0270 C   0  0  0  0  0
   60.4960   46.8070   99.6670 S   0  0  0  0  0
   60.3760   43.4410   96.8370 N   0  0  0  0  0
   58.7850   43.8080   96.9470 O   0  0  0  0  0
   61.2690   43.5950   97.0760 C   0  0  0  0  0
   62.0150   46.8870   97.5760 H   0  0  0  0  0
   62.3320   45.1500   99.7600 H   0  0  0  0  0
   62.0730   42.9720   96.6540 H   0  0  0  0  0
 16  1  1  0  0  0
  1  2  1  0  0  0
  1  4  2  0  0  0
  2  3  3  0  0  0
  5  4  1  0  0  0
  4 17  1  0  0  0
  6  5  1  0  0  0
  5 11  1  0  0  0
  8  6  2  0  0  0
  7  6  1  0  0  0
 10  7  1  0  0  0
  7  9  2  0  0  0
 15  8  1  0  0  0
  9 11  1  0  0  0
 13 10  1  0  0  0
 14 10  2  0  0  0
 11 12  2  0  0  0
 13 15  2  0  0  0
 18 15  1  0  0  0
M  END
$$$$
23906_ChemDiv_8011-9692.pdb
 OpenBabel06131021443D

 18 19  0  0  0  0  0  0  0  0999 V2000
   62.4270   46.3990   98.4670 C   0  0  0  0  0
   63.3360   46.5810   98.8080 C   0  0  0  0  0
   64.2490   46.7710   99.1410 N   0  0  0  0  0
   61.8760   45.7730   98.9410 C   0  0  0  0  0
   60.9840   45.5910   98.6570 N   0  0  0  0  0
   60.7970   44.8530   98.0660 C   0  0  0  0  0
   59.9100   44.7100   97.8120 C   0  0  0  0  0
   61.4990   44.2970   97.7590 N   0  0  0  0  0
   59.3950   45.9840   98.6940 N   0  0  0  0  0
   59.7230   43.9700   97.2200 C   0  0  0  0  0
   60.2740   46.1500   98.9640 C   0  0  0  0  0
   60.4630   46.9140   99.5750 S   0  0  0  0  0
   60.4320   43.4110   96.9120 N   0  0  0  0  0
   58.8400   43.7910   96.9400 O   0  0  0  0  0
   61.3160   43.5720   97.1790 C   0  0  0  0  0
   62.0540   46.9040   97.5620 H   0  0  0  0  0
   62.2800   45.2570   99.8260 H   0  0  0  0  0
   62.1320   42.9250   96.8220 H   0  0  0  0  0
 16  1  1  0  0  0
  1  2  1  0  0  0
  1  4  2  0  0  0
  2  3  3  0  0  0
  5  4  1  0  0  0
  4 17  1  0  0  0
  6  5  1  0  0  0
  5 11  1  0  0  0
  8  6  2  0  0  0
  7  6  1  0  0  0
 10  7  1  0  0  0
  7  9  2  0  0  0
 15  8  1  0  0  0
  9 11  1  0  0  0
 13 10  1  0  0  0
 14 10  2  0  0  0
 11 12  2  0  0  0
 13 15  2  0  0  0
 18 15  1  0  0  0
M  END
$$$$
23912_ChemDiv_8013-2683.pdb
 OpenBabel06131021443D

 28 30  0  0  0  0  0  0  0  0999 V2000
   61.1030   45.4060   96.4050 C   0  0  0  0  0
   60.4280   45.0510   96.9720 C   0  0  0  0  0
   60.4540   45.2360   97.9220 C   0  0  0  0  0
   61.1580   45.7750   98.2940 N   0  0  0  0  0
   61.8330   46.1300   97.7280 C   0  0  0  0  0
   61.8070   45.9470   96.7860 N   0  0  0  0  0
   62.4840   46.3030   96.2170 C   0  0  0  0  0
   62.5240   46.6630   98.1090 O   0  0  0  0  0
   59.7820   44.8820   98.4860 O   0  0  0  0  0
   59.6930   44.3210   95.6390 N   0  0  0  0  0
   60.3670   44.6760   95.0730 C   0  0  0  0  0
   61.0720   45.2180   95.4540 N   0  0  0  0  0
   59.0000   43.7880   95.2640 C   0  0  0  0  0
   58.3190   43.4380   95.8080 C   0  0  0  0  0
   57.6100   42.9310   95.4200 N   0  0  0  0  0
   57.7180   41.9560   95.2770 C   0  0  0  0  0
   56.7910   43.4080   95.1760 C   0  0  0  0  0
   59.6200   44.4320   96.5510 H   0  0  0  0  0
   63.2950   46.7300   95.5390 H   0  0  0  0  0
   60.3470   44.4730   93.9910 H   0  0  0  0  0
   58.9960   43.5790   94.1820 H   0  0  0  0  0
   58.3390   43.6130   96.8950 H   0  0  0  0  0
   56.7690   41.5330   94.8070 H   0  0  0  0  0
   57.9350   41.4340   96.2670 H   0  0  0  0  0
   58.5970   41.7750   94.5740 H   0  0  0  0  0
   56.0420   42.6740   94.7280 H   0  0  0  0  0
   57.0250   44.2380   94.4300 H   0  0  0  0  0
   56.3400   43.8800   96.1100 H   0  0  0  0  0
 12  1  1  0  0  0
  1  6  1  0  0  0
  1  2  2  0  0  0
  2  3  1  0  0  0
  3  4  1  0  0  0
  3  9  2  0  0  0
  5  4  2  0  0  0
  6  5  1  0  0  0
  5  8  1  0  0  0
  7  6  1  0  0  0
 12  7  1  0  0  0
 19  7  1  0  0  0
  7  8  1  0  0  0
 11 10  1  0  0  0
 13 10  2  0  0  0
 10 18  1  0  0  0
 20 11  1  0  0  0
 11 12  1  0  0  0
 21 13  1  0  0  0
 13 14  1  0  0  0
 15 14  1  0  0  0
 14 22  1  0  0  0
 17 15  1  0  0  0
 16 15  1  0  0  0
 25 16  1  0  0  0
 23 16  1  0  0  0
 16 24  1  0  0  0
 27 17  1  0  0  0
 26 17  1  0  0  0
 17 28  1  0  0  0
M  END
$$$$
23912_ChemDiv_8013-2683.pdb
 OpenBabel06131021443D

 28 30  0  0  0  0  0  0  0  0999 V2000
   61.2090   45.4110   96.3430 C   0  0  0  0  0
   60.5460   45.0810   96.9380 C   0  0  0  0  0
   60.6060   45.2830   97.8820 C   0  0  0  0  0
   61.3310   45.8160   98.2210 N   0  0  0  0  0
   61.9940   46.1470   97.6270 C   0  0  0  0  0
   61.9350   45.9460   96.6900 N   0  0  0  0  0
   62.6000   46.2780   96.0930 C   0  0  0  0  0
   62.7070   46.6730   97.9760 O   0  0  0  0  0
   59.9460   44.9540   98.4740 O   0  0  0  0  0
   59.7550   44.3390   95.6440 N   0  0  0  0  0
   60.4180   44.6700   95.0490 C   0  0  0  0  0
   61.1440   45.2050   95.3970 N   0  0  0  0  0
   59.0410   43.8130   95.3010 C   0  0  0  0  0
   58.4370   43.3890   95.8830 C   0  0  0  0  0
   57.6830   42.9210   95.5340 N   0  0  0  0  0
   56.8420   43.4090   95.3430 C   0  0  0  0  0
   57.7780   41.9600   95.3770 C   0  0  0  0  0
   59.7130   44.4710   96.5550 H   0  0  0  0  0
   63.3970   46.6760   95.3820 H   0  0  0  0  0
   60.3600   44.4460   93.9720 H   0  0  0  0  0
   58.9210   43.7000   94.2120 H   0  0  0  0  0
   58.6010   43.4330   96.9710 H   0  0  0  0  0
   56.0640   42.6820   94.9350 H   0  0  0  0  0
   57.0330   44.2450   94.5920 H   0  0  0  0  0
   56.4510   43.8740   96.3080 H   0  0  0  0  0
   56.8010   41.5440   94.9620 H   0  0  0  0  0
   58.0540   41.4270   96.3460 H   0  0  0  0  0
   58.6120   41.7850   94.6190 H   0  0  0  0  0
 12  1  1  0  0  0
  1  6  1  0  0  0
  1  2  2  0  0  0
  2  3  1  0  0  0
  3  4  1  0  0  0
  3  9  2  0  0  0
  5  4  2  0  0  0
  6  5  1  0  0  0
  5  8  1  0  0  0
  7  6  1  0  0  0
 19  7  1  0  0  0
 12  7  1  0  0  0
  7  8  1  0  0  0
 11 10  1  0  0  0
 13 10  2  0  0  0
 10 18  1  0  0  0
 20 11  1  0  0  0
 11 12  1  0  0  0
 21 13  1  0  0  0
 13 14  1  0  0  0
 15 14  1  0  0  0
 14 22  1  0  0  0
 16 15  1  0  0  0
 17 15  1  0  0  0
 24 16  1  0  0  0
 23 16  1  0  0  0
 16 25  1  0  0  0
 28 17  1  0  0  0
 26 17  1  0  0  0
 17 27  1  0  0  0
M  END
$$$$
23920_ChemDiv_8016-1610.pdb
 OpenBabel06131021443D

 63 40  0  0  0  0  0  0  0  0999 V2000
   62.3930   47.9620   98.5740 S   0  0  0  0  0
   62.8700   48.8230   98.8120 C   0  0  0  0  0
   63.8790   48.9560   98.8930 N   0  0  0  0  0
   64.0560   49.9360   99.1460 C   0  0  0  0  0
   64.5960   48.2400   98.7470 C   0  0  0  0  0
   63.1560   50.4130   99.2240 C   0  0  0  0  0
   64.9190   50.4460   99.3150 C   0  0  0  0  0
   63.1120   51.3850   99.4650 N   0  0  0  0  0
   62.4240   49.7260   99.0170 N   0  0  0  0  0
   63.9760   51.9030   99.6350 C   0  0  0  0  0
   62.2040   51.8540   99.5400 C   0  0  0  0  0
   64.8760   51.4350   99.5600 N   0  0  0  0  0
   63.9270   52.9020   99.8830 O   0  0  0  0  0
   65.7370   51.9600   99.7320 C   0  0  0  0  0
   65.8210   49.9720   99.2380 O   0  0  0  0  0
   61.9400   47.4010   99.3010 C   0  0  0  0  0
   61.3890   46.5750   99.0470 C   0  0  0  0  0
   61.3050   46.3100   98.0730 N   0  0  0  0  0
   60.9300   46.0270   99.7760 O   0  0  0  0  0
   60.7490   45.4760   97.8160 C   0  0  0  0  0
   60.8260   44.5950   97.6370 C   0  0  0  0  0
   60.3930   43.8650   97.4200 C   0  0  0  0  0
   61.0550   42.9920   97.3240 C   0  0  0  0  0
   59.4780   44.0230   97.3270 C   0  0  0  0  0
   60.9460   43.9390   97.5130 C   0  0  0  0  0
   61.4330   44.7210   97.7490 C   0  0  0  0  0
   59.9760   44.1250   97.4180 C   0  0  0  0  0
   59.3260   44.8890   97.4920 C   0  0  0  0  0
   59.8160   45.6680   97.7280 C   0  0  0  0  0
   64.0970   47.2510   98.4770 H   0  0  0  0  0
   65.2300   48.1190   99.6870 H   0  0  0  0  0
   65.2780   48.5610   97.8920 H   0  0  0  0  0
   61.3710   51.1090   99.3150 H   0  0  0  0  0
   62.1530   52.7340   98.8170 H   0  0  0  0  0
   62.0740   52.2520  100.6000 H   0  0  0  0  0
   66.6360   51.2710   99.6010 H   0  0  0  0  0
   65.7270   52.4010  100.7830 H   0  0  0  0  0
   65.8100   52.8160   98.9830 H   0  0  0  0  0
   62.0450   47.6860  100.3600 H   0  0  0  0  0
   61.7960   46.8980   97.3080 H   0  0  0  0  0
   60.7250   45.4390   97.7970 H   0  0  0  0  0
   61.3080   46.4280   98.0990 H   0  0  0  0  0
   61.1590   45.0530   96.8400 H   0  0  0  0  0
   60.8960   44.6970   98.6360 H   0  0  0  0  0
   60.6380   45.6230   97.8310 H   0  0  0  0  0
   60.6980   42.8230   97.2380 H   0  0  0  0  0
   62.1950   42.9920   97.3240 H   0  0  0  0  0
   60.6740   44.0670   97.3240 H   0  0  0  0  0
   60.6600   42.4340   98.2360 H   0  0  0  0  0
   60.6800   42.4620   96.3870 H   0  0  0  0  0
   58.8850   43.3690   98.0480 H   0  0  0  0  0
   59.1430   43.7630   96.2690 H   0  0  0  0  0
   61.1340   42.9110   97.3190 H   0  0  0  0  0
   61.2280   45.7850   97.9500 H   0  0  0  0  0
   62.4640   44.3370   97.8090 H   0  0  0  0  0
   61.1160   44.1250   97.4180 H   0  0  0  0  0
   59.5950   45.2000   97.4180 H   0  0  0  0  0
   59.5810   43.5670   98.3300 H   0  0  0  0  0
   59.6010   43.5950   96.4810 H   0  0  0  0  0
   58.4090   44.9020   98.1700 H   0  0  0  0  0
   59.5240   45.1170   96.3930 H   0  0  0  0  0
   59.4140   46.1000   98.7030 H   0  0  0  0  0
   59.6880   46.4340   96.8930 H   0  0  0  0  0
 40  1  1  0  0  0
  1  2  1  0  0  0
  1 16  2  0  0  0
  2  3  1  0  0  0
  2  9  2  0  0  0
  5  3  1  0  0  0
  3  4  1  0  0  0
  4  6  2  0  0  0
  4  7  1  0  0  0
 32  5  1  0  0  0
 30  5  1  0  0  0
  5 31  1  0  0  0
  9  6  1  0  0  0
  6  8  1  0  0  0
 15  7  2  0  0  0
  7 12  1  0  0  0
  8 11  1  0  0  0
  8 10  1  0  0  0
 12 10  1  0  0  0
 10 13  2  0  0  0
 34 11  1  0  0  0
 33 11  1  0  0  0
 11 35  1  0  0  0
 12 14  1  0  0  0
 38 14  1  0  0  0
 36 14  1  0  0  0
 14 37  1  0  0  0
 16 39  1  0  0  0
 42 17  1  0  0  0
 25 21  3  0  0  0
 21 41  1  0  0  0
 24 22  1  0  0  0
 59 24  1  0  0  0
 24 28  1  0  0  0
 24 58  1  0  0  0
 43 26  1  0  0  0
 56 26  1  0  0  0
 26 44  1  0  0  0
 48 27  1  0  0  0
 29 45  1  0  0  0
M  END
$$$$
23920_ChemDiv_8016-1610.pdb
 OpenBabel06131021453D

 63 39  0  0  0  0  0  0  0  0999 V2000
   62.1510   47.9830   99.1890 S   0  0  0  0  0
   62.6210   48.8290   99.4870 C   0  0  0  0  0
   62.2260   49.5710  100.0650 N   0  0  0  0  0
   62.9440   50.2950  100.1960 C   0  0  0  0  0
   61.2780   49.5960  100.4520 C   0  0  0  0  0
   63.7860   50.0020   99.6980 C   0  0  0  0  0
   62.9310   51.1760  100.7030 C   0  0  0  0  0
   64.6080   50.5770   99.7020 N   0  0  0  0  0
   63.5860   49.0970   99.2600 N   0  0  0  0  0
   64.6020   51.4630  100.2100 C   0  0  0  0  0
   65.4470   50.2730   99.1990 C   0  0  0  0  0
   63.7670   51.7610  100.7080 N   0  0  0  0  0
   65.4480   52.0500  100.2120 O   0  0  0  0  0
   63.7690   52.6500  101.2140 C   0  0  0  0  0
   62.0910   51.4720  101.2020 O   0  0  0  0  0
   62.2580   47.1140   99.7210 C   0  0  0  0  0
   61.8220   46.2480   99.3880 C   0  0  0  0  0
   61.7180   46.0910   98.3920 N   0  0  0  0  0
   61.4980   45.5520  100.0610 O   0  0  0  0  0
   61.2780   45.2180   98.0560 C   0  0  0  0  0
   60.4870   44.8730   97.7900 C   0  0  0  0  0
   60.0750   44.1550   97.5020 C   0  0  0  0  0
   59.0050   44.3260   97.3170 C   0  0  0  0  0
   60.6590   43.4310   97.4300 C   0  0  0  0  0
   59.8680   44.6730   97.6000 C   0  0  0  0  0
   60.2970   45.4620   97.9100 C   0  0  0  0  0
   60.5020   43.9130   97.5280 C   0  0  0  0  0
   61.4730   43.7020   97.6810 C   0  0  0  0  0
   61.8990   44.4930   97.9920 C   0  0  0  0  0
   60.7140   48.6570  100.1380 H   0  0  0  0  0
   60.7280   50.5270  100.0900 H   0  0  0  0  0
   61.3390   49.6340  101.5900 H   0  0  0  0  0
   65.2490   49.2660   98.7020 H   0  0  0  0  0
   66.3300   50.1920   99.9160 H   0  0  0  0  0
   65.7030   51.0420   98.3980 H   0  0  0  0  0
   64.7870   53.1510  101.1000 H   0  0  0  0  0
   63.5360   52.4770  102.3160 H   0  0  0  0  0
   62.9650   53.3310  100.7780 H   0  0  0  0  0
   62.8440   47.1100  100.6540 H   0  0  0  0  0
   62.0650   46.8360   97.6870 H   0  0  0  0  0
   61.2600   45.1780   98.0330 H   0  0  0  0  0
   61.8180   46.1500   98.4310 H   0  0  0  0  0
   60.4250   44.9460   98.7610 H   0  0  0  0  0
   60.8400   45.4280   97.0250 H   0  0  0  0  0
   61.4580   45.1870   98.0880 H   0  0  0  0  0
   59.0350   43.9350   97.2150 H   0  0  0  0  0
   60.1450   44.3260   97.3170 H   0  0  0  0  0
   58.6240   45.4010   97.3170 H   0  0  0  0  0
   58.6100   43.7680   98.2290 H   0  0  0  0  0
   58.6300   43.7960   96.3800 H   0  0  0  0  0
   60.6810   43.0410   96.3590 H   0  0  0  0  0
   60.3080   42.5790   98.1020 H   0  0  0  0  0
   58.8970   44.3590   97.3020 H   0  0  0  0  0
   61.3060   45.7790   98.2170 H   0  0  0  0  0
   59.4640   46.1830   97.9270 H   0  0  0  0  0
   61.6420   43.9130   97.5280 H   0  0  0  0  0
   60.1210   44.9880   97.5280 H   0  0  0  0  0
   60.1070   43.3550   98.4400 H   0  0  0  0  0
   60.1270   43.3830   96.5910 H   0  0  0  0  0
   62.1790   43.2790   96.8930 H   0  0  0  0  0
   61.2110   43.4390   98.7590 H   0  0  0  0  0
   62.7550   44.7740   97.2940 H   0  0  0  0  0
   62.3130   44.2870   99.0340 H   0  0  0  0  0
  1  2  1  0  0  0
  1 16  2  0  0  0
  9  2  2  0  0  0
  2  3  1  0  0  0
  3  4  1  0  0  0
  3  5  1  0  0  0
  6  4  2  0  0  0
  4  7  1  0  0  0
 31  5  1  0  0  0
 30  5  1  0  0  0
  5 32  1  0  0  0
  9  6  1  0  0  0
  6  8  1  0  0  0
  7 12  1  0  0  0
  7 15  2  0  0  0
 11  8  1  0  0  0
  8 10  1  0  0  0
 10 13  2  0  0  0
 10 12  1  0  0  0
 35 11  1  0  0  0
 33 11  1  0  0  0
 11 34  1  0  0  0
 12 14  1  0  0  0
 38 14  1  0  0  0
 36 14  1  0  0  0
 14 37  1  0  0  0
 16 39  1  0  0  0
 42 17  1  0  0  0
 25 21  3  0  0  0
 24 22  1  0  0  0
 59 24  1  0  0  0
 24 28  1  0  0  0
 44 26  1  0  0  0
 57 26  1  0  0  0
 26 41  1  0  0  0
 26 43  1  0  0  0
 27 58  1  0  0  0
 56 29  1  0  0  0
 29 45  1  0  0  0
M  END
$$$$
23923_ChemDiv_K788-9384.pdb
 OpenBabel06131021453D

 45 48  0  0  0  0  0  0  0  0999 V2000
   61.2310   46.3140   97.9980 N   0  0  0  0  0
   61.7300   46.4190   97.1240 N   0  0  0  0  0
   61.3990   45.9420   96.2980 C   0  0  0  0  0
   60.5860   45.3690   96.3370 C   0  0  0  0  0
   60.0860   45.2630   97.2120 C   0  0  0  0  0
   60.4030   45.7320   98.0430 C   0  0  0  0  0
   59.9100   45.6280   98.9070 O   0  0  0  0  0
   59.2680   44.6890   97.2590 C   0  0  0  0  0
   58.9420   44.2160   96.4370 C   0  0  0  0  0
   59.4330   44.3170   95.5710 C   0  0  0  0  0
   60.2510   44.8920   95.5250 C   0  0  0  0  0
   61.5580   46.7850   98.8110 C   0  0  0  0  0
   61.4050   47.7620   98.9190 C   0  0  0  0  0
   62.1470   48.4060   98.7560 N   0  0  0  0  0
   60.5120   48.0960   99.1890 O   0  0  0  0  0
   62.0000   49.3860   98.8630 C   0  0  0  0  0
   62.2900   49.8550   99.6880 C   0  0  0  0  0
   62.0540   50.8180   99.5960 C   0  0  0  0  0
   61.6170   50.9450   98.7120 C   0  0  0  0  0
   61.5820   50.0610   98.2550 C   0  0  0  0  0
   61.8930   46.0480   95.4400 C   0  0  0  0  0
   62.6260   45.4040   95.2060 C   0  0  0  0  0
   63.1260   45.5070   94.3450 C   0  0  0  0  0
   62.8920   46.2500   93.7240 C   0  0  0  0  0
   62.1590   46.8940   93.9570 C   0  0  0  0  0
   63.3910   46.3530   92.8630 C   0  0  0  0  0
   61.6650   46.7870   94.8150 C   0  0  0  0  0
   58.7270   44.5770   98.2120 H   0  0  0  0  0
   58.0410   43.5840   96.4880 H   0  0  0  0  0
   59.0740   43.7960   94.6690 H   0  0  0  0  0
   60.7880   45.0000   94.5690 H   0  0  0  0  0
   62.6740   46.5820   98.9200 H   0  0  0  0  0
   60.8960   46.3450   99.6280 H   0  0  0  0  0
   63.1210   48.0390   98.4600 H   0  0  0  0  0
   62.7870   49.3910  100.5550 H   0  0  0  0  0
   62.2440   51.6050  100.3430 H   0  0  0  0  0
   61.2380   51.8970   98.3090 H   0  0  0  0  0
   62.1370   50.1020   97.2600 H   0  0  0  0  0
   62.8800   44.5840   95.8960 H   0  0  0  0  0
   63.9310   44.8020   94.0850 H   0  0  0  0  0
   61.9020   47.7140   93.2680 H   0  0  0  0  0
   62.9840   47.2520   92.2920 H   0  0  0  0  0
   63.2910   45.4080   92.2330 H   0  0  0  0  0
   64.4960   46.5210   93.0880 H   0  0  0  0  0
   60.8600   47.4930   95.0740 H   0  0  0  0  0
  2  1  1  0  0  0
  1  6  1  0  0  0
  1 12  1  0  0  0
  3  2  2  0  0  0
 21  3  1  0  0  0
  3  4  1  0  0  0
 11  4  2  0  0  0
  4  5  1  0  0  0
  5  8  2  0  0  0
  5  6  1  0  0  0
  6  7  2  0  0  0
  9  8  1  0  0  0
  8 28  1  0  0  0
 10  9  2  0  0  0
  9 29  1  0  0  0
 30 10  1  0  0  0
 11 10  1  0  0  0
 31 11  1  0  0  0
 12 13  1  0  0  0
 12 32  1  0  0  0
 12 33  1  0  0  0
 14 13  1  0  0  0
 13 15  2  0  0  0
 34 14  1  0  0  0
 14 16  1  0  0  0
 20 16  1  0  0  0
 16 17  2  0  0  0
 18 17  1  0  0  0
 17 35  1  0  0  0
 19 18  2  0  0  0
 18 36  1  0  0  0
 20 19  1  0  0  0
 37 19  1  0  0  0
 38 20  1  0  0  0
 27 21  2  0  0  0
 22 21  1  0  0  0
 23 22  2  0  0  0
 22 39  1  0  0  0
 24 23  1  0  0  0
 40 23  1  0  0  0
 26 24  1  0  0  0
 24 25  2  0  0  0
 41 25  1  0  0  0
 25 27  1  0  0  0
 43 26  1  0  0  0
 42 26  1  0  0  0
 26 44  1  0  0  0
 27 45  1  0  0  0
M  END
$$$$
23923_ChemDiv_K788-9384.pdb
 OpenBabel06131021453D

 45 48  0  0  0  0  0  0  0  0999 V2000
   61.3720   45.8480   96.2660 N   0  0  0  0  0
   61.0980   45.9510   97.2350 N   0  0  0  0  0
   61.2500   46.8300   97.7080 C   0  0  0  0  0
   61.6680   47.5960   97.2280 C   0  0  0  0  0
   61.9420   47.4930   96.2580 C   0  0  0  0  0
   61.7980   46.6240   95.7740 C   0  0  0  0  0
   62.0690   46.5230   94.8170 O   0  0  0  0  0
   62.3630   48.2580   95.7700 C   0  0  0  0  0
   62.5130   49.1300   96.2430 C   0  0  0  0  0
   62.2430   49.2360   97.2000 C   0  0  0  0  0
   61.8220   48.4700   97.6880 C   0  0  0  0  0
   61.2220   44.9810   95.8010 C   0  0  0  0  0
   60.3010   44.7010   95.5510 C   0  0  0  0  0
   59.8090   44.0400   96.1100 N   0  0  0  0  0
   59.8710   45.0810   94.7430 O   0  0  0  0  0
   58.8860   43.7550   95.8630 C   0  0  0  0  0
   58.0960   44.1480   96.3180 C   0  0  0  0  0
   57.2780   43.7350   95.9320 C   0  0  0  0  0
   57.5610   43.0840   95.2350 C   0  0  0  0  0
   58.5560   43.0940   95.1900 C   0  0  0  0  0
   60.9790   46.9260   98.6610 C   0  0  0  0  0
   61.6320   46.7030   99.3890 C   0  0  0  0  0
   61.3640   46.7980  100.3480 C   0  0  0  0  0
   60.4470   47.1150  100.5760 C   0  0  0  0  0
   59.7930   47.3390   99.8480 C   0  0  0  0  0
   60.1790   47.2110  101.5340 C   0  0  0  0  0
   60.0650   47.2430   98.8950 C   0  0  0  0  0
   62.6610   48.1430   94.7160 H   0  0  0  0  0
   62.9760   49.9730   95.7070 H   0  0  0  0  0
   62.4090   50.1950   97.7170 H   0  0  0  0  0
   61.5260   48.5910   98.7420 H   0  0  0  0  0
   61.8720   44.9580   94.8650 H   0  0  0  0  0
   61.4950   44.2230   96.6070 H   0  0  0  0  0
   60.2800   43.6270   96.9930 H   0  0  0  0  0
   58.1210   44.9100   97.1130 H   0  0  0  0  0
   56.2400   43.9590   96.2250 H   0  0  0  0  0
   56.8910   42.4610   94.6210 H   0  0  0  0  0
   58.9060   43.3790   94.1430 H   0  0  0  0  0
   62.6450   46.3530   99.1320 H   0  0  0  0  0
   62.0790   46.5530  101.1490 H   0  0  0  0  0
   58.7800   47.6890  100.1020 H   0  0  0  0  0
   59.1030   47.5820  101.5930 H   0  0  0  0  0
   60.8770   47.9370  102.0680 H   0  0  0  0  0
   60.2540   46.1960  102.0480 H   0  0  0  0  0
   59.3500   47.4890   98.0940 H   0  0  0  0  0
  6  1  1  0  0  0
 12  1  1  0  0  0
  1  2  1  0  0  0
  2  3  2  0  0  0
  4  3  1  0  0  0
  3 21  1  0  0  0
  5  4  2  0  0  0
  4 11  1  0  0  0
  8  5  1  0  0  0
  6  5  1  0  0  0
  7  6  2  0  0  0
 28  8  1  0  0  0
  8  9  2  0  0  0
 29  9  1  0  0  0
  9 10  1  0  0  0
 10 11  2  0  0  0
 10 30  1  0  0  0
 11 31  1  0  0  0
 32 12  1  0  0  0
 13 12  1  0  0  0
 12 33  1  0  0  0
 15 13  2  0  0  0
 13 14  1  0  0  0
 16 14  1  0  0  0
 14 34  1  0  0  0
 20 16  1  0  0  0
 16 17  2  0  0  0
 18 17  1  0  0  0
 17 35  1  0  0  0
 19 18  2  0  0  0
 18 36  1  0  0  0
 37 19  1  0  0  0
 20 19  1  0  0  0
 38 20  1  0  0  0
 21 27  2  0  0  0
 21 22  1  0  0  0
 39 22  1  0  0  0
 22 23  2  0  0  0
 23 24  1  0  0  0
 23 40  1  0  0  0
 25 24  2  0  0  0
 24 26  1  0  0  0
 27 25  1  0  0  0
 25 41  1  0  0  0
 26 42  1  0  0  0
 26 44  1  0  0  0
 26 43  1  0  0  0
 45 27  1  0  0  0
M  END
$$$$
23924_ChemDiv_3347-1153.pdb
 OpenBabel06131021453D

 36 41  0  0  0  0  0  0  0  0999 V2000
   61.6310   45.6620   96.2310 C   0  0  0  0  0
   60.8800   45.4750   96.8430 C   0  0  0  0  0
   60.1330   44.9320   96.5670 C   0  0  0  0  0
   60.1190   44.5590   95.6650 C   0  0  0  0  0
   60.8520   44.7310   95.0400 N   0  0  0  0  0
   61.5980   45.2780   95.3280 C   0  0  0  0  0
   62.3310   45.4590   94.7260 C   0  0  0  0  0
   59.3790   44.0190   95.3870 C   0  0  0  0  0
   58.6340   43.8340   95.9940 C   0  0  0  0  0
   58.6350   44.1940   96.8850 C   0  0  0  0  0
   59.3780   44.7470   97.1910 C   0  0  0  0  0
   59.3840   45.1010   98.0590 N   0  0  0  0  0
   57.7690   43.4190   96.2040 C   0  0  0  0  0
   58.3840   43.3610   95.1800 C   0  0  0  0  0
   61.6550   46.4020   98.0280 C   0  0  0  0  0
   62.3830   46.5720   97.4080 C   0  0  0  0  0
   62.3630   46.1990   96.5120 N   0  0  0  0  0
   63.1400   47.1180   97.6770 C   0  0  0  0  0
   63.1580   47.4890   98.5700 C   0  0  0  0  0
   62.4300   47.3190   99.1900 C   0  0  0  0  0
   61.6820   46.7770   98.9190 C   0  0  0  0  0
   60.8960   45.8950   97.8610 H   0  0  0  0  0
   62.1390   44.9440   93.7270 H   0  0  0  0  0
   63.3120   45.0920   95.1770 H   0  0  0  0  0
   62.4100   46.5840   94.5590 H   0  0  0  0  0
   60.2110   44.1920   94.6270 H   0  0  0  0  0
   58.5220   44.5610   97.9580 H   0  0  0  0  0
   60.2140   45.7130   98.3880 H   0  0  0  0  0
   56.7670   42.9520   96.4820 H   0  0  0  0  0
   58.0950   42.8090   94.2250 H   0  0  0  0  0
   60.7990   45.7820   97.7170 H   0  0  0  0  0
   63.1790   46.3960   95.8290 H   0  0  0  0  0
   63.9660   47.3120   96.9750 H   0  0  0  0  0
   64.0110   48.1100   98.8870 H   0  0  0  0  0
   62.4600   47.7470  100.2050 H   0  0  0  0  0
   60.8570   46.5840   99.6230 H   0  0  0  0  0
  6  1  2  0  0  0
  1 17  1  0  0  0
  1  2  1  0  0  0
  3  2  2  0  0  0
  2 31  1  0  0  0
  4  3  1  0  0  0
  3 11  1  0  0  0
  5  4  2  0  0  0
  8  4  1  0  0  0
 26  5  1  0  0  0
  5  6  1  0  0  0
  7  6  1  0  0  0
 23  7  1  0  0  0
 25  7  1  0  0  0
  7 24  1  0  0  0
 14  8  1  0  0  0
  8  9  1  0  0  0
 14  9  1  0  0  0
  9 13  1  0  0  0
  9 10  1  0  0  0
 13 10  1  0  0  0
 10 11  2  0  0  0
 11 12  1  0  0  0
 27 12  1  0  0  0
 12 28  1  0  0  0
 14 13  1  0  0  0
 13 29  1  0  0  0
 30 14  1  0  0  0
 16 15  2  0  0  0
 22 15  1  0  0  0
 15 21  1  0  0  0
 17 16  1  0  0  0
 16 18  1  0  0  0
 32 17  1  0  0  0
 33 18  1  0  0  0
 18 19  2  0  0  0
 19 34  1  0  0  0
 19 20  1  0  0  0
 21 20  2  0  0  0
 20 35  1  0  0  0
 21 36  1  0  0  0
M  END
$$$$
23924_ChemDiv_3347-1153.pdb
 OpenBabel06131021453D

 36 41  0  0  0  0  0  0  0  0999 V2000
   61.6280   45.6680   96.2260 C   0  0  0  0  0
   60.8790   45.4770   96.8400 C   0  0  0  0  0
   60.1320   44.9330   96.5640 C   0  0  0  0  0
   60.1160   44.5630   95.6610 C   0  0  0  0  0
   60.8480   44.7390   95.0340 N   0  0  0  0  0
   61.5920   45.2870   95.3220 C   0  0  0  0  0
   62.3240   45.4720   94.7180 C   0  0  0  0  0
   59.3770   44.0230   95.3830 C   0  0  0  0  0
   58.6340   43.8330   95.9920 C   0  0  0  0  0
   58.6370   44.1900   96.8840 C   0  0  0  0  0
   59.3800   44.7440   97.1900 C   0  0  0  0  0
   59.3870   45.0950   98.0590 N   0  0  0  0  0
   57.7710   43.4150   96.2030 C   0  0  0  0  0
   58.3840   43.3620   95.1760 C   0  0  0  0  0
   61.6550   46.4010   98.0260 C   0  0  0  0  0
   62.3800   46.5760   97.4040 C   0  0  0  0  0
   62.3590   46.2060   96.5070 N   0  0  0  0  0
   63.1370   47.1230   97.6730 C   0  0  0  0  0
   63.1560   47.4910   98.5670 C   0  0  0  0  0
   62.4310   47.3170   99.1890 C   0  0  0  0  0
   61.6830   46.7740   98.9180 C   0  0  0  0  0
   60.8970   45.8930   97.8600 H   0  0  0  0  0
   62.1300   44.9610   93.7180 H   0  0  0  0  0
   63.3070   45.1050   95.1650 H   0  0  0  0  0
   62.4000   46.5980   94.5550 H   0  0  0  0  0
   60.2060   44.2030   94.6210 H   0  0  0  0  0
   58.5260   44.5540   97.9590 H   0  0  0  0  0
   60.2160   45.7080   98.3880 H   0  0  0  0  0
   56.7710   42.9440   96.4820 H   0  0  0  0  0
   58.0950   42.8120   94.2200 H   0  0  0  0  0
   60.8010   45.7780   97.7160 H   0  0  0  0  0
   63.1730   46.4070   95.8230 H   0  0  0  0  0
   63.9610   47.3210   96.9700 H   0  0  0  0  0
   64.0080   48.1130   98.8830 H   0  0  0  0  0
   62.4640   47.7410  100.2050 H   0  0  0  0  0
   60.8600   46.5780   99.6230 H   0  0  0  0  0
  6  1  2  0  0  0
  1 17  1  0  0  0
  1  2  1  0  0  0
  3  2  2  0  0  0
  2 31  1  0  0  0
  4  3  1  0  0  0
  3 11  1  0  0  0
  5  4  2  0  0  0
  8  4  1  0  0  0
 26  5  1  0  0  0
  5  6  1  0  0  0
  7  6  1  0  0  0
 23  7  1  0  0  0
 25  7  1  0  0  0
  7 24  1  0  0  0
 14  8  1  0  0  0
  8  9  1  0  0  0
 14  9  1  0  0  0
  9 13  1  0  0  0
  9 10  1  0  0  0
 13 10  1  0  0  0
 10 11  2  0  0  0
 11 12  1  0  0  0
 27 12  1  0  0  0
 12 28  1  0  0  0
 14 13  1  0  0  0
 13 29  1  0  0  0
 30 14  1  0  0  0
 16 15  2  0  0  0
 22 15  1  0  0  0
 15 21  1  0  0  0
 17 16  1  0  0  0
 16 18  1  0  0  0
 32 17  1  0  0  0
 33 18  1  0  0  0
 18 19  2  0  0  0
 19 34  1  0  0  0
 19 20  1  0  0  0
 21 20  2  0  0  0
 20 35  1  0  0  0
 21 36  1  0  0  0
M  END
$$$$
23924_ChemDiv_3347-1153.pdb
 OpenBabel06131021453D

 36 41  0  0  0  0  0  0  0  0999 V2000
   61.6320   45.6650   96.2340 C   0  0  0  0  0
   60.8800   45.4800   96.8460 C   0  0  0  0  0
   60.1320   44.9380   96.5690 C   0  0  0  0  0
   60.1180   44.5660   95.6670 C   0  0  0  0  0
   60.8530   44.7360   95.0430 N   0  0  0  0  0
   61.5990   45.2820   95.3310 C   0  0  0  0  0
   62.3340   45.4620   94.7300 C   0  0  0  0  0
   59.3780   44.0270   95.3880 C   0  0  0  0  0
   58.6320   43.8430   95.9950 C   0  0  0  0  0
   58.6320   44.2020   96.8850 C   0  0  0  0  0
   59.3770   44.7550   97.1920 C   0  0  0  0  0
   59.3820   45.1080   98.0600 N   0  0  0  0  0
   57.7660   43.4290   96.2040 C   0  0  0  0  0
   58.3830   43.3700   95.1800 C   0  0  0  0  0
   61.6550   46.4050   98.0320 C   0  0  0  0  0
   62.3840   46.5740   97.4130 C   0  0  0  0  0
   62.3650   46.2010   96.5170 N   0  0  0  0  0
   63.1420   47.1190   97.6820 C   0  0  0  0  0
   63.1600   47.4900   98.5760 C   0  0  0  0  0
   62.4310   47.3200   99.1950 C   0  0  0  0  0
   61.6820   46.7800   98.9230 C   0  0  0  0  0
   60.8950   45.9000   97.8640 H   0  0  0  0  0
   62.1420   44.9490   93.7300 H   0  0  0  0  0
   63.3130   45.0920   95.1820 H   0  0  0  0  0
   62.4160   46.5870   94.5640 H   0  0  0  0  0
   60.2110   44.1990   94.6290 H   0  0  0  0  0
   58.5180   44.5690   97.9580 H   0  0  0  0  0
   60.2120   45.7190   98.3910 H   0  0  0  0  0
   56.7630   42.9640   96.4800 H   0  0  0  0  0
   58.0950   42.8180   94.2250 H   0  0  0  0  0
   60.7980   45.7870   97.7200 H   0  0  0  0  0
   63.1830   46.3960   95.8360 H   0  0  0  0  0
   63.9690   47.3120   96.9800 H   0  0  0  0  0
   64.0140   48.1100   98.8940 H   0  0  0  0  0
   62.4610   47.7460  100.2100 H   0  0  0  0  0
   60.8560   46.5890   99.6260 H   0  0  0  0  0
  6  1  2  0  0  0
  1 17  1  0  0  0
  1  2  1  0  0  0
  3  2  2  0  0  0
  2 31  1  0  0  0
  4  3  1  0  0  0
  3 11  1  0  0  0
  5  4  2  0  0  0
  8  4  1  0  0  0
 26  5  1  0  0  0
  5  6  1  0  0  0
  7  6  1  0  0  0
 23  7  1  0  0  0
 25  7  1  0  0  0
  7 24  1  0  0  0
 14  8  1  0  0  0
  8  9  1  0  0  0
 14  9  1  0  0  0
  9 13  1  0  0  0
  9 10  1  0  0  0
 13 10  1  0  0  0
 10 11  2  0  0  0
 11 12  1  0  0  0
 27 12  1  0  0  0
 12 28  1  0  0  0
 14 13  1  0  0  0
 13 29  1  0  0  0
 30 14  1  0  0  0
 16 15  2  0  0  0
 22 15  1  0  0  0
 15 21  1  0  0  0
 17 16  1  0  0  0
 16 18  1  0  0  0
 32 17  1  0  0  0
 33 18  1  0  0  0
 18 19  2  0  0  0
 19 34  1  0  0  0
 19 20  1  0  0  0
 21 20  2  0  0  0
 20 35  1  0  0  0
 21 36  1  0  0  0
M  END
$$$$
23925_ChemDiv_000A-0179.pdb
 OpenBabel06131021453D

 36 40  0  0  0  0  0  0  0  0999 V2000
   59.7120   44.3570   95.9710 N   0  0  0  0  0
   59.3530   44.6550   96.8580 C   0  0  0  0  0
   58.4540   44.2150   96.9880 N   0  0  0  0  0
   58.2660   43.6530   96.1900 C   0  0  0  0  0
   59.0330   43.7360   95.5640 C   0  0  0  0  0
   59.0030   43.2290   94.7020 C   0  0  0  0  0
   58.2260   42.6560   94.4760 C   0  0  0  0  0
   57.4660   42.5720   95.0960 C   0  0  0  0  0
   57.4710   43.0610   95.9500 C   0  0  0  0  0
   59.8770   45.2700   97.4100 C   0  0  0  0  0
   60.7650   45.5920   97.0820 C   0  0  0  0  0
   61.1350   45.2960   96.1890 C   0  0  0  0  0
   60.5930   44.6600   95.6170 C   0  0  0  0  0
   60.9430   44.3520   94.7210 O   0  0  0  0  0
   62.0230   45.6180   95.8600 C   0  0  0  0  0
   62.5650   46.2540   96.4320 C   0  0  0  0  0
   62.1750   46.5470   97.3400 C   0  0  0  0  0
   61.3070   46.2280   97.6530 C   0  0  0  0  0
   60.9430   46.5210   98.5360 C   0  0  0  0  0
   60.0510   46.2020   98.8720 C   0  0  0  0  0
   59.5270   45.5870   98.3190 C   0  0  0  0  0
   62.6870   47.1690   97.9170 C   0  0  0  0  0
   63.2770   46.8090   98.6250 O   0  0  0  0  0
   62.6140   48.1540   97.7890 C   0  0  0  0  0
   59.8440   43.3080   93.9950 H   0  0  0  0  0
   58.2130   42.1080   93.5210 H   0  0  0  0  0
   56.6100   41.9310   94.8340 H   0  0  0  0  0
   56.6210   42.9690   96.6440 H   0  0  0  0  0
   62.4080   45.2840   94.8840 H   0  0  0  0  0
   63.5460   46.6230   96.0930 H   0  0  0  0  0
   61.5350   47.2120   99.1580 H   0  0  0  0  0
   59.6690   46.5390   99.8480 H   0  0  0  0  0
   58.5490   45.2310   98.6790 H   0  0  0  0  0
   61.8930   48.3740   96.9340 H   0  0  0  0  0
   63.6390   48.6000   97.5660 H   0  0  0  0  0
   62.2150   48.6280   98.7460 H   0  0  0  0  0
  5  1  1  0  0  0
 13  1  1  0  0  0
  1  2  1  0  0  0
  2  3  2  0  0  0
  2 10  1  0  0  0
  4  3  1  0  0  0
  5  4  1  0  0  0
  9  4  2  0  0  0
  6  5  2  0  0  0
 25  6  1  0  0  0
  7  6  1  0  0  0
 26  7  1  0  0  0
  7  8  2  0  0  0
 27  8  1  0  0  0
  8  9  1  0  0  0
  9 28  1  0  0  0
 11 10  2  0  0  0
 10 21  1  0  0  0
 12 11  1  0  0  0
 11 18  1  0  0  0
 13 12  1  0  0  0
 15 12  2  0  0  0
 14 13  2  0  0  0
 29 15  1  0  0  0
 15 16  1  0  0  0
 30 16  1  0  0  0
 16 17  2  0  0  0
 17 18  1  0  0  0
 17 22  1  0  0  0
 18 19  2  0  0  0
 19 20  1  0  0  0
 19 31  1  0  0  0
 21 20  2  0  0  0
 20 32  1  0  0  0
 21 33  1  0  0  0
 24 22  1  0  0  0
 22 23  2  0  0  0
 34 24  1  0  0  0
 35 24  1  0  0  0
 24 36  1  0  0  0
M  END
$$$$
23925_ChemDiv_000A-0179.pdb
 OpenBabel06131021453D

 36 40  0  0  0  0  0  0  0  0999 V2000
   59.6730   44.6860   96.4570 N   0  0  0  0  0
   60.3490   44.7650   95.7210 C   0  0  0  0  0
   60.0280   44.1990   94.9490 N   0  0  0  0  0
   59.1660   43.7790   95.2110 C   0  0  0  0  0
   58.9440   44.0730   96.1330 C   0  0  0  0  0
   58.1000   43.7380   96.5510 C   0  0  0  0  0
   57.4960   43.1250   96.0570 C   0  0  0  0  0
   57.7150   42.8330   95.1420 C   0  0  0  0  0
   58.5400   43.1490   94.7090 C   0  0  0  0  0
   61.1410   45.3250   95.8490 C   0  0  0  0  0
   61.2660   45.8100   96.7140 C   0  0  0  0  0
   60.5900   45.7360   97.4620 C   0  0  0  0  0
   59.7700   45.1570   97.3300 C   0  0  0  0  0
   59.0810   45.0690   98.0640 O   0  0  0  0  0
   60.7150   46.2220   98.3280 C   0  0  0  0  0
   61.5340   46.8010   98.4600 C   0  0  0  0  0
   62.2150   46.8670   97.6890 C   0  0  0  0  0
   62.0860   46.3890   96.8470 C   0  0  0  0  0
   62.7550   46.4640   96.1090 C   0  0  0  0  0
   62.6360   45.9780   95.2370 C   0  0  0  0  0
   61.8430   45.4180   95.1090 C   0  0  0  0  0
   63.0250   47.4280   97.7950 C   0  0  0  0  0
   63.8740   47.0140   98.0890 O   0  0  0  0  0
   62.9910   48.4060   97.6090 C   0  0  0  0  0
   57.8370   44.0530   97.5730 H   0  0  0  0  0
   56.5710   42.7670   96.5370 H   0  0  0  0  0
   57.0360   42.1530   94.6040 H   0  0  0  0  0
   58.7870   42.8240   93.6860 H   0  0  0  0  0
   59.9670   46.1270   99.1310 H   0  0  0  0  0
   61.6940   47.3470   99.4030 H   0  0  0  0  0
   63.6460   47.0950   96.2540 H   0  0  0  0  0
   63.3870   46.0740   94.4370 H   0  0  0  0  0
   61.7040   44.8810   94.1570 H   0  0  0  0  0
   61.9370   48.6950   97.2850 H   0  0  0  0  0
   63.7430   48.6800   96.7970 H   0  0  0  0  0
   63.2610   48.9770   98.5580 H   0  0  0  0  0
  2  1  1  0  0  0
  5  1  1  0  0  0
  1 13  1  0  0  0
  3  2  2  0  0  0
  2 10  1  0  0  0
  3  4  1  0  0  0
  9  4  2  0  0  0
  4  5  1  0  0  0
  5  6  2  0  0  0
  7  6  1  0  0  0
  6 25  1  0  0  0
  8  7  2  0  0  0
  7 26  1  0  0  0
 27  8  1  0  0  0
  9  8  1  0  0  0
 28  9  1  0  0  0
 21 10  2  0  0  0
 10 11  1  0  0  0
 11 18  2  0  0  0
 11 12  1  0  0  0
 13 12  1  0  0  0
 12 15  2  0  0  0
 13 14  2  0  0  0
 15 16  1  0  0  0
 15 29  1  0  0  0
 17 16  2  0  0  0
 16 30  1  0  0  0
 18 17  1  0  0  0
 17 22  1  0  0  0
 19 18  1  0  0  0
 20 19  2  0  0  0
 19 31  1  0  0  0
 32 20  1  0  0  0
 21 20  1  0  0  0
 33 21  1  0  0  0
 24 22  1  0  0  0
 22 23  2  0  0  0
 35 24  1  0  0  0
 34 24  1  0  0  0
 24 36  1  0  0  0
M  END
$$$$
23925_ChemDiv_000A-0179.pdb
 OpenBabel06131021453D

 36 40  0  0  0  0  0  0  0  0999 V2000
   59.8140   44.4780   96.1250 N   0  0  0  0  0
   59.5150   44.7520   97.0420 C   0  0  0  0  0
   58.6200   44.3190   97.2150 N   0  0  0  0  0
   58.3750   43.7860   96.4130 C   0  0  0  0  0
   59.1010   43.8800   95.7430 C   0  0  0  0  0
   59.0100   43.4020   94.8690 C   0  0  0  0  0
   58.2120   42.8460   94.6740 C   0  0  0  0  0
   57.4900   42.7530   95.3380 C   0  0  0  0  0
   57.5570   43.2130   96.2050 C   0  0  0  0  0
   60.0820   45.3410   97.5800 C   0  0  0  0  0
   60.9530   45.6620   97.2070 C   0  0  0  0  0
   61.2620   45.3910   96.2830 C   0  0  0  0  0
   60.6750   44.7820   95.7260 C   0  0  0  0  0
   60.9640   44.4980   94.8000 O   0  0  0  0  0
   62.1320   45.7130   95.9090 C   0  0  0  0  0
   62.7180   46.3220   96.4650 C   0  0  0  0  0
   62.3900   46.5900   97.4050 C   0  0  0  0  0
   61.5390   46.2720   97.7630 C   0  0  0  0  0
   61.2360   46.5400   98.6750 C   0  0  0  0  0
   60.3620   46.2210   99.0570 C   0  0  0  0  0
   59.7950   45.6320   98.5190 C   0  0  0  0  0
   62.9470   47.1860   97.9690 C   0  0  0  0  0
   63.5610   46.7950   98.6400 O   0  0  0  0  0
   62.8950   48.1750   97.8640 C   0  0  0  0  0
   59.8060   43.4940   94.1130 H   0  0  0  0  0
   58.1320   42.3270   93.7060 H   0  0  0  0  0
   56.6080   42.1340   95.1100 H   0  0  0  0  0
   56.7510   43.1100   96.9490 H   0  0  0  0  0
   62.4500   45.4070   94.9000 H   0  0  0  0  0
   63.6810   46.6890   96.0760 H   0  0  0  0  0
   61.8750   47.2030   99.2790 H   0  0  0  0  0
   60.0470   46.5300  100.0660 H   0  0  0  0  0
   58.8360   45.2780   98.9290 H   0  0  0  0  0
   62.1400   48.4320   97.0500 H   0  0  0  0  0
   63.9200   48.5980   97.5990 H   0  0  0  0  0
   62.5570   48.6390   98.8490 H   0  0  0  0  0
 13  1  1  0  0  0
  5  1  1  0  0  0
  1  2  1  0  0  0
  2  3  2  0  0  0
  2 10  1  0  0  0
  4  3  1  0  0  0
  5  4  1  0  0  0
  9  4  2  0  0  0
  6  5  2  0  0  0
 25  6  1  0  0  0
  7  6  1  0  0  0
 26  7  1  0  0  0
  7  8  2  0  0  0
 27  8  1  0  0  0
  8  9  1  0  0  0
  9 28  1  0  0  0
 11 10  2  0  0  0
 10 21  1  0  0  0
 12 11  1  0  0  0
 11 18  1  0  0  0
 13 12  1  0  0  0
 15 12  2  0  0  0
 14 13  2  0  0  0
 29 15  1  0  0  0
 15 16  1  0  0  0
 30 16  1  0  0  0
 16 17  2  0  0  0
 17 18  1  0  0  0
 17 22  1  0  0  0
 18 19  2  0  0  0
 19 20  1  0  0  0
 19 31  1  0  0  0
 21 20  2  0  0  0
 20 32  1  0  0  0
 21 33  1  0  0  0
 24 22  1  0  0  0
 22 23  2  0  0  0
 34 24  1  0  0  0
 35 24  1  0  0  0
 24 36  1  0  0  0
M  END
$$$$
23928_ChemDiv_3710-0012.pdb
 OpenBabel06131021453D

 38 42  0  0  0  0  0  0  0  0999 V2000
   61.5920   45.6590   96.2140 C   0  0  0  0  0
   60.8690   45.4770   96.8270 C   0  0  0  0  0
   60.1300   44.9340   96.5570 C   0  0  0  0  0
   60.1040   44.5590   95.6530 C   0  0  0  0  0
   60.8280   44.7410   95.0400 N   0  0  0  0  0
   61.5770   45.2940   95.3200 C   0  0  0  0  0
   59.3710   44.0130   95.3680 C   0  0  0  0  0
   58.6370   43.8290   95.9900 C   0  0  0  0  0
   58.6580   44.1950   96.8790 C   0  0  0  0  0
   59.4020   44.7470   97.1640 C   0  0  0  0  0
   59.4160   45.1170   98.0720 O   0  0  0  0  0
   57.7850   43.4070   96.1910 C   0  0  0  0  0
   58.3980   43.3610   95.1690 C   0  0  0  0  0
   61.6370   46.4000   98.0070 C   0  0  0  0  0
   62.3700   46.5840   97.3850 C   0  0  0  0  0
   62.3520   46.2180   96.4950 N   0  0  0  0  0
   63.1140   47.1340   97.6660 C   0  0  0  0  0
   63.1400   47.5090   98.5690 C   0  0  0  0  0
   62.4070   47.3250   99.1900 C   0  0  0  0  0
   61.6560   46.7680   98.9020 C   0  0  0  0  0
   62.3080   45.4770   94.7000 C   0  0  0  0  0
   62.1660   46.0930   93.9610 C   0  0  0  0  0
   60.8960   45.8980   97.8450 H   0  0  0  0  0
   60.1870   44.1820   94.5900 H   0  0  0  0  0
   58.5400   43.3390   97.6230 H   0  0  0  0  0
   57.8000   44.9450   96.8500 H   0  0  0  0  0
   57.6050   42.5470   96.9170 H   0  0  0  0  0
   56.7460   43.7090   96.5510 H   0  0  0  0  0
   58.1150   42.8130   94.2100 H   0  0  0  0  0
   60.7890   45.7730   97.6880 H   0  0  0  0  0
   63.1630   46.4200   95.8070 H   0  0  0  0  0
   63.9380   47.3400   96.9640 H   0  0  0  0  0
   63.9900   48.1350   98.8850 H   0  0  0  0  0
   62.4270   47.7430  100.2090 H   0  0  0  0  0
   60.8290   46.5590   99.5990 H   0  0  0  0  0
   63.2860   44.9900   94.8360 H   0  0  0  0  0
   61.1860   46.5780   93.8290 H   0  0  0  0  0
   62.9850   46.3060   93.2560 H   0  0  0  0  0
  6  1  2  0  0  0
  1 16  1  0  0  0
  1  2  1  0  0  0
  3  2  2  0  0  0
  2 30  1  0  0  0
  4  3  1  0  0  0
  3 10  1  0  0  0
  5  4  2  0  0  0
  7  4  1  0  0  0
 24  5  1  0  0  0
  5  6  1  0  0  0
 21  6  1  0  0  0
 13  7  1  0  0  0
  7  8  1  0  0  0
 13  8  1  0  0  0
  8 12  1  0  0  0
  8  9  1  0  0  0
 26  9  1  0  0  0
  9 10  1  0  0  0
  9 25  1  0  0  0
 10 11  2  0  0  0
 13 12  1  0  0  0
 12 28  1  0  0  0
 12 27  1  0  0  0
 29 13  1  0  0  0
 15 14  2  0  0  0
 23 14  1  0  0  0
 14 20  1  0  0  0
 16 15  1  0  0  0
 15 17  1  0  0  0
 31 16  1  0  0  0
 32 17  1  0  0  0
 17 18  2  0  0  0
 18 33  1  0  0  0
 18 19  1  0  0  0
 20 19  2  0  0  0
 19 34  1  0  0  0
 20 35  1  0  0  0
 22 21  2  0  0  0
 21 36  1  0  0  0
 38 22  1  0  0  0
 37 22  1  0  0  0
M  END
$$$$
23928_ChemDiv_3710-0012.pdb
 OpenBabel06131021463D

 38 42  0  0  0  0  0  0  0  0999 V2000
   61.6010   45.6660   96.3450 C   0  0  0  0  0
   60.8610   45.4830   96.9390 C   0  0  0  0  0
   60.1260   44.9470   96.6450 C   0  0  0  0  0
   60.1200   44.5810   95.7380 C   0  0  0  0  0
   60.8600   44.7640   95.1440 N   0  0  0  0  0
   61.6050   45.3100   95.4470 C   0  0  0  0  0
   59.3910   44.0420   95.4290 C   0  0  0  0  0
   58.6410   43.8560   96.0310 C   0  0  0  0  0
   58.6430   44.2150   96.9240 C   0  0  0  0  0
   59.3820   44.7590   97.2320 C   0  0  0  0  0
   59.3760   45.1200   98.1440 O   0  0  0  0  0
   57.7820   43.4380   96.2070 C   0  0  0  0  0
   58.4200   43.3980   95.2000 C   0  0  0  0  0
   61.6050   46.3900   98.1460 C   0  0  0  0  0
   62.3550   46.5760   97.5440 C   0  0  0  0  0
   62.3560   46.2180   96.6500 N   0  0  0  0  0
   63.0950   47.1190   97.8480 C   0  0  0  0  0
   63.1010   47.4850   98.7540 C   0  0  0  0  0
   62.3520   47.2990   99.3560 C   0  0  0  0  0
   61.6050   46.7490   99.0440 C   0  0  0  0  0
   62.3520   45.4950   94.8480 C   0  0  0  0  0
   62.2370   46.1320   94.1230 C   0  0  0  0  0
   60.8640   45.8940   97.9610 H   0  0  0  0  0
   60.2260   44.2140   94.6730 H   0  0  0  0  0
   58.5010   43.3540   97.6570 H   0  0  0  0  0
   57.7920   44.9720   96.8790 H   0  0  0  0  0
   57.5790   42.5720   96.9200 H   0  0  0  0  0
   56.7370   43.7440   96.5440 H   0  0  0  0  0
   58.1580   42.8610   94.2290 H   0  0  0  0  0
   60.7610   45.7720   97.8000 H   0  0  0  0  0
   63.1840   46.4220   95.9840 H   0  0  0  0  0
   63.9370   47.3260   97.1690 H   0  0  0  0  0
   63.9460   48.1030   99.0960 H   0  0  0  0  0
   62.3500   47.7070  100.3790 H   0  0  0  0  0
   60.7600   46.5380   99.7190 H   0  0  0  0  0
   63.3180   44.9860   94.9920 H   0  0  0  0  0
   61.2690   46.6380   93.9830 H   0  0  0  0  0
   63.0750   46.3480   93.4410 H   0  0  0  0  0
  6  1  2  0  0  0
  1 16  1  0  0  0
  1  2  1  0  0  0
  3  2  2  0  0  0
  2 30  1  0  0  0
  4  3  1  0  0  0
  3 10  1  0  0  0
  5  4  2  0  0  0
  7  4  1  0  0  0
 24  5  1  0  0  0
  5  6  1  0  0  0
 21  6  1  0  0  0
 13  7  1  0  0  0
  7  8  1  0  0  0
 13  8  1  0  0  0
  8 12  1  0  0  0
  8  9  1  0  0  0
 26  9  1  0  0  0
  9 10  1  0  0  0
  9 25  1  0  0  0
 10 11  2  0  0  0
 13 12  1  0  0  0
 12 28  1  0  0  0
 12 27  1  0  0  0
 29 13  1  0  0  0
 15 14  2  0  0  0
 23 14  1  0  0  0
 14 20  1  0  0  0
 16 15  1  0  0  0
 15 17  1  0  0  0
 31 16  1  0  0  0
 32 17  1  0  0  0
 17 18  2  0  0  0
 18 33  1  0  0  0
 18 19  1  0  0  0
 20 19  2  0  0  0
 19 34  1  0  0  0
 20 35  1  0  0  0
 22 21  2  0  0  0
 21 36  1  0  0  0
 38 22  1  0  0  0
 37 22  1  0  0  0
M  END
$$$$
23928_ChemDiv_3710-0012.pdb
 OpenBabel06131021463D

 38 42  0  0  0  0  0  0  0  0999 V2000
   61.6090   45.6460   96.3070 C   0  0  0  0  0
   60.8650   45.4820   96.9000 C   0  0  0  0  0
   60.1250   44.9480   96.6140 C   0  0  0  0  0
   60.1200   44.5640   95.7140 C   0  0  0  0  0
   60.8640   44.7280   95.1200 N   0  0  0  0  0
   61.6140   45.2710   95.4160 C   0  0  0  0  0
   59.3860   44.0270   95.4130 C   0  0  0  0  0
   58.6320   43.8610   96.0150 C   0  0  0  0  0
   58.6330   44.2370   96.9010 C   0  0  0  0  0
   59.3770   44.7790   97.2010 C   0  0  0  0  0
   59.3720   45.1590   98.1060 O   0  0  0  0  0
   57.7670   43.4550   96.1960 C   0  0  0  0  0
   58.4090   43.3880   95.1920 C   0  0  0  0  0
   61.6140   46.4040   98.0930 C   0  0  0  0  0
   62.3680   46.5700   97.4910 C   0  0  0  0  0
   62.3690   46.1950   96.6040 N   0  0  0  0  0
   63.1130   47.1110   97.7870 C   0  0  0  0  0
   63.1190   47.4950   98.6860 C   0  0  0  0  0
   62.3650   47.3290   99.2880 C   0  0  0  0  0
   61.6140   46.7820   98.9840 C   0  0  0  0  0
   62.3650   45.4360   94.8160 C   0  0  0  0  0
   62.2600   46.0610   94.0780 C   0  0  0  0  0
   60.8690   45.9130   97.9140 H   0  0  0  0  0
   60.2260   44.1760   94.6570 H   0  0  0  0  0
   58.4790   43.3920   97.6500 H   0  0  0  0  0
   57.7890   45.0010   96.8390 H   0  0  0  0  0
   57.5520   42.6060   96.9250 H   0  0  0  0  0
   56.7240   43.7780   96.5220 H   0  0  0  0  0
   58.1460   42.8340   94.2310 H   0  0  0  0  0
   60.7660   45.7870   97.7560 H   0  0  0  0  0
   63.2020   46.3770   95.9370 H   0  0  0  0  0
   63.9600   47.2960   97.1070 H   0  0  0  0  0
   63.9690   48.1110   99.0200 H   0  0  0  0  0
   62.3630   47.7570  100.3030 H   0  0  0  0  0
   60.7640   46.5950   99.6590 H   0  0  0  0  0
   63.3250   44.9190   94.9730 H   0  0  0  0  0
   61.2980   46.5760   93.9250 H   0  0  0  0  0
   63.1030   46.2540   93.3950 H   0  0  0  0  0
  6  1  2  0  0  0
  1 16  1  0  0  0
  1  2  1  0  0  0
  3  2  2  0  0  0
  2 30  1  0  0  0
  4  3  1  0  0  0
  3 10  1  0  0  0
  5  4  2  0  0  0
  7  4  1  0  0  0
 24  5  1  0  0  0
  5  6  1  0  0  0
 21  6  1  0  0  0
 13  7  1  0  0  0
  7  8  1  0  0  0
 13  8  1  0  0  0
  8 12  1  0  0  0
  8  9  1  0  0  0
 26  9  1  0  0  0
  9 10  1  0  0  0
  9 25  1  0  0  0
 10 11  2  0  0  0
 13 12  1  0  0  0
 12 28  1  0  0  0
 12 27  1  0  0  0
 29 13  1  0  0  0
 15 14  2  0  0  0
 23 14  1  0  0  0
 14 20  1  0  0  0
 16 15  1  0  0  0
 15 17  1  0  0  0
 31 16  1  0  0  0
 32 17  1  0  0  0
 17 18  2  0  0  0
 18 33  1  0  0  0
 18 19  1  0  0  0
 20 19  2  0  0  0
 19 34  1  0  0  0
 20 35  1  0  0  0
 22 21  2  0  0  0
 21 36  1  0  0  0
 38 22  1  0  0  0
 37 22  1  0  0  0
M  END
$$$$
23935_ChemDiv_8013-0182.pdb
 OpenBabel06131021463D

 28 31  0  0  0  0  0  0  0  0999 V2000
   61.1440   45.8510   98.9100 N   0  0  0  0  0
   61.9440   45.2880   98.7480 C   0  0  0  0  0
   62.6840   45.6120   99.3140 N   0  0  0  0  0
   62.3260   46.3930   99.8350 C   0  0  0  0  0
   61.3670   46.5400   99.5800 C   0  0  0  0  0
   60.8630   47.2910  100.0180 C   0  0  0  0  0
   61.3040   47.8780  100.6900 C   0  0  0  0  0
   62.2640   47.7310  100.9440 C   0  0  0  0  0
   62.7680   46.9800  100.5060 C   0  0  0  0  0
   61.8760   44.5210   98.0710 C   0  0  0  0  0
   61.0430   44.3410   97.5900 C   0  0  0  0  0
   60.2430   44.9040   97.7520 C   0  0  0  0  0
   60.2800   45.6450   98.3940 C   0  0  0  0  0
   59.4600   46.2230   98.5600 O   0  0  0  0  0
   59.3920   44.7120   97.2530 C   0  0  0  0  0
   59.3430   43.9570   96.5940 C   0  0  0  0  0
   60.1420   43.3940   96.4330 C   0  0  0  0  0
   60.9880   43.5870   96.9300 C   0  0  0  0  0
   59.8090   47.4670   99.7510 H   0  0  0  0  0
   60.7340   48.6960  101.1590 H   0  0  0  0  0
   62.7550   48.3790  101.6870 H   0  0  0  0  0
   63.8220   46.8040  100.7720 H   0  0  0  0  0
   62.7100   44.6480   97.3040 H   0  0  0  0  0
   61.9480   43.6090   98.7510 H   0  0  0  0  0
   58.5030   45.3370   97.4320 H   0  0  0  0  0
   58.4050   43.7550   96.0520 H   0  0  0  0  0
   60.0990   42.5620   95.7120 H   0  0  0  0  0
   61.8760   42.9600   96.7500 H   0  0  0  0  0
 13  1  1  0  0  0
  2  1  1  0  0  0
  1  5  1  0  0  0
 10  2  1  0  0  0
  2  3  2  0  0  0
  3  4  1  0  0  0
  5  4  2  0  0  0
  4  9  1  0  0  0
  5  6  1  0  0  0
 19  6  1  0  0  0
  6  7  2  0  0  0
  7  8  1  0  0  0
  7 20  1  0  0  0
  9  8  2  0  0  0
  8 21  1  0  0  0
  9 22  1  0  0  0
 23 10  1  0  0  0
 11 10  1  0  0  0
 10 24  1  0  0  0
 18 11  2  0  0  0
 11 12  1  0  0  0
 15 12  2  0  0  0
 12 13  1  0  0  0
 13 14  2  0  0  0
 16 15  1  0  0  0
 15 25  1  0  0  0
 26 16  1  0  0  0
 17 16  2  0  0  0
 27 17  1  0  0  0
 17 18  1  0  0  0
 28 18  1  0  0  0
M  END
$$$$
23940_ChemDiv_D226-0123.pdb
 OpenBabel06131021463D

 24 24  0  0  0  0  0  0  0  0999 V2000
   60.3640   44.8370   97.7620 C   0  0  0  0  0
   60.3770   45.6560   98.1670 N   0  0  0  0  0
   61.0490   45.8570   98.7540 C   0  0  0  0  0
   61.7070   45.2450   98.9360 N   0  0  0  0  0
   61.0080   44.2200   97.9320 C   0  0  0  0  0
   60.9830   43.3960   97.5140 C   0  0  0  0  0
   60.3050   43.2090   96.9300 N   0  0  0  0  0
   59.6510   43.8340   96.7570 C   0  0  0  0  0
   59.6810   44.6420   97.1700 N   0  0  0  0  0
   59.0240   45.2700   96.9970 C   0  0  0  0  0
   58.9720   43.6350   96.1670 O   0  0  0  0  0
   61.6480   42.7600   97.6890 O   0  0  0  0  0
   62.3990   46.2760   99.9390 C   0  0  0  0  0
   61.7330   46.8910   99.7520 C   0  0  0  0  0
   61.0620   46.6840   99.1640 S   0  0  0  0  0
   61.6920   44.2750   98.4550 H   0  0  0  0  0
   62.0240   44.6950   97.7300 H   0  0  0  0  0
   60.8010   43.9470   99.0190 H   0  0  0  0  0
   58.2570   45.6010   97.7730 H   0  0  0  0  0
   59.0160   46.3540   96.6450 H   0  0  0  0  0
   63.1320   46.7240  100.6890 H   0  0  0  0  0
   62.9440   45.9810   98.9820 H   0  0  0  0  0
   61.9290   45.3400  100.3890 H   0  0  0  0  0
   61.7480   47.8780  100.2400 H   0  0  0  0  0
  9  1  1  0  0  0
  1  5  1  0  0  0
  1  2  2  0  0  0
  2  3  1  0  0  0
  3  4  2  0  0  0
  3 15  1  0  0  0
  6  5  1  0  0  0
 17  5  1  0  0  0
  5 16  1  0  0  0
  7  6  1  0  0  0
  6 12  2  0  0  0
  8  7  2  0  0  0
 11  8  1  0  0  0
  8  9  1  0  0  0
 10  9  1  0  0  0
 11 10  1  0  0  0
 20 10  1  0  0  0
 10 19  1  0  0  0
 22 13  1  0  0  0
 14 13  1  0  0  0
 13 23  1  0  0  0
 13 21  1  0  0  0
 15 14  2  0  0  0
 14 24  1  0  0  0
M  END
$$$$
23940_ChemDiv_D226-0123.pdb
 OpenBabel06131021463D

 24 24  0  0  0  0  0  0  0  0999 V2000
   60.3670   44.8410   97.7530 C   0  0  0  0  0
   60.3820   45.6630   98.1520 N   0  0  0  0  0
   61.0570   45.8700   98.7320 C   0  0  0  0  0
   61.7170   45.2590   98.9170 N   0  0  0  0  0
   61.0130   44.2250   97.9260 C   0  0  0  0  0
   60.9840   43.3980   97.5150 C   0  0  0  0  0
   60.3030   43.2050   96.9370 N   0  0  0  0  0
   59.6490   43.8290   96.7620 C   0  0  0  0  0
   59.6810   44.6400   97.1680 N   0  0  0  0  0
   59.0240   45.2670   96.9920 C   0  0  0  0  0
   58.9660   43.6250   96.1770 O   0  0  0  0  0
   61.6500   42.7630   97.6930 O   0  0  0  0  0
   62.4150   46.2990   99.9070 C   0  0  0  0  0
   61.7480   46.9120   99.7180 C   0  0  0  0  0
   61.0740   46.7000   99.1350 S   0  0  0  0  0
   61.7000   44.2850   98.4460 H   0  0  0  0  0
   62.0280   44.6980   97.7130 H   0  0  0  0  0
   60.8150   43.9630   99.0180 H   0  0  0  0  0
   58.2610   45.6060   97.7680 H   0  0  0  0  0
   59.0160   46.3480   96.6300 H   0  0  0  0  0
   63.1510   46.7540  100.6490 H   0  0  0  0  0
   62.9560   45.9960   98.9500 H   0  0  0  0  0
   61.9480   45.3660  100.3670 H   0  0  0  0  0
   61.7650   47.9040  100.1970 H   0  0  0  0  0
  9  1  1  0  0  0
  1  5  1  0  0  0
  1  2  2  0  0  0
  2  3  1  0  0  0
  3  4  2  0  0  0
  3 15  1  0  0  0
  6  5  1  0  0  0
 17  5  1  0  0  0
  5 16  1  0  0  0
  7  6  1  0  0  0
  6 12  2  0  0  0
  8  7  2  0  0  0
 11  8  1  0  0  0
  8  9  1  0  0  0
 10  9  1  0  0  0
 11 10  1  0  0  0
 20 10  1  0  0  0
 10 19  1  0  0  0
 22 13  1  0  0  0
 14 13  1  0  0  0
 13 23  1  0  0  0
 13 21  1  0  0  0
 15 14  2  0  0  0
 14 24  1  0  0  0
M  END
$$$$
23942_ChemDiv_D226-0124.pdb
 OpenBabel06131021463D

 29 28  0  0  0  0  0  0  0  0999 V2000
   60.6660   45.6930   95.6570 C   0  0  0  0  0
   61.1140   45.4840   96.4180 C   0  0  0  0  0
   61.8800   45.9710   96.6680 C   0  0  0  0  0
   62.1600   46.6590   96.1250 N   0  0  0  0  0
   61.7070   46.8700   95.3560 C   0  0  0  0  0
   60.9680   46.3960   95.1200 N   0  0  0  0  0
   60.5070   46.6110   94.3380 C   0  0  0  0  0
   62.0050   47.5620   94.8290 O   0  0  0  0  0
   62.7590   47.3320   95.9570 C   0  0  0  0  0
   62.3370   45.7580   97.4430 O   0  0  0  0  0
   60.0640   44.3020   96.7130 N   0  0  0  0  0
   59.6160   44.5320   95.9270 C   0  0  0  0  0
   59.9170   45.2140   95.4150 N   0  0  0  0  0
   58.8590   44.0540   95.6760 S   0  0  0  0  0
   58.5500   43.3540   96.2020 C   0  0  0  0  0
   59.0030   43.1290   96.9860 C   0  0  0  0  0
   60.7600   44.6560   97.0530 H   0  0  0  0  0
   60.9530   46.7000   94.5180 H   0  0  0  0  0
   61.0210   47.4880   93.8220 H   0  0  0  0  0
   59.4240   46.8740   94.5780 H   0  0  0  0  0
   60.5120   45.7100   93.6400 H   0  0  0  0  0
   62.7640   48.1800   96.7190 H   0  0  0  0  0
   63.8860   47.1660   95.9270 H   0  0  0  0  0
   60.9460   44.8520   97.0140 H   0  0  0  0  0
   59.3900   45.4710   94.5050 H   0  0  0  0  0
   57.6520   42.7910   95.9020 H   0  0  0  0  0
   59.8980   43.8220   97.1210 H   0  0  0  0  0
   59.3480   42.0430   96.9450 H   0  0  0  0  0
   58.2980   43.2500   97.8740 H   0  0  0  0  0
 13  1  1  0  0  0
  1  2  2  0  0  0
  2  3  1  0  0  0
  2 24  1  0  0  0
  4  3  1  0  0  0
  3 10  2  0  0  0
  5  4  1  0  0  0
  9  4  1  0  0  0
  8  5  1  0  0  0
  6  5  1  0  0  0
 18  6  1  0  0  0
 21  7  1  0  0  0
 19  7  1  0  0  0
  7 20  1  0  0  0
  8  9  1  0  0  0
 23  9  1  0  0  0
  9 22  1  0  0  0
 12 11  2  0  0  0
 11 17  1  0  0  0
 11 27  1  0  0  0
 13 12  1  0  0  0
 14 12  1  0  0  0
 25 13  1  0  0  0
 14 15  2  0  0  0
 26 15  1  0  0  0
 15 16  1  0  0  0
 28 16  1  0  0  0
 16 29  1  0  0  0
M  END
$$$$
23944_ChemDiv_D226-0137.pdb
 OpenBabel06131021463D

 38 39  0  0  0  0  0  0  0  0999 V2000
   63.0390   47.9140   97.5070 C   0  0  0  0  0
   63.5780   48.5530   96.9710 N   0  0  0  0  0
   63.8300   49.3120   97.5830 C   0  0  0  0  0
   63.4480   49.1380   98.4910 N   0  0  0  0  0
   62.9590   48.2750   98.4450 C   0  0  0  0  0
   62.4460   47.7560   99.1260 C   0  0  0  0  0
   62.0130   46.8900   98.8970 N   0  0  0  0  0
   62.0930   46.5290   97.9600 C   0  0  0  0  0
   62.6060   47.0350   97.2530 N   0  0  0  0  0
   62.6840   46.6820   96.3350 C   0  0  0  0  0
   61.6530   45.6400   97.7090 O   0  0  0  0  0
   62.3650   48.1200  100.0710 O   0  0  0  0  0
   64.3630   50.0920   97.3280 S   0  0  0  0  0
   65.3710   50.0190   97.2420 C   0  0  0  0  0
   65.9320   50.8580   97.2960 C   0  0  0  0  0
   66.9290   50.7860   97.2780 C   0  0  0  0  0
   67.4330   50.8150   96.4280 O   0  0  0  0  0
   67.4500   50.6830   98.1230 O   0  0  0  0  0
   63.5570   49.7440   99.2790 C   0  0  0  0  0
   62.8870   50.4720   99.4690 C   0  0  0  0  0
   63.0820   51.1690  100.1480 C   0  0  0  0  0
   62.3980   51.8270  100.3940 C   0  0  0  0  0
   62.5360   52.4500  101.1550 C   0  0  0  0  0
   61.8890   53.1820  101.3090 C   0  0  0  0  0
   61.4610   46.3400   99.6480 H   0  0  0  0  0
   63.2990   47.4030   95.7010 H   0  0  0  0  0
   61.6490   46.5390   95.8780 H   0  0  0  0  0
   63.2070   45.6700   96.3660 H   0  0  0  0  0
   65.8480   49.0380   97.0920 H   0  0  0  0  0
   65.4480   51.8450   97.3740 H   0  0  0  0  0
   68.5100   50.6080   98.0880 H   0  0  0  0  0
   64.4220   49.6140   99.9490 H   0  0  0  0  0
   61.9320   50.4940   98.9200 H   0  0  0  0  0
   64.0730   51.2040  100.6280 H   0  0  0  0  0
   61.4610   51.8760   99.8170 H   0  0  0  0  0
   63.4030   52.3270  101.8230 H   0  0  0  0  0
   61.0230   53.3020  100.6390 H   0  0  0  0  0
   62.0340   53.8780  102.1510 H   0  0  0  0  0
  2  1  1  0  0  0
  9  1  1  0  0  0
  1  5  2  0  0  0
  2  3  2  0  0  0
 13  3  1  0  0  0
  3  4  1  0  0  0
  5  4  1  0  0  0
  4 19  1  0  0  0
  5  6  1  0  0  0
  7  6  1  0  0  0
  6 12  2  0  0  0
  8  7  1  0  0  0
  7 25  1  0  0  0
  9  8  1  0  0  0
 11  8  2  0  0  0
 10  9  1  0  0  0
 26 10  1  0  0  0
 27 10  1  0  0  0
 10 28  1  0  0  0
 14 13  1  0  0  0
 29 14  1  0  0  0
 14 15  2  0  0  0
 16 15  1  0  0  0
 15 30  1  0  0  0
 17 16  2  0  0  0
 16 18  1  0  0  0
 31 18  1  0  0  0
 19 20  2  0  0  0
 19 32  1  0  0  0
 33 20  1  0  0  0
 20 21  1  0  0  0
 21 22  2  0  0  0
 21 34  1  0  0  0
 35 22  1  0  0  0
 22 23  1  0  0  0
 23 24  2  0  0  0
 23 36  1  0  0  0
 37 24  1  0  0  0
 24 38  1  0  0  0
M  END
$$$$
23944_ChemDiv_D226-0137.pdb
 OpenBabel06131021463D

 38 39  0  0  0  0  0  0  0  0999 V2000
   62.4430   47.5000   97.7230 C   0  0  0  0  0
   62.1210   46.5650   97.6390 N   0  0  0  0  0
   61.9200   46.4090   96.6650 C   0  0  0  0  0
   62.1190   47.2460   96.1540 N   0  0  0  0  0
   62.4420   47.9200   96.8070 C   0  0  0  0  0
   62.7400   48.8680   96.7040 C   0  0  0  0  0
   63.0380   49.4050   97.4870 N   0  0  0  0  0
   63.0390   48.9850   98.4030 C   0  0  0  0  0
   62.7420   48.0290   98.5340 N   0  0  0  0  0
   62.7430   47.6180   99.4310 C   0  0  0  0  0
   63.3420   49.5240   99.2180 O   0  0  0  0  0
   62.7390   49.2910   95.7800 O   0  0  0  0  0
   61.5840   45.5730   96.2820 S   0  0  0  0  0
   60.6190   45.2950   96.4240 C   0  0  0  0  0
   60.2930   44.4280   96.0200 C   0  0  0  0  0
   59.3650   44.1110   96.2170 C   0  0  0  0  0
   59.1860   43.4460   96.9260 O   0  0  0  0  0
   58.5860   44.4600   95.7000 O   0  0  0  0  0
   62.0030   47.3500   95.1670 C   0  0  0  0  0
   62.7500   47.1250   94.5310 C   0  0  0  0  0
   62.7130   47.4280   93.5860 C   0  0  0  0  0
   63.3870   47.1250   92.9420 C   0  0  0  0  0
   63.3980   47.4670   92.0090 C   0  0  0  0  0
   64.1080   47.1700   91.3880 C   0  0  0  0  0
   63.3580   50.4310   97.3560 H   0  0  0  0  0
   62.3750   46.5420   99.3570 H   0  0  0  0  0
   62.0780   48.2150  100.1390 H   0  0  0  0  0
   63.8050   47.6230   99.8440 H   0  0  0  0  0
   59.9360   45.9290   97.0110 H   0  0  0  0  0
   60.9550   43.8360   95.3680 H   0  0  0  0  0
   58.1900   43.1260   97.1150 H   0  0  0  0  0
   61.0430   47.7160   94.7690 H   0  0  0  0  0
   63.6130   46.5400   94.8850 H   0  0  0  0  0
   61.9100   48.1080   93.2600 H   0  0  0  0  0
   64.1460   46.3920   93.2580 H   0  0  0  0  0
   62.6240   48.1730   91.6690 H   0  0  0  0  0
   64.8810   46.4640   91.7320 H   0  0  0  0  0
   64.1260   47.5450   90.3520 H   0  0  0  0  0
  5  1  2  0  0  0
  2  1  1  0  0  0
  1  9  1  0  0  0
  3  2  2  0  0  0
  4  3  1  0  0  0
 13  3  1  0  0  0
 19  4  1  0  0  0
  4  5  1  0  0  0
  6  5  1  0  0  0
 12  6  2  0  0  0
  6  7  1  0  0  0
 25  7  1  0  0  0
  7  8  1  0  0  0
  8  9  1  0  0  0
  8 11  2  0  0  0
  9 10  1  0  0  0
 26 10  1  0  0  0
 10 28  1  0  0  0
 10 27  1  0  0  0
 13 14  1  0  0  0
 15 14  2  0  0  0
 14 29  1  0  0  0
 30 15  1  0  0  0
 15 16  1  0  0  0
 18 16  2  0  0  0
 16 17  1  0  0  0
 17 31  1  0  0  0
 20 19  2  0  0  0
 32 19  1  0  0  0
 21 20  1  0  0  0
 20 33  1  0  0  0
 22 21  2  0  0  0
 34 21  1  0  0  0
 23 22  1  0  0  0
 22 35  1  0  0  0
 24 23  2  0  0  0
 36 23  1  0  0  0
 38 24  1  0  0  0
 24 37  1  0  0  0
M  END
$$$$
23945_ChemDiv_000A-0113.pdb
 OpenBabel06131021463D

 56 57  0  0  0  0  0  0  0  0999 V2000
   63.0900   49.7580   96.3250 N   0  0  0  0  0
   63.6310   48.9320   96.3870 C   0  0  0  0  0
   63.4480   48.1670   95.7850 C   0  0  0  0  0
   62.7190   48.2080   95.1060 N   0  0  0  0  0
   62.1730   49.0400   95.0420 C   0  0  0  0  0
   62.3560   49.8020   95.6410 C   0  0  0  0  0
   63.2870   50.5170   96.9360 C   0  0  0  0  0
   63.8910   51.2430   96.6450 C   0  0  0  0  0
   64.4670   51.7100   97.3440 C   0  0  0  0  0
   65.1100   52.4150   97.0760 N   0  0  0  0  0
   64.9070   53.4070   97.0090 C   0  0  0  0  0
   65.7200   53.8830   96.7220 N   0  0  0  0  0
   64.0310   53.8530   97.1990 O   0  0  0  0  0
   66.4610   53.2120   96.5980 C   0  0  0  0  0
   66.0910   52.3220   96.8130 C   0  0  0  0  0
   67.4150   53.3040   96.3200 C   0  0  0  0  0
   66.6610   51.4890   96.7570 C   0  0  0  0  0
   67.6380   51.5960   96.4700 C   0  0  0  0  0
   68.0080   52.4870   96.2560 C   0  0  0  0  0
   62.5450   47.4240   94.5030 C   0  0  0  0  0
   61.8950   46.7060   94.7780 C   0  0  0  0  0
   62.2460   45.8730   95.2790 C   0  0  0  0  0
   61.6110   45.1450   95.5620 C   0  0  0  0  0
   60.6590   45.2490   95.3500 C   0  0  0  0  0
   60.2990   46.0300   94.8750 C   0  0  0  0  0
   60.9220   46.7860   94.5750 C   0  0  0  0  0
   63.0110   47.3290   93.6070 C   0  0  0  0  0
   62.5380   47.7040   92.8020 C   0  0  0  0  0
   62.9730   47.6230   91.9160 C   0  0  0  0  0
   63.8760   47.1660   91.8490 C   0  0  0  0  0
   64.3140   46.8100   92.6460 C   0  0  0  0  0
   63.8820   46.8900   93.5320 C   0  0  0  0  0
   64.4410   48.8630   97.1300 H   0  0  0  0  0
   64.0600   47.2550   95.8670 H   0  0  0  0  0
   61.3620   49.1080   94.2990 H   0  0  0  0  0
   61.7460   50.7150   95.5580 H   0  0  0  0  0
   63.6790   50.0950   97.9200 H   0  0  0  0  0
   62.2800   51.0480   96.9970 H   0  0  0  0  0
   63.9410   51.5420   95.5860 H   0  0  0  0  0
   64.3740   51.4290   98.4050 H   0  0  0  0  0
   65.8040   54.9510   96.5660 H   0  0  0  0  0
   67.8240   54.2990   96.0820 H   0  0  0  0  0
   66.2440   50.4980   96.9970 H   0  0  0  0  0
   68.2850   50.7070   96.3990 H   0  0  0  0  0
   69.0610   52.5900   95.9490 H   0  0  0  0  0
   63.0260   48.3930   94.8630 H   0  0  0  0  0
   63.3200   45.7810   95.5040 H   0  0  0  0  0
   61.9760   44.2540   96.0960 H   0  0  0  0  0
   59.9620   44.4540   95.6590 H   0  0  0  0  0
   59.2200   46.0930   94.6640 H   0  0  0  0  0
   60.5270   47.6650   94.0420 H   0  0  0  0  0
   61.5570   48.1940   92.9040 H   0  0  0  0  0
   62.4820   48.0240   91.0150 H   0  0  0  0  0
   64.3670   47.0700   90.8680 H   0  0  0  0  0
   65.2950   46.3170   92.5580 H   0  0  0  0  0
   64.3790   46.4870   94.4290 H   0  0  0  0  0
  6  1  2  0  0  0
  1  2  1  0  0  0
  1  7  1  0  0  0
  3  2  2  0  0  0
  2 33  1  0  0  0
  4  3  1  0  0  0
 20  4  1  0  0  0
  5  4  2  0  0  0
  5  6  1  0  0  0
 36  6  1  0  0  0
  8  7  1  0  0  0
  7 38  1  0  0  0
  7 37  1  0  0  0
 39  8  1  0  0  0
  8  9  2  0  0  0
 10  9  1  0  0  0
  9 40  1  0  0  0
 15 10  1  0  0  0
 11 10  1  0  0  0
 12 11  1  0  0  0
 11 13  2  0  0  0
 41 12  1  0  0  0
 14 12  1  0  0  0
 16 14  2  0  0  0
 14 15  1  0  0  0
 17 15  2  0  0  0
 42 16  1  0  0  0
 19 16  1  0  0  0
 18 17  1  0  0  0
 17 43  1  0  0  0
 19 18  2  0  0  0
 44 18  1  0  0  0
 45 19  1  0  0  0
 27 20  1  0  0  0
 20 21  1  0  0  0
 26 21  2  0  0  0
 21 22  1  0  0  0
 22 47  1  0  0  0
 22 23  2  0  0  0
 24 23  1  0  0  0
 23 48  1  0  0  0
 25 24  2  0  0  0
 24 49  1  0  0  0
 26 25  1  0  0  0
 50 25  1  0  0  0
 51 26  1  0  0  0
 28 27  2  0  0  0
 32 27  1  0  0  0
 29 28  1  0  0  0
 28 52  1  0  0  0
 53 29  1  0  0  0
 30 29  2  0  0  0
 54 30  1  0  0  0
 30 31  1  0  0  0
 55 31  1  0  0  0
 31 32  2  0  0  0
 32 56  1  0  0  0
M  END
$$$$
23945_ChemDiv_000A-0113.pdb
 OpenBabel06131021463D

 58 59  0  0  0  0  0  0  0  0999 V2000
   62.0330   49.3680   98.9050 N   0  0  0  0  0
   61.4610   50.1510   98.7140 C   0  0  0  0  0
   61.7870   51.0670   98.9070 C   0  0  0  0  0
   62.6920   51.2210   99.2960 N   0  0  0  0  0
   63.2690   50.4320   99.4890 C   0  0  0  0  0
   62.9450   49.5200   99.2970 C   0  0  0  0  0
   61.6920   48.4550   98.7060 C   0  0  0  0  0
   61.9030   48.0260   97.8410 C   0  0  0  0  0
   61.2440   47.3520   97.4550 C   0  0  0  0  0
   61.5230   46.7320   96.7350 N   0  0  0  0  0
   61.8470   45.7790   96.8660 C   0  0  0  0  0
   62.0590   45.3870   95.9870 N   0  0  0  0  0
   61.9440   45.2940   97.7360 O   0  0  0  0  0
   61.8770   46.0750   95.2740 C   0  0  0  0  0
   61.5520   46.8900   95.7270 C   0  0  0  0  0
   61.9680   46.0570   94.2800 C   0  0  0  0  0
   61.3050   47.7190   95.2040 C   0  0  0  0  0
   61.4020   47.6870   94.1850 C   0  0  0  0  0
   61.7270   46.8720   93.7320 C   0  0  0  0  0
   63.0080   52.1550   99.4860 C   0  0  0  0  0
   63.4630   52.6940   98.7660 C   0  0  0  0  0
   62.8930   53.3030   98.1560 C   0  0  0  0  0
   63.3300   53.8480   97.4320 C   0  0  0  0  0
   64.3030   53.7860   97.3240 C   0  0  0  0  0
   64.8680   53.2160   97.8900 C   0  0  0  0  0
   64.4510   52.6490   98.6350 C   0  0  0  0  0
   62.8830   52.5850  100.3970 C   0  0  0  0  0
   62.0110   53.0560  100.5640 C   0  0  0  0  0
   61.8650   53.4830  101.4460 C   0  0  0  0  0
   62.5960   53.4310  102.1470 C   0  0  0  0  0
   63.4340   52.9670  101.9580 C   0  0  0  0  0
   63.5830   52.5390  101.0790 C   0  0  0  0  0
   60.4570   50.0050   98.2850 H   0  0  0  0  0
   61.1380   51.9300   98.6880 H   0  0  0  0  0
   64.2730   50.5780   99.9180 H   0  0  0  0  0
   63.5930   48.6560   99.5160 H   0  0  0  0  0
   62.0220   47.7570   99.5450 H   0  0  0  0  0
   60.5680   48.6260   98.6260 H   0  0  0  0  0
   62.0870   48.8410   97.0650 H   0  0  0  0  0
   62.8170   47.3890   98.0820 H   0  0  0  0  0
   60.8170   46.7360   98.3140 H   0  0  0  0  0
   60.5030   48.0280   96.9130 H   0  0  0  0  0
   62.4270   44.3830   95.8160 H   0  0  0  0  0
   62.3320   45.1460   93.7790 H   0  0  0  0  0
   60.9440   48.6260   95.7130 H   0  0  0  0  0
   61.1400   48.5740   93.5860 H   0  0  0  0  0
   61.8270   46.8510   92.6350 H   0  0  0  0  0
   62.5230   51.1470   99.7040 H   0  0  0  0  0
   61.8020   53.3560   98.2990 H   0  0  0  0  0
   62.7300   54.4990   96.7760 H   0  0  0  0  0
   64.7830   54.3820   96.5320 H   0  0  0  0  0
   65.9560   53.1860   97.7230 H   0  0  0  0  0
   65.0770   52.0070   99.2740 H   0  0  0  0  0
   61.2350   53.0970   99.7840 H   0  0  0  0  0
   60.9210   54.0070  101.6620 H   0  0  0  0  0
   62.4430   53.9020  103.1310 H   0  0  0  0  0
   64.2190   52.9200  102.7290 H   0  0  0  0  0
   64.5290   52.0150  100.8700 H   0  0  0  0  0
  7  1  1  0  0  0
  2  1  2  0  0  0
  1  6  1  0  0  0
 33  2  1  0  0  0
  2  3  1  0  0  0
  3  4  2  0  0  0
  4 20  1  0  0  0
  4  5  1  0  0  0
  6  5  2  0  0  0
  6 36  1  0  0  0
  8  7  1  0  0  0
 38  7  1  0  0  0
  7 37  1  0  0  0
 39  8  1  0  0  0
  9  8  1  0  0  0
  8 40  1  0  0  0
 10  9  1  0  0  0
 42  9  1  0  0  0
  9 41  1  0  0  0
 15 10  1  0  0  0
 10 11  1  0  0  0
 12 11  1  0  0  0
 11 13  2  0  0  0
 14 12  1  0  0  0
 43 12  1  0  0  0
 16 14  2  0  0  0
 14 15  1  0  0  0
 17 15  2  0  0  0
 19 16  1  0  0  0
 44 16  1  0  0  0
 18 17  1  0  0  0
 17 45  1  0  0  0
 46 18  1  0  0  0
 19 18  2  0  0  0
 47 19  1  0  0  0
 21 20  1  0  0  0
 20 27  1  0  0  0
 22 21  2  0  0  0
 26 21  1  0  0  0
 23 22  1  0  0  0
 22 49  1  0  0  0
 50 23  1  0  0  0
 24 23  2  0  0  0
 51 24  1  0  0  0
 24 25  1  0  0  0
 52 25  1  0  0  0
 25 26  2  0  0  0
 26 53  1  0  0  0
 27 28  2  0  0  0
 27 32  1  0  0  0
 54 28  1  0  0  0
 28 29  1  0  0  0
 29 55  1  0  0  0
 29 30  2  0  0  0
 31 30  1  0  0  0
 30 56  1  0  0  0
 32 31  2  0  0  0
 31 57  1  0  0  0
 58 32  1  0  0  0
M  END
$$$$
23946_ChemDiv_000A-0562.pdb
 OpenBabel06131021463D

 25 28  0  0  0  0  0  0  0  0999 V2000
   60.1360   45.1010   95.0360 N   0  0  0  0  0
   60.8290   45.7720   95.1820 C   0  0  0  0  0
   61.2590   46.0440   95.9890 C   0  0  0  0  0
   61.1070   45.6910   96.9750 C   0  0  0  0  0
   60.4800   45.0010   97.2490 O   0  0  0  0  0
   59.8510   44.4790   96.6850 C   0  0  0  0  0
   59.6980   44.5240   95.6930 C   0  0  0  0  0
   59.0070   43.9100   95.2700 C   0  0  0  0  0
   58.4880   43.2690   95.8500 C   0  0  0  0  0
   58.6380   43.2250   96.8160 C   0  0  0  0  0
   59.3120   43.8210   97.2410 C   0  0  0  0  0
   57.8040   42.6570   95.4550 Cl  0  0  0  0  0
   61.6300   46.0660   97.7340 C   0  0  0  0  0
   62.3260   46.7860   97.6590 C   0  0  0  0  0
   62.4640   47.1290   96.6520 C   0  0  0  0  0
   61.9790   46.7880   95.9110 C   0  0  0  0  0
   61.1420   46.2510   94.3780 C   0  0  0  0  0
   58.8260   43.9450   94.1840 H   0  0  0  0  0
   58.0620   42.5170   97.4320 H   0  0  0  0  0
   59.4760   43.7670   98.3290 H   0  0  0  0  0
   61.4290   45.6580   98.7370 H   0  0  0  0  0
   62.8880   47.1820   98.5200 H   0  0  0  0  0
   63.2090   47.9200   96.4680 H   0  0  0  0  0
   60.4470   46.9600   93.8170 H   0  0  0  0  0
   61.5450   45.8810   93.3780 H   0  0  0  0  0
  1  2  2  0  0  0
  1  7  1  0  0  0
 17  2  1  0  0  0
  2  3  1  0  0  0
 16  3  2  0  0  0
  3  4  1  0  0  0
  4  5  1  0  0  0
  4 13  2  0  0  0
  6  5  1  0  0  0
  7  6  2  0  0  0
  6 11  1  0  0  0
  8  7  1  0  0  0
 18  8  1  0  0  0
  8  9  2  0  0  0
 12  9  1  0  0  0
  9 10  1  0  0  0
 10 11  2  0  0  0
 10 19  1  0  0  0
 11 20  1  0  0  0
 14 13  1  0  0  0
 13 21  1  0  0  0
 15 14  2  0  0  0
 14 22  1  0  0  0
 16 15  1  0  0  0
 23 15  1  0  0  0
 17 16  1  0  0  0
 25 17  1  0  0  0
 24 17  1  0  0  0
M  END
$$$$
23947_ChemDiv_000A-0121.pdb
 OpenBabel06131021473D

 49 43  0  0  0  0  0  0  0  0999 V2000
   59.6590   44.5010   97.0500 C   0  0  0  0  0
   60.3510   44.1560   97.2000 C   0  0  0  0  0
   61.0970   43.8170   97.3910 C   0  0  0  0  0
   61.2490   44.4860   98.0900 C   0  0  0  0  0
   60.5730   45.2240   98.3010 N   0  0  0  0  0
   59.7960   45.1070   97.6820 C   0  0  0  0  0
   59.9070   45.9920   98.5470 C   0  0  0  0  0
   60.8910   43.0350   96.5550 C   0  0  0  0  0
   59.4340   43.7090   96.1920 C   0  0  0  0  0
   60.2250   43.7970   96.7950 C   0  0  0  0  0
   60.4590   44.6320   97.6960 C   0  0  0  0  0
   58.8230   44.8980   96.8510 C   0  0  0  0  0
   61.2250   45.5460   99.0210 C   0  0  0  0  0
   61.4420   46.5550   99.0970 C   0  0  0  0  0
   62.3370   46.8200   99.5520 C   0  0  0  0  0
   62.7860   47.7340   99.2790 N   0  0  0  0  0
   63.2280   47.2700   98.4740 C   0  0  0  0  0
   63.2190   48.6300   99.0220 C   0  0  0  0  0
   62.3200   48.1810  100.1110 C   0  0  0  0  0
   58.7590   43.8290   97.2460 H   0  0  0  0  0
   59.4180   44.8400   95.9890 H   0  0  0  0  0
   60.1740   43.3760   96.3870 H   0  0  0  0  0
   61.8540   43.8620   96.5400 H   0  0  0  0  0
   61.1640   42.7080   97.6470 H   0  0  0  0  0
   59.1010   45.9320   99.3510 H   0  0  0  0  0
   59.8050   47.0760   98.2100 H   0  0  0  0  0
   61.8090   43.1060   97.2270 H   0  0  0  0  0
   61.1970   43.1090   95.4590 H   0  0  0  0  0
   60.3830   42.0280   96.7200 H   0  0  0  0  0
   58.8450   42.7430   96.3300 H   0  0  0  0  0
   59.5640   43.6720   95.0600 H   0  0  0  0  0
   59.9070   43.7220   97.8870 H   0  0  0  0  0
   60.7200   44.8140   96.6530 H   0  0  0  0  0
   58.7860   44.7320   97.9780 H   0  0  0  0  0
   57.7730   45.0790   96.4450 H   0  0  0  0  0
   59.4590   45.8180   96.6280 H   0  0  0  0  0
   60.5850   47.0770   99.6380 H   0  0  0  0  0
   61.5700   46.8930   98.0160 H   0  0  0  0  0
   63.0910   45.9800   99.3930 H   0  0  0  0  0
   62.0430   46.9830  100.6410 H   0  0  0  0  0
   63.8530   48.0270   97.8950 H   0  0  0  0  0
   62.4330   46.8140   97.7960 H   0  0  0  0  0
   63.9050   46.4330   98.8490 H   0  0  0  0  0
   63.8490   48.4930   98.0820 H   0  0  0  0  0
   63.8660   49.0150   99.8780 H   0  0  0  0  0
   62.4010   49.3960   98.8160 H   0  0  0  0  0
   62.5980   49.2860  100.1550 H   0  0  0  0  0
   62.6390   47.6560  101.0710 H   0  0  0  0  0
   61.1890   48.0830  100.0050 H   0  0  0  0  0
  1  2  1  0  0  0
  1  6  1  0  0  0
  2  3  1  0  0  0
  2 11  1  0  0  0
  2 32  1  0  0  0
 27  3  1  0  0  0
  3  4  1  0  0  0
 11  4  1  0  0  0
  4  5  1  0  0  0
  4 13  1  0  0  0
  6  5  1  0  0  0
 11  5  1  0  0  0
  5 13  1  0  0  0
  6 11  1  0  0  0
  6 34  1  0  0  0
 26  7  1  0  0  0
  7 13  1  0  0  0
  7 25  1  0  0  0
 22  8  1  0  0  0
 33 10  1  0  0  0
 10 20  1  0  0  0
 21 12  1  0  0  0
 35 12  1  0  0  0
 36 12  1  0  0  0
 13 14  1  0  0  0
 38 14  1  0  0  0
 14 15  1  0  0  0
 14 37  1  0  0  0
 16 15  1  0  0  0
 39 15  1  0  0  0
 15 40  1  0  0  0
 17 16  1  0  0  0
 18 16  1  0  0  0
 16 19  1  0  0  0
 42 17  1  0  0  0
 41 17  1  0  0  0
 17 43  1  0  0  0
 44 18  1  0  0  0
 46 18  1  0  0  0
 18 45  1  0  0  0
 49 19  1  0  0  0
 19 47  1  0  0  0
 19 48  1  0  0  0
M  END
$$$$
23947_ChemDiv_000A-0121.pdb
 OpenBabel06131021473D

 49 43  0  0  0  0  0  0  0  0999 V2000
   59.6220   44.4560   97.0760 C   0  0  0  0  0
   60.3430   44.1540   97.1700 C   0  0  0  0  0
   61.1190   43.8570   97.3050 C   0  0  0  0  0
   61.2320   44.4390   98.0840 C   0  0  0  0  0
   60.5030   45.0830   98.4010 N   0  0  0  0  0
   59.7240   44.9830   97.7820 C   0  0  0  0  0
   59.7830   45.7530   98.7540 C   0  0  0  0  0
   60.9580   43.1770   96.3750 C   0  0  0  0  0
   59.4420   43.7670   96.1240 C   0  0  0  0  0
   60.2370   43.8420   96.7230 C   0  0  0  0  0
   60.4240   44.5680   97.7240 C   0  0  0  0  0
   58.7520   44.8040   96.9420 C   0  0  0  0  0
   61.1430   45.3610   99.1480 C   0  0  0  0  0
   61.2780   46.3660   99.3560 C   0  0  0  0  0
   62.1040   46.6320   99.9260 C   0  0  0  0  0
   62.4170   47.6380   99.9140 N   0  0  0  0  0
   62.6650   47.5440   98.9200 C   0  0  0  0  0
   62.7200   48.6210   99.9140 C   0  0  0  0  0
   62.1550   47.7040  100.9310 C   0  0  0  0  0
   58.7850   43.6910   97.1920 H   0  0  0  0  0
   59.3290   44.9110   96.0720 H   0  0  0  0  0
   60.2100   43.4760   96.2630 H   0  0  0  0  0
   61.8490   44.0770   96.4570 H   0  0  0  0  0
   61.2830   42.7340   97.4120 H   0  0  0  0  0
   59.0040   45.5220   99.5530 H   0  0  0  0  0
   59.5850   46.8600   98.5650 H   0  0  0  0  0
   61.8830   43.2370   97.0390 H   0  0  0  0  0
   61.2310   43.4200   95.2950 H   0  0  0  0  0
   60.5390   42.1170   96.4110 H   0  0  0  0  0
   58.9380   42.7450   96.1410 H   0  0  0  0  0
   59.5480   43.8890   94.9950 H   0  0  0  0  0
   59.9520   43.5970   97.7990 H   0  0  0  0  0
   60.6420   44.9070   96.7120 H   0  0  0  0  0
   58.7560   44.4890   98.0380 H   0  0  0  0  0
   57.6820   44.9470   96.5770 H   0  0  0  0  0
   59.3050   45.7950   96.8350 H   0  0  0  0  0
   60.3380   46.7670   99.8600 H   0  0  0  0  0
   61.4840   46.8340   98.3370 H   0  0  0  0  0
   62.9830   45.9720   99.6260 H   0  0  0  0  0
   61.7490   46.4770  100.9980 H   0  0  0  0  0
   63.0470   48.5440   98.5270 H   0  0  0  0  0
   61.7590   47.2030   98.3180 H   0  0  0  0  0
   63.4860   46.7600   98.8110 H   0  0  0  0  0
   63.0950   48.9030   98.8750 H   0  0  0  0  0
   63.5420   48.7810  100.6880 H   0  0  0  0  0
   61.8350   49.2860  100.1860 H   0  0  0  0  0
   62.3730   48.7560  101.3130 H   0  0  0  0  0
   62.7370   46.9350  101.5390 H   0  0  0  0  0
   61.0420   47.4870  101.0460 H   0  0  0  0  0
  1  2  1  0  0  0
  1  6  1  0  0  0
  2  3  1  0  0  0
  2 11  1  0  0  0
  2 32  1  0  0  0
 27  3  1  0  0  0
  3  4  1  0  0  0
 11  4  1  0  0  0
  4  5  1  0  0  0
  4 13  1  0  0  0
 11  5  1  0  0  0
  6  5  1  0  0  0
  5 13  1  0  0  0
 11  6  1  0  0  0
  6 34  1  0  0  0
 26  7  1  0  0  0
  7 13  1  0  0  0
  7 25  1  0  0  0
 22  8  1  0  0  0
 33 10  1  0  0  0
 10 20  1  0  0  0
 21 12  1  0  0  0
 35 12  1  0  0  0
 36 12  1  0  0  0
 13 14  1  0  0  0
 38 14  1  0  0  0
 14 37  1  0  0  0
 14 15  1  0  0  0
 39 15  1  0  0  0
 16 15  1  0  0  0
 15 40  1  0  0  0
 17 16  1  0  0  0
 18 16  1  0  0  0
 16 19  1  0  0  0
 42 17  1  0  0  0
 41 17  1  0  0  0
 43 17  1  0  0  0
 44 18  1  0  0  0
 18 46  1  0  0  0
 18 45  1  0  0  0
 19 49  1  0  0  0
 19 47  1  0  0  0
 19 48  1  0  0  0
M  END
$$$$
23948_ChemDiv_000A-0564.pdb
 OpenBabel06131021473D

 39 41  0  0  0  0  0  0  0  0999 V2000
   62.6160   48.4620   99.8380 C   0  0  0  0  0
   62.0220   47.8020   99.3610 C   0  0  0  0  0
   62.1890   46.8190   99.4770 N   0  0  0  0  0
   61.6800   46.1660   98.9300 S   0  0  0  0  0
   60.9770   46.1430   99.6260 O   0  0  0  0  0
   62.4190   46.1990   98.2140 O   0  0  0  0  0
   61.1810   45.4980   98.3500 C   0  0  0  0  0
   61.5430   44.5850   98.2840 C   0  0  0  0  0
   61.0820   43.8980   97.7240 C   0  0  0  0  0
   60.2220   44.1320   97.2070 C   0  0  0  0  0
   59.8740   45.0990   97.3020 C   0  0  0  0  0
   59.7810   43.4420   96.6600 C   0  0  0  0  0
   60.3440   45.7480   97.8560 C   0  0  0  0  0
   62.9060   49.3040   99.3560 N   0  0  0  0  0
   63.5370   49.9330   99.7760 C   0  0  0  0  0
   63.8880   49.7090  100.7110 O   0  0  0  0  0
   63.8210   50.7570   99.3050 C   0  0  0  0  0
   63.4380   51.6810   99.2780 C   0  0  0  0  0
   64.0010   52.2280   98.6980 S   0  0  0  0  0
   64.7420   51.6680   98.3510 N   0  0  0  0  0
   64.6290   50.7470   98.7310 C   0  0  0  0  0
   62.6150   52.0040   99.7590 S   0  0  0  0  0
   62.6660   52.3730  100.6770 C   0  0  0  0  0
   65.2140   49.9840   98.5630 S   0  0  0  0  0
   66.1260   49.9730   98.9810 C   0  0  0  0  0
   62.9460   48.2700  100.8710 H   0  0  0  0  0
   60.9390   48.0210   99.6400 H   0  0  0  0  0
   62.2780   47.9760   98.2640 H   0  0  0  0  0
   62.4620   44.3190   98.8310 H   0  0  0  0  0
   61.4970   42.8800   97.6590 H   0  0  0  0  0
   58.9580   45.4010   96.7700 H   0  0  0  0  0
   58.8520   43.8830   96.1670 H   0  0  0  0  0
   59.4970   42.5470   97.3070 H   0  0  0  0  0
   60.5020   43.0880   95.8510 H   0  0  0  0  0
   59.9500   46.7730   97.9420 H   0  0  0  0  0
   61.7510   52.7200  101.1830 H   0  0  0  0  0
   63.6380   52.4360  101.1920 H   0  0  0  0  0
   66.8020   49.1220   98.8050 H   0  0  0  0  0
   66.4510   50.8120   99.6160 H   0  0  0  0  0
 14  1  2  0  0  0
  2  1  1  0  0  0
  1 26  1  0  0  0
 28  2  1  0  0  0
  2  3  1  0  0  0
  2 27  1  0  0  0
  4  3  1  0  0  0
  3  5  1  0  0  0
  6  4  2  0  0  0
  7  4  1  0  0  0
  4  5  1  0  0  0
 13  7  2  0  0  0
  8  7  1  0  0  0
  9  8  2  0  0  0
  8 29  1  0  0  0
 10  9  1  0  0  0
 30  9  1  0  0  0
 12 10  1  0  0  0
 10 11  2  0  0  0
 31 11  1  0  0  0
 11 13  1  0  0  0
 34 12  1  0  0  0
 32 12  1  0  0  0
 12 33  1  0  0  0
 13 35  1  0  0  0
 14 15  1  0  0  0
 17 15  1  0  0  0
 15 16  2  0  0  0
 21 17  1  0  0  0
 18 17  2  0  0  0
 19 18  1  0  0  0
 18 22  1  0  0  0
 20 19  1  0  0  0
 20 21  2  0  0  0
 24 21  1  0  0  0
 22 23  2  0  0  0
 23 36  1  0  0  0
 23 37  1  0  0  0
 24 25  2  0  0  0
 38 25  1  0  0  0
 25 39  1  0  0  0
M  END
$$$$
23948_ChemDiv_000A-0564.pdb
 OpenBabel06131021473D

 39 41  0  0  0  0  0  0  0  0999 V2000
   61.7780   47.2140   98.1040 C   0  0  0  0  0
   61.5490   48.1390   98.4310 C   0  0  0  0  0
   62.0770   48.5360   99.1870 N   0  0  0  0  0
   62.0400   49.5140   99.3530 S   0  0  0  0  0
   61.2330   49.3810   99.9100 O   0  0  0  0  0
   62.8810   49.6370   98.7710 O   0  0  0  0  0
   62.0270   50.5180   99.5060 C   0  0  0  0  0
   62.5800   50.8790  100.2360 C   0  0  0  0  0
   62.5950   51.8610  100.4190 C   0  0  0  0  0
   62.0350   52.5110   99.8500 C   0  0  0  0  0
   61.4680   52.0940   99.0940 C   0  0  0  0  0
   62.0610   53.4760  100.0450 C   0  0  0  0  0
   61.4730   51.1330   98.9380 C   0  0  0  0  0
   61.3070   46.8490   97.2850 N   0  0  0  0  0
   61.5840   45.9940   96.8830 C   0  0  0  0  0
   62.3600   45.4880   97.3180 O   0  0  0  0  0
   61.1240   45.6370   96.0810 C   0  0  0  0  0
   61.2400   45.8170   95.1040 C   0  0  0  0  0
   60.5970   45.2700   94.6150 S   0  0  0  0  0
   60.0680   44.7400   95.2640 N   0  0  0  0  0
   60.3980   44.9690   96.1830 C   0  0  0  0  0
   61.9010   46.4500   94.6850 S   0  0  0  0  0
   62.8060   46.1500   94.4200 C   0  0  0  0  0
   60.0610   44.5990   97.0200 S   0  0  0  0  0
   59.1650   44.9020   97.3560 C   0  0  0  0  0
   62.5310   46.6070   98.6310 H   0  0  0  0  0
   60.7290   48.7080   97.9650 H   0  0  0  0  0
   63.1850   50.1970  100.8540 H   0  0  0  0  0
   63.2180   52.2530  101.2390 H   0  0  0  0  0
   60.8500   52.7450   98.4560 H   0  0  0  0  0
   61.3820   54.0300   99.3160 H   0  0  0  0  0
   63.1290   53.8660   99.9640 H   0  0  0  0  0
   61.6920   53.6530  101.1090 H   0  0  0  0  0
   60.8600   50.7130   98.1240 H   0  0  0  0  0
   60.4890   47.4060   96.8460 H   0  0  0  0  0
   63.5110   46.8630   93.9630 H   0  0  0  0  0
   63.1090   45.1030   94.5820 H   0  0  0  0  0
   58.7650   44.4970   98.2990 H   0  0  0  0  0
   58.5820   45.6390   96.7820 H   0  0  0  0  0
 14  1  2  0  0  0
  1  2  1  0  0  0
  1 26  1  0  0  0
 27  2  1  0  0  0
  2  3  1  0  0  0
  3  4  1  0  0  0
  3  5  1  0  0  0
  6  4  2  0  0  0
  4  7  1  0  0  0
  4  5  1  0  0  0
 13  7  2  0  0  0
  7  8  1  0  0  0
  8  9  2  0  0  0
  8 28  1  0  0  0
 10  9  1  0  0  0
  9 29  1  0  0  0
 11 10  2  0  0  0
 10 12  1  0  0  0
 30 11  1  0  0  0
 13 11  1  0  0  0
 31 12  1  0  0  0
 32 12  1  0  0  0
 12 33  1  0  0  0
 34 13  1  0  0  0
 35 14  1  0  0  0
 15 14  1  0  0  0
 17 15  1  0  0  0
 15 16  2  0  0  0
 18 17  2  0  0  0
 17 21  1  0  0  0
 19 18  1  0  0  0
 22 18  1  0  0  0
 19 20  1  0  0  0
 20 21  2  0  0  0
 21 24  1  0  0  0
 23 22  2  0  0  0
 36 23  1  0  0  0
 23 37  1  0  0  0
 24 25  2  0  0  0
 39 25  1  0  0  0
 25 38  1  0  0  0
M  END
$$$$
23953_ChemDiv_8015-5068.pdb
 OpenBabel06131021473D

 23 25  0  0  0  0  0  0  0  0999 V2000
   60.2440   45.0480   97.8270 N   0  0  0  0  0
   60.8540   44.2880   97.6190 C   0  0  0  0  0
   61.6320   44.3340   98.2330 N   0  0  0  0  0
   61.5030   45.1200   98.8180 C   0  0  0  0  0
   60.6400   45.5710   98.5710 C   0  0  0  0  0
   60.3400   46.3930   99.0620 C   0  0  0  0  0
   60.9020   46.7720   99.8040 C   0  0  0  0  0
   61.7660   46.3300  100.0590 C   0  0  0  0  0
   62.0720   45.5020   99.5690 C   0  0  0  0  0
   62.3140   46.7110  100.7930 N   0  0  0  0  0
   60.6200   43.6440   96.8890 C   0  0  0  0  0
   59.7720   43.7620   96.3650 C   0  0  0  0  0
   59.1620   44.5220   96.5730 C   0  0  0  0  0
   59.3980   45.1670   97.3050 C   0  0  0  0  0
   59.3920   46.8810   98.7870 H   0  0  0  0  0
   60.5690   47.6750  100.3390 H   0  0  0  0  0
   63.0190   45.0140   99.8470 H   0  0  0  0  0
   63.2470   46.2390  101.0730 H   0  0  0  0  0
   61.9790   47.5990  101.3140 H   0  0  0  0  0
   61.2950   42.8040   96.6600 H   0  0  0  0  0
   59.5160   43.0530   95.5620 H   0  0  0  0  0
   58.2300   44.6540   96.0010 H   0  0  0  0  0
   58.7250   46.0080   97.5350 H   0  0  0  0  0
 14  1  1  0  0  0
  2  1  1  0  0  0
  1  5  1  0  0  0
 11  2  1  0  0  0
  2  3  2  0  0  0
  3  4  1  0  0  0
  5  4  2  0  0  0
  4  9  1  0  0  0
  5  6  1  0  0  0
 15  6  1  0  0  0
  6  7  2  0  0  0
  7  8  1  0  0  0
  7 16  1  0  0  0
  9  8  2  0  0  0
  8 10  1  0  0  0
  9 17  1  0  0  0
 10 18  1  0  0  0
 10 19  1  0  0  0
 12 11  2  0  0  0
 20 11  1  0  0  0
 21 12  1  0  0  0
 12 13  1  0  0  0
 22 13  1  0  0  0
 13 14  2  0  0  0
 14 23  1  0  0  0
M  END
$$$$
23953_ChemDiv_8015-5068.pdb
 OpenBabel06131021473D

 23 25  0  0  0  0  0  0  0  0999 V2000
   60.2130   45.0310   97.8380 N   0  0  0  0  0
   60.7870   44.2370   97.6600 C   0  0  0  0  0
   61.5540   44.2580   98.2900 N   0  0  0  0  0
   61.4530   45.0620   98.8550 C   0  0  0  0  0
   60.6190   45.5500   98.5790 C   0  0  0  0  0
   60.3510   46.3980   99.0450 C   0  0  0  0  0
   60.9150   46.7640   99.7920 C   0  0  0  0  0
   61.7500   46.2850  100.0750 C   0  0  0  0  0
   62.0250   45.4320   99.6100 C   0  0  0  0  0
   62.3020   46.6550  100.8130 N   0  0  0  0  0
   60.5370   43.5900   96.9390 C   0  0  0  0  0
   59.7060   43.7380   96.3940 C   0  0  0  0  0
   59.1320   44.5320   96.5720 C   0  0  0  0  0
   59.3850   45.1810   97.2950 C   0  0  0  0  0
   59.4360   46.9290   98.7370 H   0  0  0  0  0
   60.6160   47.6940  100.3010 H   0  0  0  0  0
   62.9410   44.9040   99.9190 H   0  0  0  0  0
   63.2040   46.1430  101.1230 H   0  0  0  0  0
   62.0020   47.5700  101.3070 H   0  0  0  0  0
   61.1740   42.7130   96.7420 H   0  0  0  0  0
   59.4310   43.0240   95.6020 H   0  0  0  0  0
   58.2200   44.6980   95.9760 H   0  0  0  0  0
   58.7510   46.0600   97.4910 H   0  0  0  0  0
 14  1  1  0  0  0
  2  1  1  0  0  0
  1  5  1  0  0  0
 11  2  1  0  0  0
  2  3  2  0  0  0
  3  4  1  0  0  0
  5  4  2  0  0  0
  4  9  1  0  0  0
  5  6  1  0  0  0
 15  6  1  0  0  0
  6  7  2  0  0  0
  7  8  1  0  0  0
  7 16  1  0  0  0
  9  8  2  0  0  0
  8 10  1  0  0  0
  9 17  1  0  0  0
 10 18  1  0  0  0
 10 19  1  0  0  0
 12 11  2  0  0  0
 20 11  1  0  0  0
 21 12  1  0  0  0
 12 13  1  0  0  0
 22 13  1  0  0  0
 13 14  2  0  0  0
 14 23  1  0  0  0
M  END
$$$$
23955_ChemDiv_8016-9345.pdb
 OpenBabel06131021473D

 31 35  0  0  0  0  0  0  0  0999 V2000
   60.4620   45.3780   95.9730 N   0  0  0  0  0
   60.9720   45.5530   96.8220 C   0  0  0  0  0
   60.6520   44.9110   97.5130 N   0  0  0  0  0
   59.9380   44.3260   97.1070 C   0  0  0  0  0
   59.8220   44.6180   96.1510 C   0  0  0  0  0
   59.1480   44.1550   95.5630 C   0  0  0  0  0
   58.5940   43.4060   95.9260 C   0  0  0  0  0
   58.7140   43.1140   96.8910 C   0  0  0  0  0
   59.3840   43.5750   97.4740 C   0  0  0  0  0
   57.9220   42.9400   95.3500 Cl  0  0  0  0  0
   61.6540   46.2730   96.8390 C   0  0  0  0  0
   61.8270   46.8160   96.0150 C   0  0  0  0  0
   61.3220   46.6370   95.1900 C   0  0  0  0  0
   60.6390   45.9180   95.1690 C   0  0  0  0  0
   60.1310   45.7400   94.3310 O   0  0  0  0  0
   61.4950   47.1800   94.3660 C   0  0  0  0  0
   62.1830   47.9050   94.3870 C   0  0  0  0  0
   62.6950   48.0830   95.2320 C   0  0  0  0  0
   62.5150   47.5410   96.0360 C   0  0  0  0  0
   63.0270   47.7200   96.8810 C   0  0  0  0  0
   62.8500   47.1750   97.6970 C   0  0  0  0  0
   62.1610   46.4500   97.6750 C   0  0  0  0  0
   59.0210   44.4750   94.5170 H   0  0  0  0  0
   58.1060   42.2890   97.2960 H   0  0  0  0  0
   59.5130   43.2570   98.5210 H   0  0  0  0  0
   60.9300   46.9790   93.4420 H   0  0  0  0  0
   62.3790   48.5070   93.4850 H   0  0  0  0  0
   63.4550   48.8800   95.2610 H   0  0  0  0  0
   63.7850   48.5190   96.9070 H   0  0  0  0  0
   63.4130   47.3710   98.6230 H   0  0  0  0  0
   61.9650   45.8490   98.5770 H   0  0  0  0  0
 14  1  1  0  0  0
  1  5  1  0  0  0
  1  2  1  0  0  0
  2 11  1  0  0  0
  2  3  2  0  0  0
  4  3  1  0  0  0
  5  4  1  0  0  0
  4  9  2  0  0  0
  6  5  2  0  0  0
 23  6  1  0  0  0
  6  7  1  0  0  0
 10  7  1  0  0  0
  7  8  2  0  0  0
  8 24  1  0  0  0
  8  9  1  0  0  0
  9 25  1  0  0  0
 12 11  2  0  0  0
 11 22  1  0  0  0
 13 12  1  0  0  0
 12 19  1  0  0  0
 16 13  2  0  0  0
 14 13  1  0  0  0
 15 14  2  0  0  0
 26 16  1  0  0  0
 16 17  1  0  0  0
 27 17  1  0  0  0
 17 18  2  0  0  0
 18 28  1  0  0  0
 18 19  1  0  0  0
 19 20  2  0  0  0
 20 29  1  0  0  0
 20 21  1  0  0  0
 22 21  2  0  0  0
 21 30  1  0  0  0
 22 31  1  0  0  0
M  END
$$$$
23956_ChemDiv_6840-0066.pdb
 OpenBabel06131021473D

 34 38  0  0  0  0  0  0  0  0999 V2000
   61.3810   44.4900   97.9430 N   0  0  0  0  0
   60.6030   44.3710   97.4170 C   0  0  0  0  0
   59.8680   44.9740   97.4990 C   0  0  0  0  0
   60.6870   45.8180   98.6370 C   0  0  0  0  0
   61.4220   45.2150   98.5550 C   0  0  0  0  0
   62.2120   45.3470   99.0990 C   0  0  0  0  0
   62.2500   46.0680   99.7060 C   0  0  0  0  0
   61.5150   46.6710   99.7880 C   0  0  0  0  0
   60.7420   46.5520   99.2640 C   0  0  0  0  0
   59.0820   44.8420   96.9570 C   0  0  0  0  0
   59.0310   44.1120   96.3370 C   0  0  0  0  0
   59.7660   43.5100   96.2550 C   0  0  0  0  0
   60.5520   43.6370   96.7930 C   0  0  0  0  0
   61.5500   47.4020  100.4010 C   0  0  0  0  0
   61.2180   47.2670  101.3480 N   0  0  0  0  0
   61.2600   48.0300  101.9950 C   0  0  0  0  0
   61.6230   48.9090  101.7140 N   0  0  0  0  0
   60.9280   47.8950  102.9410 O   0  0  0  0  0
   61.9480   49.0370  100.7830 C   0  0  0  0  0
   61.6580   49.6650  102.3770 C   0  0  0  0  0
   62.3170   49.9320  100.4980 C   0  0  0  0  0
   62.3540   50.6830  101.1490 O   0  0  0  0  0
   62.0270   50.5600  102.0910 C   0  0  0  0  0
   62.2150   43.8070   97.8480 H   0  0  0  0  0
   63.0650   44.6560   99.0090 H   0  0  0  0  0
   63.1490   46.2150  100.3250 H   0  0  0  0  0
   59.8970   47.2510   99.3660 H   0  0  0  0  0
   58.2330   45.5370   97.0510 H   0  0  0  0  0
   58.1280   43.9700   95.7230 H   0  0  0  0  0
   59.7140   42.6700   95.5440 H   0  0  0  0  0
   61.4000   42.9400   96.6970 H   0  0  0  0  0
   61.2960   49.5170  103.4070 H   0  0  0  0  0
   62.6780   50.0770   99.4680 H   0  0  0  0  0
   62.0710   51.3960  102.8070 H   0  0  0  0  0
  2  1  1  0  0  0
 24  1  1  0  0  0
  1  5  1  0  0  0
 13  2  2  0  0  0
  2  3  1  0  0  0
 10  3  2  0  0  0
  3  4  1  0  0  0
  5  4  2  0  0  0
  4  9  1  0  0  0
  5  6  1  0  0  0
 25  6  1  0  0  0
  6  7  2  0  0  0
  7  8  1  0  0  0
  7 26  1  0  0  0
  9  8  2  0  0  0
  8 14  1  0  0  0
  9 27  1  0  0  0
 11 10  1  0  0  0
 10 28  1  0  0  0
 29 11  1  0  0  0
 12 11  2  0  0  0
 30 12  1  0  0  0
 12 13  1  0  0  0
 31 13  1  0  0  0
 14 19  1  0  0  0
 14 15  2  0  0  0
 15 16  1  0  0  0
 17 16  1  0  0  0
 16 18  2  0  0  0
 19 17  2  0  0  0
 17 20  1  0  0  0
 21 19  1  0  0  0
 23 20  2  0  0  0
 20 32  1  0  0  0
 33 21  1  0  0  0
 21 22  2  0  0  0
 22 23  1  0  0  0
 23 34  1  0  0  0
M  END
$$$$
23956_ChemDiv_6840-0066.pdb
 OpenBabel06131021473D

 34 38  0  0  0  0  0  0  0  0999 V2000
   61.3720   44.5120   97.9130 N   0  0  0  0  0
   60.5900   44.3930   97.3920 C   0  0  0  0  0
   59.8510   44.9880   97.4870 C   0  0  0  0  0
   60.6740   45.8260   98.6270 C   0  0  0  0  0
   61.4130   45.2300   98.5320 C   0  0  0  0  0
   62.2070   45.3620   99.0700 C   0  0  0  0  0
   62.2450   46.0780   99.6850 C   0  0  0  0  0
   61.5060   46.6730   99.7800 C   0  0  0  0  0
   60.7290   46.5540   99.2620 C   0  0  0  0  0
   59.0610   44.8560   96.9510 C   0  0  0  0  0
   59.0110   44.1330   96.3230 C   0  0  0  0  0
   59.7500   43.5370   96.2280 C   0  0  0  0  0
   60.5390   43.6640   96.7600 C   0  0  0  0  0
   61.5410   47.3980  100.4010 C   0  0  0  0  0
   61.2010   47.2560  101.3440 N   0  0  0  0  0
   61.2430   48.0120  101.9990 C   0  0  0  0  0
   61.6130   48.8910  101.7300 N   0  0  0  0  0
   60.9030   47.8690  102.9410 O   0  0  0  0  0
   61.9460   49.0270  100.8030 C   0  0  0  0  0
   61.6480   49.6400  102.4000 C   0  0  0  0  0
   62.3220   49.9220  100.5290 C   0  0  0  0  0
   62.3590   50.6650  101.1880 O   0  0  0  0  0
   62.0250   50.5350  102.1270 C   0  0  0  0  0
   62.2100   43.8360   97.8030 H   0  0  0  0  0
   63.0640   44.6790   98.9650 H   0  0  0  0  0
   63.1490   46.2270  100.2960 H   0  0  0  0  0
   59.8800   47.2460   99.3790 H   0  0  0  0  0
   58.2070   45.5430   97.0610 H   0  0  0  0  0
   58.1040   43.9910   95.7140 H   0  0  0  0  0
   59.6980   42.7040   95.5090 H   0  0  0  0  0
   61.3910   42.9750   96.6490 H   0  0  0  0  0
   61.2770   49.4840  103.4250 H   0  0  0  0  0
   62.6910   50.0750   99.5020 H   0  0  0  0  0
   62.0700   51.3630  102.8520 H   0  0  0  0  0
  2  1  1  0  0  0
 24  1  1  0  0  0
  1  5  1  0  0  0
 13  2  2  0  0  0
  2  3  1  0  0  0
 10  3  2  0  0  0
  3  4  1  0  0  0
  5  4  2  0  0  0
  4  9  1  0  0  0
  5  6  1  0  0  0
 25  6  1  0  0  0
  6  7  2  0  0  0
  7  8  1  0  0  0
  7 26  1  0  0  0
  9  8  2  0  0  0
  8 14  1  0  0  0
  9 27  1  0  0  0
 11 10  1  0  0  0
 10 28  1  0  0  0
 29 11  1  0  0  0
 12 11  2  0  0  0
 30 12  1  0  0  0
 12 13  1  0  0  0
 31 13  1  0  0  0
 14 19  1  0  0  0
 14 15  2  0  0  0
 15 16  1  0  0  0
 17 16  1  0  0  0
 16 18  2  0  0  0
 19 17  2  0  0  0
 17 20  1  0  0  0
 21 19  1  0  0  0
 23 20  2  0  0  0
 20 32  1  0  0  0
 33 21  1  0  0  0
 21 22  2  0  0  0
 22 23  1  0  0  0
 23 34  1  0  0  0
M  END
$$$$
23957_ChemDiv_000A-0199.pdb
 OpenBabel06131021473D

 35 37  0  0  0  0  0  0  0  0999 V2000
   61.4390   45.5050   96.0390 N   0  0  0  0  0
   61.1620   45.1480   96.9350 C   0  0  0  0  0
   61.4950   45.5630   97.7770 N   0  0  0  0  0
   62.1130   46.3450   97.7060 C   0  0  0  0  0
   62.3900   46.7020   96.8090 C   0  0  0  0  0
   62.0490   46.2770   95.9840 C   0  0  0  0  0
   63.0040   47.4800   96.7580 C   0  0  0  0  0
   63.3450   47.9050   97.5840 C   0  0  0  0  0
   63.0690   47.5480   98.4800 C   0  0  0  0  0
   62.4510   46.7660   98.5510 C   0  0  0  0  0
   63.9720   48.6980   97.5140 Br  0  0  0  0  0
   60.5230   44.3390   96.9890 O   0  0  0  0  0
   62.3300   46.6400   95.0720 C   0  0  0  0  0
   61.8080   47.3600   94.6610 C   0  0  0  0  0
   62.0880   47.7210   93.7530 C   0  0  0  0  0
   62.8740   47.3430   93.3080 C   0  0  0  0  0
   63.4000   46.6210   93.7190 C   0  0  0  0  0
   63.1190   46.2590   94.6270 C   0  0  0  0  0
   61.0840   45.0620   95.1740 C   0  0  0  0  0
   60.1480   45.1790   94.8950 C   0  0  0  0  0
   59.5470   44.3960   94.9010 O   0  0  0  0  0
   59.7940   46.0830   94.6050 O   0  0  0  0  0
   61.1950   45.1770   98.7430 H   0  0  0  0  0
   61.7130   45.6740   96.8910 H   0  0  0  0  0
   63.3080   47.8730   95.7750 H   0  0  0  0  0
   63.4520   48.0240   99.3970 H   0  0  0  0  0
   62.1480   46.3750   99.5350 H   0  0  0  0  0
   60.9270   47.7740   95.1770 H   0  0  0  0  0
   61.5130   48.5290   93.2740 H   0  0  0  0  0
   63.1760   47.7360   92.3240 H   0  0  0  0  0
   64.2820   46.2100   93.2030 H   0  0  0  0  0
   63.6920   45.4490   95.1060 H   0  0  0  0  0
   61.7570   45.3760   94.3090 H   0  0  0  0  0
   61.1080   43.9560   95.4510 H   0  0  0  0  0
   58.5320   44.5030   94.6030 H   0  0  0  0  0
 19  1  1  0  0  0
  6  1  1  0  0  0
  1  2  1  0  0  0
 24  2  1  0  0  0
  2 12  1  0  0  0
  2  3  1  0  0  0
  4  3  1  0  0  0
  3 23  1  0  0  0
  5  4  2  0  0  0
  4 10  1  0  0  0
  6  5  1  0  0  0
  7  5  1  0  0  0
 13  6  1  0  0  0
 25  7  1  0  0  0
  7  8  2  0  0  0
 11  8  1  0  0  0
  8  9  1  0  0  0
  9 10  2  0  0  0
  9 26  1  0  0  0
 10 27  1  0  0  0
 18 13  2  0  0  0
 14 13  1  0  0  0
 15 14  2  0  0  0
 14 28  1  0  0  0
 29 15  1  0  0  0
 16 15  1  0  0  0
 30 16  1  0  0  0
 16 17  2  0  0  0
 31 17  1  0  0  0
 17 18  1  0  0  0
 18 32  1  0  0  0
 33 19  1  0  0  0
 20 19  1  0  0  0
 19 34  1  0  0  0
 22 20  2  0  0  0
 20 21  1  0  0  0
 35 21  1  0  0  0
M  END
$$$$
23957_ChemDiv_000A-0199.pdb
 OpenBabel06131021473D

 35 37  0  0  0  0  0  0  0  0999 V2000
   62.2290   46.5910   97.1000 N   0  0  0  0  0
   62.0740   46.5180   98.0890 C   0  0  0  0  0
   61.3390   45.9520   98.4510 N   0  0  0  0  0
   60.7580   45.4600   97.8040 C   0  0  0  0  0
   60.9140   45.5330   96.8150 C   0  0  0  0  0
   61.6490   46.0990   96.4730 C   0  0  0  0  0
   60.3260   45.0360   96.1870 C   0  0  0  0  0
   59.5910   44.4700   96.5290 C   0  0  0  0  0
   59.4360   44.3960   97.5180 C   0  0  0  0  0
   60.0160   44.8890   98.1650 C   0  0  0  0  0
   59.0020   43.9690   95.8750 Br  0  0  0  0  0
   62.6830   47.0340   98.7430 O   0  0  0  0  0
   61.8060   46.1740   95.4670 C   0  0  0  0  0
   62.4310   45.5570   95.0330 C   0  0  0  0  0
   62.5880   45.6320   94.0310 C   0  0  0  0  0
   62.1110   46.3190   93.5210 C   0  0  0  0  0
   61.4850   46.9390   93.9550 C   0  0  0  0  0
   61.3270   46.8640   94.9570 C   0  0  0  0  0
   62.9970   47.1830   96.7390 C   0  0  0  0  0
   62.9350   48.1630   96.7700 C   0  0  0  0  0
   63.6550   48.6730   97.2120 O   0  0  0  0  0
   62.1500   48.6540   96.3590 O   0  0  0  0  0
   61.1740   45.8720   99.5180 H   0  0  0  0  0
   62.0300   46.0550   97.5460 H   0  0  0  0  0
   60.4940   45.1160   95.1010 H   0  0  0  0  0
   58.6160   43.7640   97.8940 H   0  0  0  0  0
   59.8450   44.8080   99.2500 H   0  0  0  0  0
   62.9580   44.7910   95.6240 H   0  0  0  0  0
   63.2870   44.9480   93.5250 H   0  0  0  0  0
   62.2810   46.3980   92.4360 H   0  0  0  0  0
   60.9600   47.7060   93.3640 H   0  0  0  0  0
   60.6280   47.5480   95.4640 H   0  0  0  0  0
   63.9630   46.8690   97.2560 H   0  0  0  0  0
   62.9400   46.9810   95.6180 H   0  0  0  0  0
   63.6050   49.7340   97.2550 H   0  0  0  0  0
  6  1  1  0  0  0
 19  1  1  0  0  0
  1  2  1  0  0  0
 24  2  1  0  0  0
  2  3  1  0  0  0
  2 12  1  0  0  0
  4  3  1  0  0  0
  3 23  1  0  0  0
  5  4  2  0  0  0
  4 10  1  0  0  0
  7  5  1  0  0  0
  6  5  1  0  0  0
 13  6  1  0  0  0
 25  7  1  0  0  0
  7  8  2  0  0  0
 11  8  1  0  0  0
  8  9  1  0  0  0
  9 26  1  0  0  0
  9 10  2  0  0  0
 10 27  1  0  0  0
 18 13  2  0  0  0
 14 13  1  0  0  0
 15 14  2  0  0  0
 14 28  1  0  0  0
 16 15  1  0  0  0
 29 15  1  0  0  0
 30 16  1  0  0  0
 16 17  2  0  0  0
 31 17  1  0  0  0
 17 18  1  0  0  0
 18 32  1  0  0  0
 34 19  1  0  0  0
 19 20  1  0  0  0
 19 33  1  0  0  0
 22 20  2  0  0  0
 20 21  1  0  0  0
 21 35  1  0  0  0
M  END
$$$$
23957_ChemDiv_000A-0199.pdb
 OpenBabel06131021483D

 35 36  0  0  0  0  0  0  0  0999 V2000
   61.2800   45.5440   96.2800 N   0  0  0  0  0
   60.9130   45.4560   97.2100 C   0  0  0  0  0
   61.1210   46.1340   97.9090 N   0  0  0  0  0
   61.7060   46.9060   97.6600 C   0  0  0  0  0
   62.0730   46.9930   96.7290 C   0  0  0  0  0
   61.8560   46.3100   96.0480 C   0  0  0  0  0
   62.6520   47.7670   96.5000 C   0  0  0  0  0
   62.8690   48.4510   97.1810 C   0  0  0  0  0
   62.5020   48.3630   98.1110 C   0  0  0  0  0
   61.9180   47.5920   98.3610 C   0  0  0  0  0
   63.4610   49.2330   96.9300 Br  0  0  0  0  0
   60.3120   44.6520   97.4500 O   0  0  0  0  0
   62.2290   46.3990   95.1020 C   0  0  0  0  0
   63.0770   45.9630   94.8790 C   0  0  0  0  0
   63.4490   46.0520   93.9360 C   0  0  0  0  0
   62.9510   46.5710   93.2720 C   0  0  0  0  0
   62.1000   47.0090   93.4940 C   0  0  0  0  0
   61.7280   46.9210   94.4370 C   0  0  0  0  0
   61.0550   44.8300   95.5660 C   0  0  0  0  0
   60.1560   44.7780   95.1720 C   0  0  0  0  0
   59.6350   43.9470   95.2810 O   0  0  0  0  0
   59.7590   45.5580   94.6610 O   0  0  0  0  0
   60.7240   46.0380   98.9120 H   0  0  0  0  0
   61.5600   45.8370   97.0420 H   0  0  0  0  0
   63.0560   47.8640   95.4800 H   0  0  0  0  0
   62.7460   49.1270   98.8660 H   0  0  0  0  0
   61.5160   47.4970   99.3820 H   0  0  0  0  0
   63.6220   45.3830   95.6400 H   0  0  0  0  0
   64.4020   45.5700   93.6650 H   0  0  0  0  0
   63.3540   46.6660   92.2510 H   0  0  0  0  0
   61.5550   47.5880   92.7320 H   0  0  0  0  0
   60.7760   47.4040   94.7090 H   0  0  0  0  0
   61.8120   44.9200   94.7190 H   0  0  0  0  0
   61.0990   43.8680   96.1760 H   0  0  0  0  0
   58.6600   43.8720   94.8620 H   0  0  0  0  0
 19  1  1  0  0  0
  6  1  1  0  0  0
  1  2  1  0  0  0
 24  2  1  0  0  0
  2 12  1  0  0  0
  2  3  1  0  0  0
  4  3  1  0  0  0
  5  4  2  0  0  0
  4 10  1  0  0  0
  6  5  1  0  0  0
  7  5  1  0  0  0
 13  6  1  0  0  0
 25  7  1  0  0  0
  7  8  2  0  0  0
 11  8  1  0  0  0
  8  9  1  0  0  0
  9 10  2  0  0  0
  9 26  1  0  0  0
 10 27  1  0  0  0
 18 13  2  0  0  0
 14 13  1  0  0  0
 15 14  2  0  0  0
 14 28  1  0  0  0
 16 15  1  0  0  0
 29 15  1  0  0  0
 30 16  1  0  0  0
 16 17  2  0  0  0
 31 17  1  0  0  0
 17 18  1  0  0  0
 18 32  1  0  0  0
 33 19  1  0  0  0
 20 19  1  0  0  0
 19 34  1  0  0  0
 22 20  2  0  0  0
 20 21  1  0  0  0
 35 21  1  0  0  0
M  END
$$$$
23959_ChemDiv_000A-0202.pdb
 OpenBabel06131021483D

 44 46  0  0  0  0  0  0  0  0999 V2000
   62.5810   48.8410  100.3060 C   0  0  0  0  0
   61.9890   48.2390   99.7730 C   0  0  0  0  0
   62.3810   47.5290   99.1710 C   0  0  0  0  0
   63.3740   47.4300   99.1110 C   0  0  0  0  0
   63.9710   48.0410   99.6520 C   0  0  0  0  0
   63.5740   48.7410  100.2460 C   0  0  0  0  0
   61.7680   46.9300   98.6390 C   0  0  0  0  0
   61.4150   46.0950   99.0570 N   0  0  0  0  0
   61.5100   47.1630   97.6970 O   0  0  0  0  0
   60.8140   45.5000   98.5450 C   0  0  0  0  0
   61.1950   44.7560   97.9890 C   0  0  0  0  0
   60.5860   44.1560   97.4710 C   0  0  0  0  0
   59.6030   44.2980   97.5100 C   0  0  0  0  0
   59.2210   45.0420   98.0660 C   0  0  0  0  0
   59.8260   45.6370   98.5790 C   0  0  0  0  0
   60.9610   43.4240   96.9250 C   0  0  0  0  0
   61.2140   43.5850   95.9870 O   0  0  0  0  0
   61.0800   42.5320   97.3200 O   0  0  0  0  0
   62.1670   49.5430  100.9020 S   0  0  0  0  0
   62.1360   48.8670  101.6650 O   0  0  0  0  0
   61.7510   50.2370  101.5120 O   0  0  0  0  0
   62.1930   50.2280  100.1460 N   0  0  0  0  0
   62.6860   51.0940  100.2670 C   0  0  0  0  0
   62.5690   51.8200   99.5960 C   0  0  0  0  0
   63.0610   52.6810   99.7190 C   0  0  0  0  0
   62.9430   53.4040   99.0490 F   0  0  0  0  0
   63.6580   52.8100  100.4990 C   0  0  0  0  0
   63.7740   52.0790  101.1710 C   0  0  0  0  0
   63.2830   51.2220  101.0470 C   0  0  0  0  0
   60.8950   48.3510   99.8420 H   0  0  0  0  0
   63.8150   46.6600   98.4590 H   0  0  0  0  0
   65.0650   47.9350   99.5870 H   0  0  0  0  0
   64.2310   49.4020  100.8340 H   0  0  0  0  0
   61.6910   45.8410  100.0720 H   0  0  0  0  0
   62.2850   44.6010   97.9500 H   0  0  0  0  0
   58.9300   43.6370   96.9410 H   0  0  0  0  0
   58.1310   45.1970   98.1060 H   0  0  0  0  0
   59.4060   46.4520   99.1890 H   0  0  0  0  0
   61.4840   41.7410   96.7350 H   0  0  0  0  0
   61.6880   50.0200   99.2110 H   0  0  0  0  0
   61.9050   51.6760   98.7290 H   0  0  0  0  0
   64.1960   53.7630  100.6260 H   0  0  0  0  0
   64.4380   52.2200  102.0390 H   0  0  0  0  0
   63.4040   50.4110  101.7820 H   0  0  0  0  0
  2  1  2  0  0  0
  6  1  1  0  0  0
  1 19  1  0  0  0
  3  2  1  0  0  0
  2 30  1  0  0  0
  7  3  1  0  0  0
  4  3  2  0  0  0
 31  4  1  0  0  0
  4  5  1  0  0  0
 32  5  1  0  0  0
  5  6  2  0  0  0
  6 33  1  0  0  0
  9  7  2  0  0  0
  7  8  1  0  0  0
 10  8  1  0  0  0
  8 34  1  0  0  0
 11 10  2  0  0  0
 10 15  1  0  0  0
 12 11  1  0  0  0
 35 11  1  0  0  0
 16 12  1  0  0  0
 12 13  2  0  0  0
 36 13  1  0  0  0
 13 14  1  0  0  0
 14 37  1  0  0  0
 14 15  2  0  0  0
 15 38  1  0  0  0
 17 16  2  0  0  0
 16 18  1  0  0  0
 39 18  1  0  0  0
 22 19  1  0  0  0
 19 21  2  0  0  0
 19 20  2  0  0  0
 40 22  1  0  0  0
 22 23  1  0  0  0
 24 23  2  0  0  0
 23 29  1  0  0  0
 41 24  1  0  0  0
 24 25  1  0  0  0
 26 25  1  0  0  0
 25 27  2  0  0  0
 27 42  1  0  0  0
 27 28  1  0  0  0
 29 28  2  0  0  0
 28 43  1  0  0  0
 29 44  1  0  0  0
M  END
$$$$
23959_ChemDiv_000A-0202.pdb
 OpenBabel06131021483D

 44 46  0  0  0  0  0  0  0  0999 V2000
   61.9890   47.7220   97.9410 C   0  0  0  0  0
   62.7250   48.3470   97.6850 C   0  0  0  0  0
   62.5560   49.3390   97.6060 C   0  0  0  0  0
   61.6400   49.6980   97.7870 C   0  0  0  0  0
   60.8970   49.0630   98.0460 C   0  0  0  0  0
   61.0740   48.0810   98.1220 C   0  0  0  0  0
   63.3110   49.9570   97.3450 C   0  0  0  0  0
   63.8800   50.3620   98.0580 N   0  0  0  0  0
   63.4940   50.1660   96.3810 O   0  0  0  0  0
   64.6220   50.9680   97.8140 C   0  0  0  0  0
   65.5400   50.5980   97.6450 C   0  0  0  0  0
   66.2890   51.2130   97.3990 C   0  0  0  0  0
   66.1220   52.1890   97.3230 C   0  0  0  0  0
   65.2040   52.5590   97.4910 C   0  0  0  0  0
   64.4610   51.9500   97.7360 C   0  0  0  0  0
   67.1920   50.8490   97.2330 C   0  0  0  0  0
   67.8510   50.8060   97.9630 O   0  0  0  0  0
   67.4310   50.5290   96.3350 O   0  0  0  0  0
   62.1810   46.7340   98.0150 S   0  0  0  0  0
   62.2610   46.8320   99.0270 O   0  0  0  0  0
   62.3750   45.7430   98.1050 O   0  0  0  0  0
   62.1040   46.6230   97.0030 N   0  0  0  0  0
   61.4520   45.9650   96.6170 C   0  0  0  0  0
   61.5120   45.7300   95.6510 C   0  0  0  0  0
   60.8610   45.0740   95.2680 C   0  0  0  0  0
   60.9220   44.8420   94.3050 F   0  0  0  0  0
   60.1670   44.6640   95.8430 C   0  0  0  0  0
   60.1100   44.9020   96.8120 C   0  0  0  0  0
   60.7580   45.5550   97.1920 C   0  0  0  0  0
   63.7330   47.9490   97.4870 H   0  0  0  0  0
   61.4420   50.7780   97.7050 H   0  0  0  0  0
   59.8870   49.4540   98.2460 H   0  0  0  0  0
   60.2600   47.3950   98.4050 H   0  0  0  0  0
   63.6850   50.1380   99.0990 H   0  0  0  0  0
   65.7220   49.5150   97.7310 H   0  0  0  0  0
   66.9470   52.8680   97.0540 H   0  0  0  0  0
   65.0220   53.6420   97.4030 H   0  0  0  0  0
   63.4550   52.3580   97.9230 H   0  0  0  0  0
   68.8220   50.4130   97.7800 H   0  0  0  0  0
   62.7270   47.2160   96.3450 H   0  0  0  0  0
   62.2850   46.1860   95.0130 H   0  0  0  0  0
   59.4550   43.9420   95.4130 H   0  0  0  0  0
   59.3380   44.4470   97.4530 H   0  0  0  0  0
   60.7030   45.8230   98.2590 H   0  0  0  0  0
  2  1  2  0  0  0
  1 19  1  0  0  0
  1  6  1  0  0  0
 30  2  1  0  0  0
  3  2  1  0  0  0
  7  3  1  0  0  0
  3  4  2  0  0  0
 31  4  1  0  0  0
  4  5  1  0  0  0
  5  6  2  0  0  0
  5 32  1  0  0  0
  6 33  1  0  0  0
  9  7  2  0  0  0
  7  8  1  0  0  0
 10  8  1  0  0  0
  8 34  1  0  0  0
 11 10  2  0  0  0
 15 10  1  0  0  0
 12 11  1  0  0  0
 11 35  1  0  0  0
 16 12  1  0  0  0
 13 12  2  0  0  0
 36 13  1  0  0  0
 13 14  1  0  0  0
 37 14  1  0  0  0
 14 15  2  0  0  0
 15 38  1  0  0  0
 18 16  2  0  0  0
 16 17  1  0  0  0
 39 17  1  0  0  0
 22 19  1  0  0  0
 19 21  2  0  0  0
 19 20  2  0  0  0
 40 22  1  0  0  0
 23 22  1  0  0  0
 24 23  2  0  0  0
 23 29  1  0  0  0
 41 24  1  0  0  0
 25 24  1  0  0  0
 26 25  1  0  0  0
 25 27  2  0  0  0
 42 27  1  0  0  0
 27 28  1  0  0  0
 28 29  2  0  0  0
 28 43  1  0  0  0
 29 44  1  0  0  0
M  END
$$$$
23961_ChemDiv_1021-1372.pdb
 OpenBabel06131021483D

 55 58  0  0  0  0  0  0  0  0999 V2000
   60.4340   46.2990   98.8160 S   0  0  0  0  0
   59.7190   46.9720   98.5340 O   0  0  0  0  0
   61.1460   45.6290   99.0960 O   0  0  0  0  0
   60.2710   45.7610   97.9430 C   0  0  0  0  0
   60.7580   46.0190   97.1280 C   0  0  0  0  0
   60.5980   45.4900   96.2690 C   0  0  0  0  0
   59.9590   44.7310   96.2720 C   0  0  0  0  0
   59.4710   44.4790   97.1030 C   0  0  0  0  0
   59.8050   44.2240   95.4480 Br  0  0  0  0  0
   59.6310   45.0080   97.9620 C   0  0  0  0  0
   61.1320   45.7850   95.4040 C   0  0  0  0  0
   62.1340   45.6180   95.3380 N   0  0  0  0  0
   60.6090   46.2330   94.6560 O   0  0  0  0  0
   62.5830   45.9280   94.4750 C   0  0  0  0  0
   62.9300   46.8860   94.4720 C   0  0  0  0  0
   63.3760   47.1930   93.6100 C   0  0  0  0  0
   63.4660   46.6170   92.8490 C   0  0  0  0  0
   63.1190   45.6620   92.8540 C   0  0  0  0  0
   62.6720   45.3520   93.7130 C   0  0  0  0  0
   60.5960   46.8320   99.6810 N   0  0  0  0  0
   61.1960   47.6380   99.6870 C   0  0  0  0  0
   61.8490   47.8070   98.9440 C   0  0  0  0  0
   62.4370   48.5690   98.9220 C   0  0  0  0  0
   62.4040   49.2170   99.6550 C   0  0  0  0  0
   61.7550   49.0680  100.4120 C   0  0  0  0  0
   61.1630   48.2860  100.4200 C   0  0  0  0  0
   63.0050   50.0050   99.6420 N   0  0  0  0  0
   62.7140   50.8710   99.1760 C   0  0  0  0  0
   61.8260   50.9230   98.7370 O   0  0  0  0  0
   63.3170   51.6600   99.1640 C   0  0  0  0  0
   63.2790   52.3580   99.8650 C   0  0  0  0  0
   63.8730   53.1260   99.8430 C   0  0  0  0  0
   64.5470   53.2150   99.0850 C   0  0  0  0  0
   64.5660   52.5050   98.3950 C   0  0  0  0  0
   63.9560   51.7580   98.4570 C   0  0  0  0  0
   61.4640   46.8640   97.1420 H   0  0  0  0  0
   58.7630   43.6350   97.0960 H   0  0  0  0  0
   59.1010   44.7450   98.8910 H   0  0  0  0  0
   62.6900   45.1410   96.1350 H   0  0  0  0  0
   62.8290   47.5480   95.3470 H   0  0  0  0  0
   63.7680   48.2210   93.5500 H   0  0  0  0  0
   63.9600   47.0020   91.9430 H   0  0  0  0  0
   63.2210   45.0010   91.9790 H   0  0  0  0  0
   62.2780   44.3250   93.7700 H   0  0  0  0  0
   60.1130   46.5200  100.5980 H   0  0  0  0  0
   61.8950   47.0850   98.1130 H   0  0  0  0  0
   63.1370   48.7100   98.0840 H   0  0  0  0  0
   61.7100   49.7930  101.2400 H   0  0  0  0  0
   60.4600   48.1370  101.2550 H   0  0  0  0  0
   63.9740   49.9510  100.1220 H   0  0  0  0  0
   62.5500   52.2620  100.6850 H   0  0  0  0  0
   63.8180   53.8940  100.6310 H   0  0  0  0  0
   65.2340   54.0750   99.0340 H   0  0  0  0  0
   65.2810   52.5660   97.5590 H   0  0  0  0  0
   63.9970   50.9820   97.6770 H   0  0  0  0  0
  4  1  1  0  0  0
  2  1  2  0  0  0
  1  3  2  0  0  0
  1 20  1  0  0  0
  5  4  2  0  0  0
  4 10  1  0  0  0
  6  5  1  0  0  0
  5 36  1  0  0  0
 11  6  1  0  0  0
  6  7  2  0  0  0
  9  7  1  0  0  0
  7  8  1  0  0  0
 37  8  1  0  0  0
  8 10  2  0  0  0
 10 38  1  0  0  0
 13 11  2  0  0  0
 12 11  1  0  0  0
 14 12  1  0  0  0
 12 39  1  0  0  0
 19 14  2  0  0  0
 15 14  1  0  0  0
 16 15  2  0  0  0
 15 40  1  0  0  0
 17 16  1  0  0  0
 41 16  1  0  0  0
 42 17  1  0  0  0
 17 18  2  0  0  0
 43 18  1  0  0  0
 18 19  1  0  0  0
 19 44  1  0  0  0
 20 21  1  0  0  0
 20 45  1  0  0  0
 22 21  2  0  0  0
 21 26  1  0  0  0
 46 22  1  0  0  0
 23 22  1  0  0  0
 47 23  1  0  0  0
 23 24  2  0  0  0
 27 24  1  0  0  0
 24 25  1  0  0  0
 25 26  2  0  0  0
 25 48  1  0  0  0
 26 49  1  0  0  0
 28 27  1  0  0  0
 27 50  1  0  0  0
 29 28  2  0  0  0
 30 28  1  0  0  0
 35 30  2  0  0  0
 30 31  1  0  0  0
 32 31  2  0  0  0
 31 51  1  0  0  0
 33 32  1  0  0  0
 32 52  1  0  0  0
 34 33  2  0  0  0
 53 33  1  0  0  0
 54 34  1  0  0  0
 34 35  1  0  0  0
 55 35  1  0  0  0
M  END
$$$$
23961_ChemDiv_1021-1372.pdb
 OpenBabel06131021483D

 55 58  0  0  0  0  0  0  0  0999 V2000
   61.7170   49.8770   99.0290 S   0  0  0  0  0
   61.4800   50.0680   98.0550 O   0  0  0  0  0
   61.9530   49.6870  100.0000 O   0  0  0  0  0
   61.4710   48.8780   98.8930 C   0  0  0  0  0
   61.7830   48.4180   98.0810 C   0  0  0  0  0
   61.5410   47.4360   97.9470 C   0  0  0  0  0
   61.0000   46.9650   98.6320 C   0  0  0  0  0
   60.6890   47.4400   99.4510 C   0  0  0  0  0
   60.7680   46.0220   98.5040 Br  0  0  0  0  0
   60.9310   48.4230   99.5850 C   0  0  0  0  0
   61.8870   46.9600   97.0660 C   0  0  0  0  0
   61.5120   47.2270   96.1580 N   0  0  0  0  0
   62.5970   46.2390   97.1670 O   0  0  0  0  0
   61.8930   46.7260   95.3530 C   0  0  0  0  0
   62.6950   47.1580   94.8980 C   0  0  0  0  0
   63.0720   46.6570   94.0960 C   0  0  0  0  0
   62.6960   45.8300   93.7880 C   0  0  0  0  0
   61.8960   45.4020   94.2440 C   0  0  0  0  0
   61.5170   45.8990   95.0450 C   0  0  0  0  0
   61.9610   50.8680   99.1640 N   0  0  0  0  0
   62.8520   51.2260   98.8670 C   0  0  0  0  0
   63.5890   50.6120   98.5740 C   0  0  0  0  0
   64.4530   50.9240   98.2840 C   0  0  0  0  0
   64.6300   51.8870   98.2730 C   0  0  0  0  0
   63.9050   52.5230   98.5630 C   0  0  0  0  0
   63.0290   52.1890   98.8560 C   0  0  0  0  0
   65.5160   52.2200   97.9760 N   0  0  0  0  0
   65.6750   52.4650   96.9940 C   0  0  0  0  0
   64.9410   52.3710   96.3340 O   0  0  0  0  0
   66.5630   52.7980   96.6980 C   0  0  0  0  0
   67.2780   52.1830   96.3960 C   0  0  0  0  0
   68.1430   52.5190   96.1090 C   0  0  0  0  0
   68.3170   53.5210   96.1170 C   0  0  0  0  0
   67.5870   54.1170   96.4230 C   0  0  0  0  0
   66.7420   53.7390   96.7000 C   0  0  0  0  0
   62.3830   48.9540   97.3290 H   0  0  0  0  0
   60.0890   46.9090  100.2060 H   0  0  0  0  0
   60.5970   48.9660  100.4830 H   0  0  0  0  0
   60.7560   47.9950   96.0520 H   0  0  0  0  0
   63.1270   48.1070   95.2510 H   0  0  0  0  0
   63.9400   47.0780   93.5650 H   0  0  0  0  0
   63.1450   45.3300   92.9150 H   0  0  0  0  0
   61.4640   44.4530   93.8900 H   0  0  0  0  0
   60.6490   45.4760   95.5750 H   0  0  0  0  0
   61.2480   51.5340   99.6330 H   0  0  0  0  0
   63.4010   49.5270   98.5840 H   0  0  0  0  0
   65.2300   50.2090   97.9700 H   0  0  0  0  0
   64.0970   53.6080   98.5510 H   0  0  0  0  0
   62.2470   52.8970   99.1720 H   0  0  0  0  0
   66.3200   52.3250   98.6940 H   0  0  0  0  0
   67.0890   51.0980   96.3850 H   0  0  0  0  0
   68.9280   51.8210   95.7780 H   0  0  0  0  0
   69.2870   53.9310   95.7950 H   0  0  0  0  0
   67.7380   55.2080   96.4470 H   0  0  0  0  0
   65.9460   54.4230   97.0340 H   0  0  0  0  0
  2  1  2  0  0  0
  4  1  1  0  0  0
  1 20  1  0  0  0
  1  3  2  0  0  0
  5  4  2  0  0  0
  4 10  1  0  0  0
 36  5  1  0  0  0
  6  5  1  0  0  0
 11  6  1  0  0  0
  6  7  2  0  0  0
  9  7  1  0  0  0
  7  8  1  0  0  0
  8 10  2  0  0  0
  8 37  1  0  0  0
 10 38  1  0  0  0
 12 11  1  0  0  0
 11 13  2  0  0  0
 14 12  1  0  0  0
 39 12  1  0  0  0
 15 14  2  0  0  0
 19 14  1  0  0  0
 16 15  1  0  0  0
 15 40  1  0  0  0
 41 16  1  0  0  0
 17 16  2  0  0  0
 42 17  1  0  0  0
 17 18  1  0  0  0
 43 18  1  0  0  0
 18 19  2  0  0  0
 19 44  1  0  0  0
 21 20  1  0  0  0
 20 45  1  0  0  0
 22 21  2  0  0  0
 26 21  1  0  0  0
 23 22  1  0  0  0
 22 46  1  0  0  0
 47 23  1  0  0  0
 24 23  2  0  0  0
 27 24  1  0  0  0
 24 25  1  0  0  0
 48 25  1  0  0  0
 25 26  2  0  0  0
 26 49  1  0  0  0
 28 27  1  0  0  0
 27 50  1  0  0  0
 29 28  2  0  0  0
 30 28  1  0  0  0
 31 30  2  0  0  0
 30 35  1  0  0  0
 32 31  1  0  0  0
 51 31  1  0  0  0
 52 32  1  0  0  0
 32 33  2  0  0  0
 53 33  1  0  0  0
 33 34  1  0  0  0
 34 54  1  0  0  0
 34 35  2  0  0  0
 35 55  1  0  0  0
M  END
$$$$
23963_ChemDiv_000A-0215.pdb
 OpenBabel06131021483D

 39 40  0  0  0  0  0  0  0  0999 V2000
   61.0540   46.9990   98.0870 C   0  0  0  0  0
   61.7030   47.6380   97.6530 C   0  0  0  0  0
   61.7750   48.5820   98.0000 C   0  0  0  0  0
   61.1970   48.8890   98.7820 C   0  0  0  0  0
   60.5590   48.2440   99.2000 C   0  0  0  0  0
   60.4890   47.2980   98.8500 C   0  0  0  0  0
   59.8480   46.6840   99.2850 C   0  0  0  0  0
   59.7680   45.7530   98.9540 C   0  0  0  0  0
   60.3460   45.4470   98.1720 C   0  0  0  0  0
   60.9930   46.0780   97.7380 C   0  0  0  0  0
   61.2510   49.8340   99.1490 O   0  0  0  0  0
   62.4500   49.1990   97.5290 O   0  0  0  0  0
   61.5600   45.7780   96.9720 O   0  0  0  0  0
   61.1830   45.7390   96.0730 C   0  0  0  0  0
   61.7440   45.4460   95.3150 C   0  0  0  0  0
   62.1210   44.5330   95.2790 O   0  0  0  0  0
   61.9360   46.0840   94.5690 C   0  0  0  0  0
   62.8480   46.4450   94.4290 N   0  0  0  0  0
   63.0270   47.1330   93.7300 C   0  0  0  0  0
   63.1300   46.4090   93.0470 C   0  0  0  0  0
   62.9270   47.8550   94.4030 C   0  0  0  0  0
   63.2080   47.8140   93.0210 C   0  0  0  0  0
   62.7410   47.1660   97.6680 H   0  0  0  0  0
   61.2570   47.7840   96.6140 H   0  0  0  0  0
   59.5180   48.7090   99.1890 H   0  0  0  0  0
   61.0170   48.0860  100.2320 H   0  0  0  0  0
   59.2300   47.0300  100.1280 H   0  0  0  0  0
   59.0600   45.0550   99.4280 H   0  0  0  0  0
   60.2590   44.4140   97.8010 H   0  0  0  0  0
   60.2480   45.0880   96.1020 H   0  0  0  0  0
   61.0050   46.8390   95.8340 H   0  0  0  0  0
   61.1220   46.3900   93.8930 H   0  0  0  0  0
   63.9410   45.6180   92.9200 H   0  0  0  0  0
   62.5660   45.5360   92.5780 H   0  0  0  0  0
   63.0830   48.8670   93.9020 H   0  0  0  0  0
   63.6790   47.7140   95.2480 H   0  0  0  0  0
   61.8770   47.8130   94.8440 H   0  0  0  0  0
   62.5200   48.5860   92.5410 H   0  0  0  0  0
   63.9210   48.6650   92.7600 H   0  0  0  0  0
  2  1  1  0  0  0
 10  1  2  0  0  0
  1  6  1  0  0  0
 24  2  1  0  0  0
  2 23  1  0  0  0
  2  3  1  0  0  0
 12  3  2  0  0  0
  3  4  1  0  0  0
  4 11  2  0  0  0
  4  5  1  0  0  0
  6  5  1  0  0  0
 25  5  1  0  0  0
  5 26  1  0  0  0
  6  7  2  0  0  0
  8  7  1  0  0  0
  7 27  1  0  0  0
  9  8  2  0  0  0
  8 28  1  0  0  0
 10  9  1  0  0  0
 29  9  1  0  0  0
 13 10  1  0  0  0
 14 13  1  0  0  0
 15 14  1  0  0  0
 31 14  1  0  0  0
 14 30  1  0  0  0
 17 15  1  0  0  0
 16 15  2  0  0  0
 32 17  1  0  0  0
 18 17  2  0  0  0
 19 18  1  0  0  0
 22 19  1  0  0  0
 20 19  1  0  0  0
 19 21  1  0  0  0
 34 20  1  0  0  0
 33 20  1  0  0  0
 35 21  1  0  0  0
 21 37  1  0  0  0
 21 36  1  0  0  0
 38 22  1  0  0  0
 39 22  1  0  0  0
M  END
$$$$
23963_ChemDiv_000A-0215.pdb
 OpenBabel06131021483D

 41 42  0  0  0  0  0  0  0  0999 V2000
   62.6840   48.7660   99.1940 C   0  0  0  0  0
   62.0910   48.7720  100.0110 C   0  0  0  0  0
   61.9130   49.6430  100.4870 C   0  0  0  0  0
   62.3280   50.5100  100.1470 C   0  0  0  0  0
   62.9120   50.4870   99.3370 C   0  0  0  0  0
   63.0880   49.6120   98.8620 C   0  0  0  0  0
   63.6710   49.6230   98.0630 C   0  0  0  0  0
   63.8540   48.7740   97.5860 C   0  0  0  0  0
   63.4390   47.9070   97.9270 C   0  0  0  0  0
   62.8500   47.9080   98.7370 C   0  0  0  0  0
   62.1630   51.3990  100.6090 O   0  0  0  0  0
   61.3040   49.6020  101.3150 O   0  0  0  0  0
   62.4430   47.0580   99.0710 O   0  0  0  0  0
   61.6450   46.6980   98.6410 C   0  0  0  0  0
   61.2670   45.8370   98.9440 C   0  0  0  0  0
   60.8850   45.7370   99.8500 O   0  0  0  0  0
   61.2710   45.0530   98.3240 C   0  0  0  0  0
   60.4300   44.7190   97.9190 N   0  0  0  0  0
   60.4450   44.1250   97.1190 C   0  0  0  0  0
   59.9040   44.7960   96.6120 C   0  0  0  0  0
   60.9820   43.4550   97.6180 C   0  0  0  0  0
   60.4540   43.5370   96.3110 C   0  0  0  0  0
   62.5060   48.0250  100.7650 H   0  0  0  0  0
   61.0690   48.5050   99.5830 H   0  0  0  0  0
   62.5040   51.2330   98.5780 H   0  0  0  0  0
   63.9360   50.7380   99.7700 H   0  0  0  0  0
   64.1120   50.5680   97.7080 H   0  0  0  0  0
   64.5010   48.7670   96.6940 H   0  0  0  0  0
   63.6400   46.9610   97.4000 H   0  0  0  0  0
   60.8240   47.4880   98.6860 H   0  0  0  0  0
   62.0230   46.4450   97.5960 H   0  0  0  0  0
   62.0120   45.2650   97.4840 H   0  0  0  0  0
   61.5430   44.2000   99.0300 H   0  0  0  0  0
   59.8320   44.2140   98.7200 H   0  0  0  0  0
   58.8180   45.1210   96.7370 H   0  0  0  0  0
   59.9210   45.8830   96.2700 H   0  0  0  0  0
   61.2000   42.5630   96.9430 H   0  0  0  0  0
   60.4220   43.1160   98.5510 H   0  0  0  0  0
   61.9670   43.9300   97.9410 H   0  0  0  0  0
   61.3080   43.2480   95.6130 H   0  0  0  0  0
   60.1580   42.4930   95.9630 H   0  0  0  0  0
 10  1  2  0  0  0
  6  1  1  0  0  0
  1  2  1  0  0  0
 24  2  1  0  0  0
  2  3  1  0  0  0
  2 23  1  0  0  0
  4  3  1  0  0  0
  3 12  2  0  0  0
  5  4  1  0  0  0
  4 11  2  0  0  0
 25  5  1  0  0  0
  6  5  1  0  0  0
  5 26  1  0  0  0
  7  6  2  0  0  0
  8  7  1  0  0  0
 27  7  1  0  0  0
 28  8  1  0  0  0
  8  9  2  0  0  0
 29  9  1  0  0  0
  9 10  1  0  0  0
 10 13  1  0  0  0
 14 13  1  0  0  0
 31 14  1  0  0  0
 14 30  1  0  0  0
 14 15  1  0  0  0
 17 15  1  0  0  0
 15 16  2  0  0  0
 32 17  1  0  0  0
 18 17  1  0  0  0
 17 33  1  0  0  0
 19 18  1  0  0  0
 18 34  1  0  0  0
 22 19  1  0  0  0
 20 19  1  0  0  0
 19 21  1  0  0  0
 36 20  1  0  0  0
 20 35  1  0  0  0
 37 21  1  0  0  0
 21 39  1  0  0  0
 21 38  1  0  0  0
 40 22  1  0  0  0
 41 22  1  0  0  0
M  END
$$$$
23965_ChemDiv_000A-0238.pdb
 OpenBabel06131021483D

 30 31  0  0  0  0  0  0  0  0999 V2000
   61.7040   46.1160   97.5870 S   0  0  0  0  0
   61.0040   46.8290   97.7880 O   0  0  0  0  0
   62.3770   45.4190   97.3880 O   0  0  0  0  0
   60.9920   45.5530   97.1270 C   0  0  0  0  0
   60.8570   45.6430   96.1590 C   0  0  0  0  0
   61.2920   46.2040   95.4700 N   0  0  0  0  0
   60.1480   45.0840   95.6970 C   0  0  0  0  0
   60.8850   46.0250   94.5720 S   0  0  0  0  0
   60.1600   45.3130   94.7210 N   0  0  0  0  0
   59.5990   44.4510   96.2350 C   0  0  0  0  0
   59.7470   44.3690   97.2170 C   0  0  0  0  0
   60.4380   44.9140   97.6690 C   0  0  0  0  0
   62.4120   46.6840   98.0490 N   0  0  0  0  0
   62.6000   47.5820   97.7150 C   0  0  0  0  0
   63.4200   48.0840   98.0490 C   0  0  0  0  0
   63.7980   48.8000   97.5120 C   0  0  0  0  0
   64.7040   49.1820   97.7680 C   0  0  0  0  0
   65.0200   50.0050   97.3370 C   0  0  0  0  0
   65.9730   50.3290   97.5020 C   0  0  0  0  0
   66.7000   49.9720   96.9590 O   0  0  0  0  0
   66.1370   51.0020   98.2160 O   0  0  0  0  0
   58.8260   43.8400   95.7430 H   0  0  0  0  0
   59.1360   43.6650   97.8040 H   0  0  0  0  0
   60.5980   44.8210   98.7550 H   0  0  0  0  0
   61.9270   48.0500   96.9790 H   0  0  0  0  0
   63.8770   47.8170   99.0150 H   0  0  0  0  0
   63.2530   49.1920   96.6390 H   0  0  0  0  0
   65.3260   48.6760   98.5230 H   0  0  0  0  0
   64.3480   50.5770   96.6780 H   0  0  0  0  0
   67.1240   51.3510   98.4010 H   0  0  0  0  0
  4  1  1  0  0  0
  3  1  2  0  0  0
  1  2  2  0  0  0
  1 13  1  0  0  0
  5  4  1  0  0  0
  4 12  2  0  0  0
  6  5  2  0  0  0
  7  5  1  0  0  0
  8  6  1  0  0  0
  9  7  2  0  0  0
  7 10  1  0  0  0
  8  9  1  0  0  0
 22 10  1  0  0  0
 10 11  2  0  0  0
 11 12  1  0  0  0
 11 23  1  0  0  0
 12 24  1  0  0  0
 14 13  2  0  0  0
 25 14  1  0  0  0
 14 15  1  0  0  0
 16 15  2  0  0  0
 15 26  1  0  0  0
 27 16  1  0  0  0
 16 17  1  0  0  0
 18 17  2  0  0  0
 17 28  1  0  0  0
 29 18  1  0  0  0
 18 19  1  0  0  0
 20 19  2  0  0  0
 19 21  1  0  0  0
 21 30  1  0  0  0
M  END
$$$$
23965_ChemDiv_000A-0238.pdb
 OpenBabel06131021483D

 30 31  0  0  0  0  0  0  0  0999 V2000
   62.0980   46.4160   96.8150 S   0  0  0  0  0
   61.4620   47.1860   96.6140 O   0  0  0  0  0
   62.7100   45.6640   97.0060 O   0  0  0  0  0
   61.5170   45.7960   96.2580 C   0  0  0  0  0
   60.7840   45.3060   96.6880 C   0  0  0  0  0
   60.4520   45.2750   97.6200 N   0  0  0  0  0
   60.2010   44.6860   96.1340 C   0  0  0  0  0
   59.6700   44.6520   97.6880 S   0  0  0  0  0
   59.5150   44.2800   96.7420 N   0  0  0  0  0
   60.3840   44.5850   95.1610 C   0  0  0  0  0
   61.1320   45.0890   94.7370 C   0  0  0  0  0
   61.7010   45.6930   95.2750 C   0  0  0  0  0
   62.6760   47.0430   97.3720 N   0  0  0  0  0
   63.1190   47.7980   96.9410 C   0  0  0  0  0
   63.8340   48.3210   97.4450 C   0  0  0  0  0
   64.2640   49.0810   97.0190 C   0  0  0  0  0
   65.0620   49.5140   97.4760 C   0  0  0  0  0
   65.4710   50.3120   97.0770 C   0  0  0  0  0
   66.3890   50.6220   97.3950 C   0  0  0  0  0
   66.4510   51.2750   98.1160 O   0  0  0  0  0
   67.2010   50.2470   96.9590 O   0  0  0  0  0
   59.7580   43.9140   94.5510 H   0  0  0  0  0
   61.3270   44.9720   93.6590 H   0  0  0  0  0
   62.5270   46.2470   94.8020 H   0  0  0  0  0
   62.8470   48.0840   95.9130 H   0  0  0  0  0
   64.1180   48.0260   98.4680 H   0  0  0  0  0
   63.8930   49.4670   96.0560 H   0  0  0  0  0
   65.4640   49.0920   98.4100 H   0  0  0  0  0
   64.9410   50.8700   96.2890 H   0  0  0  0  0
   67.4040   51.6040   98.4550 H   0  0  0  0  0
  4  1  1  0  0  0
  2  1  2  0  0  0
  1  3  2  0  0  0
  1 13  1  0  0  0
 12  4  2  0  0  0
  4  5  1  0  0  0
  7  5  1  0  0  0
  5  6  2  0  0  0
  6  8  1  0  0  0
 10  7  1  0  0  0
  7  9  2  0  0  0
  9  8  1  0  0  0
 22 10  1  0  0  0
 11 10  2  0  0  0
 23 11  1  0  0  0
 11 12  1  0  0  0
 24 12  1  0  0  0
 14 13  2  0  0  0
 25 14  1  0  0  0
 14 15  1  0  0  0
 16 15  2  0  0  0
 15 26  1  0  0  0
 27 16  1  0  0  0
 16 17  1  0  0  0
 18 17  2  0  0  0
 17 28  1  0  0  0
 29 18  1  0  0  0
 18 19  1  0  0  0
 21 19  2  0  0  0
 19 20  1  0  0  0
 20 30  1  0  0  0
M  END
$$$$
23967_ChemDiv_0075-0007.pdb
 OpenBabel06131021483D

 30 32  0  0  0  0  0  0  0  0999 V2000
   63.0890   47.6250   97.9580 C   0  0  0  0  0
   63.8820   48.1320   98.2370 C   0  0  0  0  0
   64.7090   48.6550   98.5180 N   0  0  0  0  0
   62.2740   47.5840   98.5520 C   0  0  0  0  0
   61.4900   46.9900   98.3230 N   0  0  0  0  0
   61.4230   46.5650   97.4060 S   0  0  0  0  0
   61.3980   47.5020   96.9990 O   0  0  0  0  0
   61.4490   45.6450   97.8310 O   0  0  0  0  0
   61.3550   46.1490   96.4750 C   0  0  0  0  0
   60.6140   45.5160   96.2870 C   0  0  0  0  0
   59.8610   45.1700   96.8600 N   0  0  0  0  0
   60.5470   45.1120   95.3840 C   0  0  0  0  0
   59.3380   44.5520   96.2880 S   0  0  0  0  0
   59.7530   44.5190   95.4000 N   0  0  0  0  0
   61.2080   45.3370   94.6800 C   0  0  0  0  0
   61.9480   45.9700   94.8670 C   0  0  0  0  0
   62.0170   46.3740   95.7710 C   0  0  0  0  0
   60.7540   46.8150   99.0260 C   0  0  0  0  0
   60.7370   45.9630   99.5070 C   0  0  0  0  0
   60.0770   47.5090   99.2020 C   0  0  0  0  0
   63.0890   47.0980   96.9910 H   0  0  0  0  0
   62.2390   48.1980   99.4660 H   0  0  0  0  0
   61.1200   44.8800   93.6820 H   0  0  0  0  0
   62.6810   46.2210   94.0840 H   0  0  0  0  0
   62.8350   47.0770   95.9940 H   0  0  0  0  0
   61.5010   45.1980   99.2990 H   0  0  0  0  0
   59.9540   45.7690  100.2570 H   0  0  0  0  0
   60.2790   48.4140   98.5400 H   0  0  0  0  0
   60.0980   47.8110  100.3010 H   0  0  0  0  0
   59.0430   47.0930   98.9630 H   0  0  0  0  0
 21  1  1  0  0  0
  1  2  1  0  0  0
  1  4  2  0  0  0
  2  3  3  0  0  0
  5  4  1  0  0  0
  4 22  1  0  0  0
  7  5  1  0  0  0
  6  5  1  0  0  0
  5 18  1  0  0  0
  9  6  1  0  0  0
  7  6  1  0  0  0
  6  8  2  0  0  0
 17  9  2  0  0  0
 10  9  1  0  0  0
 12 10  1  0  0  0
 10 11  2  0  0  0
 13 11  1  0  0  0
 15 12  1  0  0  0
 12 14  2  0  0  0
 14 13  1  0  0  0
 23 15  1  0  0  0
 15 16  2  0  0  0
 24 16  1  0  0  0
 16 17  1  0  0  0
 17 25  1  0  0  0
 18 20  1  0  0  0
 18 19  2  0  0  0
 26 19  1  0  0  0
 19 27  1  0  0  0
 28 20  1  0  0  0
 30 20  1  0  0  0
 20 29  1  0  0  0
M  END
$$$$
23967_ChemDiv_0075-0007.pdb
 OpenBabel06131021493D

 30 32  0  0  0  0  0  0  0  0999 V2000
   62.6140   47.0800   96.9920 C   0  0  0  0  0
   63.2160   47.7300   97.4180 C   0  0  0  0  0
   63.8350   48.4020   97.8660 N   0  0  0  0  0
   62.7550   46.8080   96.0310 C   0  0  0  0  0
   62.1230   46.1680   95.5710 N   0  0  0  0  0
   61.3520   45.7570   96.0830 S   0  0  0  0  0
   62.0320   45.2600   96.6620 O   0  0  0  0  0
   60.6950   46.2600   95.4970 O   0  0  0  0  0
   60.5830   45.3360   96.6080 C   0  0  0  0  0
   59.9310   44.7640   96.1250 C   0  0  0  0  0
   59.8610   44.4910   95.1570 N   0  0  0  0  0
   59.1840   44.3540   96.6330 C   0  0  0  0  0
   59.0610   43.9110   95.0910 S   0  0  0  0  0
   58.6550   43.8300   95.9810 N   0  0  0  0  0
   59.0910   44.5130   97.6080 C   0  0  0  0  0
   59.7420   45.0840   98.0910 C   0  0  0  0  0
   60.4890   45.4940   97.5830 C   0  0  0  0  0
   62.2630   45.9320   94.5750 C   0  0  0  0  0
   61.7060   46.3570   93.8940 C   0  0  0  0  0
   62.9580   45.2790   94.3260 C   0  0  0  0  0
   61.7810   46.6460   97.5670 H   0  0  0  0  0
   63.6130   47.2160   95.4730 H   0  0  0  0  0
   58.2570   44.0510   98.1590 H   0  0  0  0  0
   59.6380   45.2600   99.1730 H   0  0  0  0  0
   61.2200   46.1300   98.1060 H   0  0  0  0  0
   61.8510   46.1090   92.8310 H   0  0  0  0  0
   60.9330   47.0840   94.1900 H   0  0  0  0  0
   62.9670   45.1460   93.1940 H   0  0  0  0  0
   62.7630   44.2800   94.8390 H   0  0  0  0  0
   63.9750   45.6660   94.6660 H   0  0  0  0  0
  4  1  2  0  0  0
  1  2  1  0  0  0
  1 21  1  0  0  0
  2  3  3  0  0  0
 22  4  1  0  0  0
  5  4  1  0  0  0
 18  5  1  0  0  0
  5  6  1  0  0  0
  5  7  1  0  0  0
  8  6  2  0  0  0
  6  9  1  0  0  0
  6  7  1  0  0  0
 10  9  1  0  0  0
  9 17  2  0  0  0
 11 10  2  0  0  0
 10 12  1  0  0  0
 13 11  1  0  0  0
 14 12  2  0  0  0
 12 15  1  0  0  0
 13 14  1  0  0  0
 15 16  2  0  0  0
 15 23  1  0  0  0
 17 16  1  0  0  0
 16 24  1  0  0  0
 17 25  1  0  0  0
 19 18  2  0  0  0
 20 18  1  0  0  0
 26 19  1  0  0  0
 19 27  1  0  0  0
 28 20  1  0  0  0
 20 30  1  0  0  0
 20 29  1  0  0  0
M  END
$$$$
23969_ChemDiv_3690-0783.pdb
 OpenBabel06131021493D

 29 30  0  0  0  0  0  0  0  0999 V2000
   61.8140   46.5770   99.4460 N   0  0  0  0  0
   62.7720   46.7750   99.1670 C   0  0  0  0  0
   63.3440   46.0350   98.7360 O   0  0  0  0  0
   63.1550   47.6700   99.3080 C   0  0  0  0  0
   62.6020   48.3880   99.7260 C   0  0  0  0  0
   61.6640   48.1950   99.9990 C   0  0  0  0  0
   61.2680   47.2810   99.8570 C   0  0  0  0  0
   60.3370   47.0890  100.1280 O   0  0  0  0  0
   61.4400   45.6430   99.2900 C   0  0  0  0  0
   60.9760   45.4430   98.4120 C   0  0  0  0  0
   60.5720   44.5690   98.2570 C   0  0  0  0  0
   60.2240   44.3240   97.3390 N   0  0  0  0  0
   59.3970   44.8840   97.5030 C   0  0  0  0  0
   61.0270   43.7790   97.1790 C   0  0  0  0  0
   59.8850   44.0850   96.4470 C   0  0  0  0  0
   64.1930   47.8800   99.0050 H   0  0  0  0  0
   63.0280   49.3910   99.8850 H   0  0  0  0  0
   60.9810   48.9620   99.5040 H   0  0  0  0  0
   62.2780   44.8850   99.4400 H   0  0  0  0  0
   60.5960   45.5710  100.0520 H   0  0  0  0  0
   60.9280   46.2160   97.6290 H   0  0  0  0  0
   60.4940   43.8460   99.0840 H   0  0  0  0  0
   58.7170   44.8340   96.5900 H   0  0  0  0  0
   59.6890   45.9650   97.7200 H   0  0  0  0  0
   58.8400   44.4730   98.4080 H   0  0  0  0  0
   62.1140   44.0840   97.0240 H   0  0  0  0  0
   61.6080   42.8950   97.6040 H   0  0  0  0  0
   59.0030   43.4330   96.1360 H   0  0  0  0  0
   59.5520   44.5510   95.4620 H   0  0  0  0  0
  2  1  1  0  0  0
  9  1  1  0  0  0
  1  7  1  0  0  0
  3  2  2  0  0  0
  2  4  1  0  0  0
 16  4  1  0  0  0
  4  5  2  0  0  0
  5 17  1  0  0  0
  5  6  1  0  0  0
 18  6  1  0  0  0
  7  6  1  0  0  0
  7  8  2  0  0  0
 10  9  1  0  0  0
  9 19  1  0  0  0
  9 20  1  0  0  0
 21 10  1  0  0  0
 11 10  2  0  0  0
 12 11  1  0  0  0
 11 22  1  0  0  0
 15 12  1  0  0  0
 14 12  1  0  0  0
 12 13  1  0  0  0
 23 13  1  0  0  0
 13 24  1  0  0  0
 13 25  1  0  0  0
 15 14  1  0  0  0
 26 14  1  0  0  0
 14 27  1  0  0  0
 29 15  1  0  0  0
 28 15  1  0  0  0
M  END
$$$$
23969_ChemDiv_3690-0783.pdb
 OpenBabel06131021493D

 31 31  0  0  0  0  0  0  0  0999 V2000
   61.3650   47.4590   98.6420 N   0  0  0  0  0
   61.5140   48.4640   98.5910 C   0  0  0  0  0
   60.8740   49.1030   99.0820 O   0  0  0  0  0
   62.2680   48.8280   98.0750 C   0  0  0  0  0
   62.8900   48.2100   97.5980 C   0  0  0  0  0
   62.7440   47.2260   97.6480 C   0  0  0  0  0
   61.9740   46.8480   98.1750 C   0  0  0  0  0
   61.8300   45.8720   98.2240 O   0  0  0  0  0
   60.5780   47.1070   99.1830 C   0  0  0  0  0
   60.7260   46.8510  100.1520 C   0  0  0  0  0
   59.9750   46.5740  100.7080 C   0  0  0  0  0
   60.1320   46.2460  101.6530 N   0  0  0  0  0
   60.1270   47.2020  101.9850 C   0  0  0  0  0
   60.1370   45.3170  101.3300 C   0  0  0  0  0
   60.2850   45.9280  102.5700 C   0  0  0  0  0
   62.4260   49.9170   98.0240 H   0  0  0  0  0
   63.7350   48.6150   97.0180 H   0  0  0  0  0
   63.7060   46.7390   98.0200 H   0  0  0  0  0
   60.1300   46.2140   98.6350 H   0  0  0  0  0
   59.8880   48.0120   99.2560 H   0  0  0  0  0
   61.7410   46.8860  100.5790 H   0  0  0  0  0
   58.9500   46.6180  100.3060 H   0  0  0  0  0
   59.9580   47.9090  101.1070 H   0  0  0  0  0
   61.1130   47.4450  102.5030 H   0  0  0  0  0
   59.2820   47.3320  102.7390 H   0  0  0  0  0
   59.9720   45.3050  100.2020 H   0  0  0  0  0
   59.3250   44.7130  101.8540 H   0  0  0  0  0
   61.1470   44.8440  101.5660 H   0  0  0  0  0
   60.3500   44.7900  102.5720 H   0  0  0  0  0
   59.4430   46.2770  103.2540 H   0  0  0  0  0
   61.2660   46.3600  102.9580 H   0  0  0  0  0
  7  1  1  0  0  0
  2  1  1  0  0  0
  1  9  1  0  0  0
  4  2  1  0  0  0
  2  3  2  0  0  0
  5  4  2  0  0  0
 16  4  1  0  0  0
 17  5  1  0  0  0
  5  6  1  0  0  0
  6 18  1  0  0  0
  6  7  1  0  0  0
  7  8  2  0  0  0
 19  9  1  0  0  0
  9 20  1  0  0  0
  9 10  1  0  0  0
 10 21  1  0  0  0
 10 11  2  0  0  0
 22 11  1  0  0  0
 11 12  1  0  0  0
 14 12  1  0  0  0
 12 13  1  0  0  0
 12 15  1  0  0  0
 23 13  1  0  0  0
 13 24  1  0  0  0
 13 25  1  0  0  0
 26 14  1  0  0  0
 14 28  1  0  0  0
 14 27  1  0  0  0
 15 29  1  0  0  0
 15 31  1  0  0  0
 15 30  1  0  0  0
M  END
$$$$
23979_ChemDiv_8016-5004.pdb
 OpenBabel06131021493D

 26 17  0  0  0  0  0  0  0  0999 V2000
   60.5310   44.9260   98.6590 C   0  0  0  0  0
   61.2270   45.6760   98.9090 N   0  0  0  0  0
   61.9450   45.6210   99.6610 C   0  0  0  0  0
   62.4830   46.5120   99.6690 C   0  0  0  0  0
   62.0950   47.1240   98.9140 C   0  0  0  0  0
   61.3190   46.6080   98.4440 C   0  0  0  0  0
   60.6520   44.3780   97.7700 C   0  0  0  0  0
   61.5780   43.9610   97.5430 N   0  0  0  0  0
   59.8500   44.2530   97.1190 C   0  0  0  0  0
   59.1420   44.1630   96.5680 C   0  0  0  0  0
   59.4180   44.8640   97.5450 C   0  0  0  0  0
   60.2770   43.6610   96.7110 C   0  0  0  0  0
   60.4710   44.7960   99.7900 H   0  0  0  0  0
   62.1080   44.7650  100.3340 H   0  0  0  0  0
   63.3110   46.7650  100.3490 H   0  0  0  0  0
   62.4450   48.1370   98.6590 H   0  0  0  0  0
   60.7060   46.9790   97.6070 H   0  0  0  0  0
   59.6180   44.2750   97.3000 H   0  0  0  0  0
   62.4570   44.5390   97.1590 H   0  0  0  0  0
   59.3690   43.3670   95.7840 H   0  0  0  0  0
   58.9050   45.1580   96.0640 H   0  0  0  0  0
   58.2330   43.8420   97.1760 H   0  0  0  0  0
   58.4000   44.5240   97.9300 H   0  0  0  0  0
   59.1080   45.8180   97.0030 H   0  0  0  0  0
   60.3900   43.8640   95.5950 H   0  0  0  0  0
   59.8670   42.5980   96.6740 H   0  0  0  0  0
  7  1  1  0  0  0
  1  2  1  0  0  0
  1 13  1  0  0  0
  6  2  1  0  0  0
  2  3  1  0  0  0
  3  4  2  0  0  0
  3 14  1  0  0  0
  5  4  1  0  0  0
  4 15  1  0  0  0
  6  5  2  0  0  0
 16  5  1  0  0  0
 17  6  1  0  0  0
  9  7  1  0  0  0
  8  7  1  0  0  0
 19  8  1  0  0  0
 12  9  1  0  0  0
 18 11  1  0  0  0
M  END
$$$$
23979_ChemDiv_8016-5004.pdb
 OpenBabel06131021493D

 26 23  0  0  0  0  0  0  0  0999 V2000
   60.5730   44.8130   98.6270 C   0  0  0  0  0
   61.2330   45.5870   98.9050 N   0  0  0  0  0
   61.2590   46.5450   98.4990 C   0  0  0  0  0
   62.0140   47.0830   98.9740 C   0  0  0  0  0
   62.4580   46.4510   99.6800 C   0  0  0  0  0
   61.9750   45.5260   99.6370 C   0  0  0  0  0
   60.6720   44.3590   97.6840 C   0  0  0  0  0
   61.6070   44.0330   97.3630 N   0  0  0  0  0
   59.8390   44.2350   97.0730 C   0  0  0  0  0
   59.1050   44.1470   96.5570 C   0  0  0  0  0
   59.4370   44.8610   97.5070 C   0  0  0  0  0
   60.2380   43.6280   96.6570 C   0  0  0  0  0
   60.5660   44.5380   99.7330 H   0  0  0  0  0
   60.6000   46.9250   97.7020 H   0  0  0  0  0
   62.2940   48.1280   98.7700 H   0  0  0  0  0
   63.2900   46.7150  100.3520 H   0  0  0  0  0
   62.2070   44.6430  100.2540 H   0  0  0  0  0
   59.6250   44.5100   97.2600 H   0  0  0  0  0
   62.3920   44.6900   96.9080 H   0  0  0  0  0
   59.2770   43.3230   95.7880 H   0  0  0  0  0
   58.8700   45.1320   96.0340 H   0  0  0  0  0
   58.2160   43.8670   97.2140 H   0  0  0  0  0
   58.4000   44.5740   97.8840 H   0  0  0  0  0
   59.1750   45.8440   96.9920 H   0  0  0  0  0
   60.2410   43.7660   95.5250 H   0  0  0  0  0
   59.8610   42.5530   96.7080 H   0  0  0  0  0
 11  1  1  0  0  0
  7  1  1  0  0  0
  1  2  1  0  0  0
  1 13  1  0  0  0
  3  2  1  0  0  0
  2  6  1  0  0  0
 14  3  1  0  0  0
  3  4  2  0  0  0
 15  4  1  0  0  0
  4  5  1  0  0  0
  6  5  2  0  0  0
  5 16  1  0  0  0
  6 17  1  0  0  0
  9  7  1  0  0  0
  8  7  1  0  0  0
 19  8  1  0  0  0
 10  9  1  0  0  0
 12  9  1  0  0  0
  9 11  1  0  0  0
 24 11  1  0  0  0
 11 23  1  0  0  0
 25 12  1  0  0  0
 12 26  1  0  0  0
M  END
$$$$
23980_ChemDiv_000A-0637.pdb
 OpenBabel06131021493D

 41 42  0  0  0  0  0  0  0  0999 V2000
   61.5470   46.4740   95.7300 C   0  0  0  0  0
   60.8250   45.7790   95.9480 C   0  0  0  0  0
   60.7150   45.7870   96.9120 C   0  0  0  0  0
   61.3400   46.4640   97.3220 C   0  0  0  0  0
   61.8590   46.8870   96.5400 O   0  0  0  0  0
   61.3530   46.6000   98.3190 C   0  0  0  0  0
   60.7400   46.0590   98.9060 C   0  0  0  0  0
   60.1140   45.3820   98.4960 C   0  0  0  0  0
   60.1000   45.2440   97.4970 C   0  0  0  0  0
   61.9830   47.2820   98.7330 Cl  0  0  0  0  0
   60.2670   45.1470   95.3540 O   0  0  0  0  0
   61.1770   46.0020   94.9110 C   0  0  0  0  0
   61.5390   46.2520   93.9980 C   0  0  0  0  0
   62.2450   46.9450   93.8890 C   0  0  0  0  0
   62.6100   47.4130   94.7240 C   0  0  0  0  0
   62.2590   47.1770   95.6490 C   0  0  0  0  0
   62.6350   47.6550   96.4680 C   0  0  0  0  0
   62.5940   47.1800   92.9680 O   0  0  0  0  0
   60.4910   45.2920   94.7120 O   0  0  0  0  0
   60.2800   44.5350   94.7680 C   0  0  0  0  0
   59.4720   44.5650   97.0850 O   0  0  0  0  0
   58.4900   44.7730   96.9890 C   0  0  0  0  0
   60.7520   46.1950   99.9030 O   0  0  0  0  0
   60.0180   46.7150  100.3490 C   0  0  0  0  0
   60.0150   44.9870   96.0790 H   0  0  0  0  0
   62.0090   47.0550   96.6780 H   0  0  0  0  0
   59.4440   44.7920   99.1410 H   0  0  0  0  0
   61.1420   45.7450   93.1050 H   0  0  0  0  0
   62.5050   48.5390   94.5780 H   0  0  0  0  0
   63.6760   47.0120   94.7690 H   0  0  0  0  0
   63.4270   48.4070   96.1400 H   0  0  0  0  0
   63.0850   46.9000   97.1940 H   0  0  0  0  0
   61.7910   48.2070   97.0000 H   0  0  0  0  0
   60.9540   43.6170   94.7310 H   0  0  0  0  0
   59.5680   43.7950   94.2720 H   0  0  0  0  0
   57.9590   43.8870   96.5060 H   0  0  0  0  0
   58.3450   45.7120   96.3590 H   0  0  0  0  0
   58.0440   44.9600   98.0210 H   0  0  0  0  0
   60.2100   46.7570  101.4720 H   0  0  0  0  0
   59.0080   46.2310  100.1390 H   0  0  0  0  0
   60.0030   47.7760   99.9310 H   0  0  0  0  0
 12  1  1  0  0  0
 16  1  1  0  0  0
  1  2  1  0  0  0
  1  5  1  0  0  0
 12  2  1  0  0  0
  2  3  1  0  0  0
  3  4  2  0  0  0
  3  9  1  0  0  0
  4  6  1  0  0  0
 16  5  1  0  0  0
  6 10  1  0  0  0
  6  7  2  0  0  0
  8  7  1  0  0  0
  7 23  1  0  0  0
  9  8  2  0  0  0
  8 27  1  0  0  0
 21  9  1  0  0  0
 19 11  1  0  0  0
 11 25  1  0  0  0
 13 12  2  0  0  0
 28 13  1  0  0  0
 14 13  1  0  0  0
 18 14  2  0  0  0
 14 15  1  0  0  0
 29 15  1  0  0  0
 15 30  1  0  0  0
 15 16  1  0  0  0
 16 17  1  0  0  0
 17 26  1  0  0  0
 17 33  1  0  0  0
 17 32  1  0  0  0
 19 20  1  0  0  0
 35 20  1  0  0  0
 34 20  1  0  0  0
 22 21  1  0  0  0
 37 22  1  0  0  0
 36 22  1  0  0  0
 22 38  1  0  0  0
 23 24  1  0  0  0
 41 24  1  0  0  0
 40 24  1  0  0  0
 24 39  1  0  0  0
M  END
$$$$
23980_ChemDiv_000A-0637.pdb
 OpenBabel06131021493D

 41 40  0  0  0  0  0  0  0  0999 V2000
   61.6240   47.7590   97.3330 C   0  0  0  0  0
   61.4810   46.7470   97.4140 C   0  0  0  0  0
   61.7240   46.3640   96.5570 C   0  0  0  0  0
   62.0180   47.0940   95.9270 C   0  0  0  0  0
   61.9430   47.9750   96.4530 O   0  0  0  0  0
   62.3060   46.8660   94.9900 C   0  0  0  0  0
   62.2990   45.9080   94.6820 C   0  0  0  0  0
   62.0040   45.1770   95.3130 C   0  0  0  0  0
   61.7150   45.4030   96.2520 C   0  0  0  0  0
   62.6030   47.6030   94.3540 Cl  0  0  0  0  0
   61.1520   46.1510   98.1900 O   0  0  0  0  0
   61.2850   47.4680   98.2450 C   0  0  0  0  0
   61.1280   48.1740   98.9560 C   0  0  0  0  0
   61.2980   49.1380   98.7800 C   0  0  0  0  0
   61.6400   49.4180   97.8550 C   0  0  0  0  0
   61.8030   48.7250   97.1290 C   0  0  0  0  0
   62.1440   49.0240   96.2150 C   0  0  0  0  0
   61.1350   49.8270   99.5030 O   0  0  0  0  0
   61.0330   46.6060   98.7020 O   0  0  0  0  0
   61.2680   45.9140   98.9940 C   0  0  0  0  0
   61.4190   44.6700   96.8840 O   0  0  0  0  0
   60.5110   44.2440   96.7800 C   0  0  0  0  0
   62.5860   45.6800   93.7450 O   0  0  0  0  0
   63.4980   45.2940   93.5790 C   0  0  0  0  0
   61.2890   45.6410   97.6100 H   0  0  0  0  0
   62.0240   48.1420   96.2650 H   0  0  0  0  0
   61.9980   44.1290   94.9740 H   0  0  0  0  0
   60.7600   47.8660   99.9470 H   0  0  0  0  0
   60.9370   50.2130   97.4390 H   0  0  0  0  0
   62.7000   49.7630   98.0920 H   0  0  0  0  0
   62.2650   48.1150   95.5380 H   0  0  0  0  0
   63.1390   49.5700   96.3240 H   0  0  0  0  0
   61.3890   49.7400   95.7490 H   0  0  0  0  0
   62.2520   45.6740   99.5170 H   0  0  0  0  0
   60.9070   45.1140   99.7210 H   0  0  0  0  0
   60.3700   43.4470   97.5830 H   0  0  0  0  0
   60.4080   43.7820   95.7430 H   0  0  0  0  0
   59.7060   45.0430   96.9000 H   0  0  0  0  0
   63.6340   45.1050   92.4630 H   0  0  0  0  0
   63.6280   44.3230   94.1620 H   0  0  0  0  0
   64.2890   46.0350   93.9330 H   0  0  0  0  0
  5  1  1  0  0  0
 16  1  1  0  0  0
  1  2  1  0  0  0
  1 12  1  0  0  0
  3  2  1  0  0  0
  2 12  1  0  0  0
  4  3  2  0  0  0
  9  3  1  0  0  0
  6  4  1  0  0  0
 31  5  1  0  0  0
 10  6  1  0  0  0
  7  6  2  0  0  0
 23  7  1  0  0  0
  7  8  1  0  0  0
 27  8  1  0  0  0
  8  9  2  0  0  0
  9 21  1  0  0  0
 25 11  1  0  0  0
 11 19  1  0  0  0
 12 13  2  0  0  0
 14 13  1  0  0  0
 13 28  1  0  0  0
 15 14  1  0  0  0
 14 18  2  0  0  0
 16 15  1  0  0  0
 29 15  1  0  0  0
 15 30  1  0  0  0
 17 16  1  0  0  0
 17 26  1  0  0  0
 19 20  1  0  0  0
 20 34  1  0  0  0
 20 35  1  0  0  0
 22 21  1  0  0  0
 37 22  1  0  0  0
 22 38  1  0  0  0
 22 36  1  0  0  0
 24 23  1  0  0  0
 39 24  1  0  0  0
 24 41  1  0  0  0
 24 40  1  0  0  0
M  END
$$$$
23982_ChemDiv_000A-0666.pdb
 OpenBabel06131021493D

 54 60  0  0  0  0  0  0  0  0999 V2000
   62.1540   48.5000   97.7440 C   0  0  0  0  0
   62.1130   47.7050   97.1540 N   0  0  0  0  0
   62.7010   47.6500   96.3630 C   0  0  0  0  0
   63.3300   48.3880   96.1580 C   0  0  0  0  0
   63.3720   49.1810   96.7450 C   0  0  0  0  0
   62.7830   49.2380   97.5400 C   0  0  0  0  0
   62.8250   50.0320   98.1270 C   0  0  0  0  0
   62.2330   50.0930   98.9290 N   0  0  0  0  0
   61.6040   49.3550   99.1330 C   0  0  0  0  0
   61.5660   48.5560   98.5370 N   0  0  0  0  0
   60.9910   49.4060   99.9540 O   0  0  0  0  0
   63.4780   50.7980   97.9140 C   0  0  0  0  0
   64.0260   49.9470   96.5320 O   0  0  0  0  0
   61.4860   46.9700   97.3590 C   0  0  0  0  0
   60.8970   47.0260   98.1540 N   0  0  0  0  0
   60.2680   46.2890   98.3580 C   0  0  0  0  0
   60.2290   45.4960   97.7680 C   0  0  0  0  0
   60.8150   45.4390   96.9770 C   0  0  0  0  0
   61.4440   46.1760   96.7720 N   0  0  0  0  0
   60.7710   44.6040   96.3580 C   0  0  0  0  0
   59.6510   46.3460   99.1890 C   0  0  0  0  0
   62.6580   46.8150   95.7440 N   0  0  0  0  0
   62.4130   46.9320   94.7510 C   0  0  0  0  0
   63.1230   46.8940   94.0710 C   0  0  0  0  0
   62.8950   47.0060   93.1100 C   0  0  0  0  0
   61.9530   47.1550   92.8400 C   0  0  0  0  0
   61.2390   47.1920   93.5310 C   0  0  0  0  0
   61.4710   47.0810   94.4810 C   0  0  0  0  0
   62.2740   50.8880   99.5190 C   0  0  0  0  0
   61.6900   51.6600   99.3400 C   0  0  0  0  0
   61.7290   52.4580   99.9320 C   0  0  0  0  0
   62.3800   52.4750  100.7280 C   0  0  0  0  0
   62.9690   51.6930  100.9040 C   0  0  0  0  0
   62.9250   50.9050  100.3160 C   0  0  0  0  0
   63.9840   48.3240   95.2740 H   0  0  0  0  0
   60.8800   47.7490   98.7590 H   0  0  0  0  0
   63.7230   51.7650   98.3810 H   0  0  0  0  0
   59.5300   44.6750   97.9950 H   0  0  0  0  0
   61.5180   44.7230   95.5050 H   0  0  0  0  0
   59.7170   44.4740   95.9440 H   0  0  0  0  0
   61.0380   43.6750   96.9620 H   0  0  0  0  0
   59.0070   45.4080   99.2500 H   0  0  0  0  0
   58.9920   47.2740   99.1280 H   0  0  0  0  0
   60.2930   46.4210  100.1280 H   0  0  0  0  0
   64.1690   46.7280   94.3740 H   0  0  0  0  0
   63.6880   46.9650   92.3460 H   0  0  0  0  0
   61.6970   47.2790   91.7760 H   0  0  0  0  0
   60.1910   47.3570   93.2340 H   0  0  0  0  0
   60.6810   47.1230   95.2470 H   0  0  0  0  0
   60.9950   51.6400   98.4860 H   0  0  0  0  0
   61.0760   53.3230   99.7350 H   0  0  0  0  0
   62.4250   53.3580  101.3850 H   0  0  0  0  0
   63.6690   51.7090  101.7550 H   0  0  0  0  0
   63.5750   50.0380  100.5120 H   0  0  0  0  0
  2  1  2  0  0  0
  6  1  1  0  0  0
  1 10  1  0  0  0
  3  2  1  0  0  0
  2 14  1  0  0  0
 22  3  1  0  0  0
  4  3  2  0  0  0
 35  4  1  0  0  0
  4  5  1  0  0  0
 13  5  1  0  0  0
  5  6  2  0  0  0
  6  7  1  0  0  0
 12  7  2  0  0  0
  7  8  1  0  0  0
  8  9  1  0  0  0
  8 29  1  0  0  0
 10  9  1  0  0  0
  9 11  2  0  0  0
 13 12  1  0  0  0
 12 37  1  0  0  0
 19 14  2  0  0  0
 14 15  1  0  0  0
 15 16  2  0  0  0
 15 36  1  0  0  0
 17 16  1  0  0  0
 16 21  1  0  0  0
 18 17  2  0  0  0
 17 38  1  0  0  0
 20 18  1  0  0  0
 19 18  1  0  0  0
 22 19  1  0  0  0
 39 20  1  0  0  0
 40 20  1  0  0  0
 20 41  1  0  0  0
 43 21  1  0  0  0
 21 42  1  0  0  0
 21 44  1  0  0  0
 23 22  1  0  0  0
 24 23  2  0  0  0
 28 23  1  0  0  0
 25 24  1  0  0  0
 24 45  1  0  0  0
 46 25  1  0  0  0
 26 25  2  0  0  0
 47 26  1  0  0  0
 26 27  1  0  0  0
 48 27  1  0  0  0
 27 28  2  0  0  0
 28 49  1  0  0  0
 30 29  2  0  0  0
 29 34  1  0  0  0
 50 30  1  0  0  0
 30 31  1  0  0  0
 51 31  1  0  0  0
 31 32  2  0  0  0
 32 33  1  0  0  0
 32 52  1  0  0  0
 34 33  2  0  0  0
 33 53  1  0  0  0
 34 54  1  0  0  0
M  END
$$$$
23985_ChemDiv_0180-0383.pdb
 OpenBabel06131021493D

 39 40  0  0  0  0  0  0  0  0999 V2000
   61.2830   47.2210   99.0990 C   0  0  0  0  0
   60.5180   47.3560   99.7130 C   0  0  0  0  0
   59.7560   47.4870  100.3280 N   0  0  0  0  0
   61.3590   47.8160   98.2040 C   0  0  0  0  0
   62.1650   47.6630   97.5740 N   0  0  0  0  0
   62.0570   47.0480   96.7730 S   0  0  0  0  0
   61.2480   47.5790   96.4840 O   0  0  0  0  0
   62.8600   46.5340   97.0730 O   0  0  0  0  0
   61.9440   46.4470   95.9810 C   0  0  0  0  0
   62.3960   46.6680   95.1080 C   0  0  0  0  0
   62.9850   47.4180   94.8290 N   0  0  0  0  0
   62.2800   46.0700   94.3320 C   0  0  0  0  0
   63.2180   47.2730   93.8990 S   0  0  0  0  0
   62.7970   46.4540   93.5780 N   0  0  0  0  0
   61.7210   45.2540   94.4050 C   0  0  0  0  0
   61.2760   45.0320   95.2540 C   0  0  0  0  0
   61.3850   45.6310   96.0540 C   0  0  0  0  0
   63.0490   48.1100   97.7390 C   0  0  0  0  0
   63.2040   49.0460   97.4400 C   0  0  0  0  0
   63.8400   49.6370   97.9350 N   0  0  0  0  0
   64.8110   49.5990   97.7450 C   0  0  0  0  0
   65.1840   50.1890   97.0400 C   0  0  0  0  0
   63.4960   50.2720   98.6290 C   0  0  0  0  0
   63.4450   49.9900   99.5950 C   0  0  0  0  0
   62.0520   46.4670   99.3300 H   0  0  0  0  0
   60.5940   48.5720   97.9650 H   0  0  0  0  0
   61.5980   44.5940   93.5320 H   0  0  0  0  0
   60.6560   44.1240   95.3280 H   0  0  0  0  0
   60.8870   45.3830   97.0050 H   0  0  0  0  0
   63.2810   48.0460   98.8530 H   0  0  0  0  0
   63.7450   47.5220   97.0540 H   0  0  0  0  0
   62.1960   49.5750   97.3790 H   0  0  0  0  0
   63.7440   48.8930   96.4480 H   0  0  0  0  0
   65.4660   48.9140   98.3060 H   0  0  0  0  0
   64.5210   50.8710   96.4840 H   0  0  0  0  0
   66.2610   50.1620   96.8130 H   0  0  0  0  0
   63.1720   51.2830   98.3350 H   0  0  0  0  0
   63.7680   48.9800   99.8920 H   0  0  0  0  0
   63.0660   50.6920  100.3540 H   0  0  0  0  0
  4  1  2  0  0  0
  1 25  1  0  0  0
  1  2  1  0  0  0
  2  3  3  0  0  0
  5  4  1  0  0  0
 26  4  1  0  0  0
  6  5  1  0  0  0
  5 18  1  0  0  0
  9  6  1  0  0  0
  7  6  2  0  0  0
  6  8  2  0  0  0
 10  9  1  0  0  0
  9 17  2  0  0  0
 12 10  1  0  0  0
 11 10  2  0  0  0
 13 11  1  0  0  0
 14 12  2  0  0  0
 12 15  1  0  0  0
 14 13  1  0  0  0
 27 15  1  0  0  0
 15 16  2  0  0  0
 16 28  1  0  0  0
 16 17  1  0  0  0
 17 29  1  0  0  0
 31 18  1  0  0  0
 19 18  1  0  0  0
 18 30  1  0  0  0
 33 19  1  0  0  0
 32 19  1  0  0  0
 19 20  1  0  0  0
 21 20  1  0  0  0
 20 23  1  0  0  0
 22 21  2  0  0  0
 21 34  1  0  0  0
 35 22  1  0  0  0
 36 22  1  0  0  0
 37 23  1  0  0  0
 23 24  2  0  0  0
 24 38  1  0  0  0
 24 39  1  0  0  0
M  END
$$$$
23985_ChemDiv_0180-0383.pdb
 OpenBabel06131021493D

 37 38  0  0  0  0  0  0  0  0999 V2000
   63.4710   49.6320   97.5950 C   0  0  0  0  0
   63.2150   49.7070   96.6420 C   0  0  0  0  0
   62.9620   49.7810   95.6900 N   0  0  0  0  0
   62.7200   49.7400   98.3600 C   0  0  0  0  0
   62.9920   49.5950   99.3470 N   0  0  0  0  0
   63.1820   50.4030   99.9320 S   0  0  0  0  0
   64.0550   49.9820  100.2160 O   0  0  0  0  0
   62.3150   50.8050   99.6400 O   0  0  0  0  0
   63.3770   51.1950  100.5100 C   0  0  0  0  0
   63.8590   51.9950  100.1300 C   0  0  0  0  0
   64.2190   52.1920   99.2250 N   0  0  0  0  0
   64.0480   52.7720  100.7070 C   0  0  0  0  0
   64.6170   53.0760   99.2590 S   0  0  0  0  0
   64.5220   53.4460  100.1560 N   0  0  0  0  0
   63.7660   52.7730  101.6580 C   0  0  0  0  0
   63.2950   51.9960  102.0370 C   0  0  0  0  0
   63.0960   51.1960  101.4610 C   0  0  0  0  0
   63.0720   48.6730   99.7370 C   0  0  0  0  0
   62.2620   48.1840  100.0450 C   0  0  0  0  0
   62.3500   47.3150  100.5330 N   0  0  0  0  0
   62.3440   46.4600  100.0350 C   0  0  0  0  0
   61.4750   46.0180   99.8500 C   0  0  0  0  0
   62.4440   47.3080  101.5290 C   0  0  0  0  0
   61.6280   47.3780  102.1170 C   0  0  0  0  0
   64.5190   49.4390   97.8720 H   0  0  0  0  0
   61.6830   50.0000   98.0960 H   0  0  0  0  0
   63.9810   53.6470  102.2930 H   0  0  0  0  0
   62.9850   52.0030  103.0940 H   0  0  0  0  0
   62.5690   50.3260  101.8840 H   0  0  0  0  0
   64.0630   48.2000   99.8240 H   0  0  0  0  0
   61.2620   48.6020   99.8470 H   0  0  0  0  0
   63.2870   46.0060   99.6910 H   0  0  0  0  0
   60.5370   46.4800  100.1980 H   0  0  0  0  0
   61.4480   45.0660   99.2970 H   0  0  0  0  0
   63.4430   47.2230  101.9850 H   0  0  0  0  0
   60.6280   47.4630  101.6630 H   0  0  0  0  0
   61.7370   47.3700  103.2130 H   0  0  0  0  0
  2  1  1  0  0  0
  1 25  1  0  0  0
  1  4  2  0  0  0
  3  2  3  0  0  0
 26  4  1  0  0  0
  4  5  1  0  0  0
  5 18  1  0  0  0
  5  6  1  0  0  0
  8  6  2  0  0  0
  6  7  2  0  0  0
  6  9  1  0  0  0
 10  9  1  0  0  0
  9 17  2  0  0  0
 11 10  2  0  0  0
 10 12  1  0  0  0
 11 13  1  0  0  0
 14 12  2  0  0  0
 12 15  1  0  0  0
 13 14  1  0  0  0
 15 16  2  0  0  0
 15 27  1  0  0  0
 17 16  1  0  0  0
 16 28  1  0  0  0
 17 29  1  0  0  0
 18 30  1  0  0  0
 18 19  2  0  0  0
 31 19  1  0  0  0
 19 20  1  0  0  0
 21 20  1  0  0  0
 20 23  1  0  0  0
 32 21  1  0  0  0
 22 21  2  0  0  0
 34 22  1  0  0  0
 22 33  1  0  0  0
 23 35  1  0  0  0
 23 24  2  0  0  0
 36 24  1  0  0  0
 24 37  1  0  0  0
M  END
$$$$
23985_ChemDiv_0180-0383.pdb
 OpenBabel06131021493D

 37 38  0  0  0  0  0  0  0  0999 V2000
   65.3250   50.0960   98.4710 C   0  0  0  0  0
   66.2650   49.8430   98.2920 C   0  0  0  0  0
   67.2030   49.5900   98.1100 N   0  0  0  0  0
   65.0030   50.2740   99.4830 C   0  0  0  0  0
   63.9970   50.4250   99.6650 N   0  0  0  0  0
   63.4110   49.6280   99.8960 S   0  0  0  0  0
   62.8230   49.8400   99.1040 O   0  0  0  0  0
   64.0040   49.4320  100.6770 O   0  0  0  0  0
   62.8300   48.8450  100.1170 C   0  0  0  0  0
   62.9830   47.9550   99.6680 C   0  0  0  0  0
   63.6450   47.6520   98.9910 N   0  0  0  0  0
   62.4050   47.1880   99.8910 C   0  0  0  0  0
   63.4660   46.7160   98.8110 S   0  0  0  0  0
   62.7120   46.4150   99.3520 N   0  0  0  0  0
   61.6740   47.2850  100.5540 C   0  0  0  0  0
   61.5170   48.1500  100.9970 C   0  0  0  0  0
   62.0980   48.9410  100.7800 C   0  0  0  0  0
   63.5880   51.3400   99.6170 C   0  0  0  0  0
   63.6360   51.9550  100.3980 C   0  0  0  0  0
   63.4080   52.9230  100.2960 N   0  0  0  0  0
   64.1000   53.5730  100.0180 C   0  0  0  0  0
   64.6470   54.0200  100.7160 C   0  0  0  0  0
   62.4750   53.2380  100.4750 C   0  0  0  0  0
   61.8140   53.3250   99.7190 C   0  0  0  0  0
   64.6110   50.1950   97.6380 H   0  0  0  0  0
   65.7320   50.2950  100.3080 H   0  0  0  0  0
   61.0350   46.4210  100.7960 H   0  0  0  0  0
   60.7030   48.2510  101.7320 H   0  0  0  0  0
   61.9230   49.9090  101.2750 H   0  0  0  0  0
   63.0830   51.6660   98.6940 H   0  0  0  0  0
   63.9430   51.5660  101.3820 H   0  0  0  0  0
   64.2610   53.7970   98.9520 H   0  0  0  0  0
   64.4780   53.7890  101.7800 H   0  0  0  0  0
   65.4220   54.7470  100.4260 H   0  0  0  0  0
   62.1690   53.4910  101.5030 H   0  0  0  0  0
   62.1170   53.0730   98.6910 H   0  0  0  0  0
   60.7880   53.6720   99.9210 H   0  0  0  0  0
 25  1  1  0  0  0
  2  1  1  0  0  0
  1  4  2  0  0  0
  3  2  3  0  0  0
  4  5  1  0  0  0
  4 26  1  0  0  0
 18  5  1  0  0  0
  5  6  1  0  0  0
  7  6  2  0  0  0
  6  9  1  0  0  0
  6  8  2  0  0  0
 10  9  1  0  0  0
  9 17  2  0  0  0
 11 10  2  0  0  0
 10 12  1  0  0  0
 13 11  1  0  0  0
 14 12  2  0  0  0
 12 15  1  0  0  0
 13 14  1  0  0  0
 15 27  1  0  0  0
 15 16  2  0  0  0
 17 16  1  0  0  0
 16 28  1  0  0  0
 17 29  1  0  0  0
 30 18  1  0  0  0
 18 19  2  0  0  0
 20 19  1  0  0  0
 19 31  1  0  0  0
 21 20  1  0  0  0
 20 23  1  0  0  0
 32 21  1  0  0  0
 21 22  2  0  0  0
 34 22  1  0  0  0
 22 33  1  0  0  0
 24 23  2  0  0  0
 23 35  1  0  0  0
 36 24  1  0  0  0
 24 37  1  0  0  0
M  END
$$$$
