@<TRIPOS>MOLECULE
23878_ChemDiv_000A-0531
 20 21 0 0 0
SMALL
GASTEIGER
Energy = 0

@<TRIPOS>ATOM
      1 C          -1.8540    1.9790    0.0000 C.ar    1  LIG1        0.1696
      2 C          -1.8540    0.9630    0.0000 C.ar    1  LIG1        0.1528
      3 C          -0.9830    0.4710    0.0000 C.ar    1  LIG1        0.2831
      4 N          -0.1210    0.9630    0.0000 N.ar    1  LIG1       -0.2475
      5 C          -0.1210    1.9920    0.0000 C.ar    1  LIG1        0.3350
      6 N          -0.9830    2.4960    0.0000 N.ar    1  LIG1       -0.2628
      7 C          -0.9830    3.4880    0.0000 C.3     1  LIG1        0.1366
      8 O           0.7420    2.5080    0.0000 O.2     1  LIG1       -0.2461
      9 C           0.7420    0.4580    0.0000 C.3     1  LIG1        0.1136
     10 C           0.7290   -0.5380    0.0000 C.3     1  LIG1        0.0252
     11 C           1.5750   -1.0330    0.0000 C.3     1  LIG1        0.0097
     12 C           1.5750   -2.0170    0.0000 C.3     1  LIG1        0.0646
     13 C           2.4380   -2.5170    0.0000 C.2     1  LIG1        0.1511
     14 O           3.3960   -2.1130    0.0000 O.2     1  LIG1       -0.2960
     15 C           2.4210   -3.4830    0.0000 C.3     1  LIG1        0.0722
     16 O          -0.9830   -0.5250    0.0000 O.2     1  LIG1       -0.2652
     17 N          -2.7830    0.6670    0.0000 N.ar    1  LIG1       -0.3021
     18 C          -3.4000    1.4420    0.0000 C.ar    1  LIG1        0.1802
     19 N          -2.8040    2.2830    0.0000 N.ar    1  LIG1       -0.2063
     20 C          -3.0630   -0.2920    0.0000 C.3     1  LIG1        0.1322
@<TRIPOS>BOND
     1     1     2   ar
     2     1     6   ar
     3     1    19   ar
     4     2     3   ar
     5     2    17   ar
     6     3     4   ar
     7     3    16    2
     8     4     5   ar
     9     4     9    1
    10     5     6   ar
    11     5     8    2
    12     6     7    1
    13     9    10    1
    14    10    11    1
    15    11    12    1
    16    12    13    1
    17    13    14    2
    18    13    15    1
    19    17    18   ar
    20    17    20    1
    21    18    19   ar
