@<TRIPOS>MOLECULE
23879_ChemDiv_000A-0034
 27 29 0 0 0
SMALL
GASTEIGER
Energy = 0

@<TRIPOS>ATOM
      1 C          -0.4250    0.0080    0.0000 C.ar    1  LIG1        0.0368
      2 C          -0.4250   -0.9920    0.0000 C.ar    1  LIG1        0.0062
      3 C          -1.2670   -1.4790    0.0000 C.ar    1  LIG1        0.0401
      4 C          -1.2580   -2.5170    0.0000 C.ar    1  LIG1        0.1724
      5 C          -0.4250   -2.9960    0.0000 C.ar    1  LIG1        0.1724
      6 C           0.4630   -2.4880    0.0000 C.ar    1  LIG1        0.0400
      7 C           0.4630   -1.4790    0.0000 C.ar    1  LIG1        0.0033
      8 C           1.2960   -1.0170    0.0000 C.ar    1  LIG1        0.0001
      9 C           1.3250   -0.0170    0.0000 C.ar    1  LIG1       -0.0002
     10 C           0.4630    0.5080    0.0000 C.ar    1  LIG1       -0.0006
     11 C           0.4630    1.4830    0.0000 C.ar    1  LIG1       -0.0130
     12 C          -0.4250    1.9830    0.0000 C.ar    1  LIG1        0.0360
     13 C          -1.2580    1.5040    0.0000 C.ar    1  LIG1        0.1721
     14 C          -1.2670    0.5080    0.0000 C.ar    1  LIG1        0.1723
     15 O          -2.1630    0.0080    0.0000 O.3     1  LIG1       -0.4684
     16 C          -3.0210    0.5290    0.0000 C.3     1  LIG1        0.2526
     17 O          -2.1170    2.0630    0.0000 O.3     1  LIG1       -0.4684
     18 C          -3.0210    1.6000    0.0000 C.3     1  LIG1        0.2526
     19 C           1.3250    1.9960    0.0000 C.3     1  LIG1        0.0891
     20 C           1.2960    3.0040    0.0000 C.3     1  LIG1        0.1439
     21 N           2.1580    3.5000    0.0000 N.4     1  LIG1        0.3870
     22 C           3.0170    3.0040    0.0000 C.3     1  LIG1        0.2026
     23 C           2.1580    4.4920    0.0000 C.3     1  LIG1        0.2026
     24 O          -0.4420   -3.9710    0.0000 O.3     1  LIG1       -0.4684
     25 C           0.4210   -4.4920    0.0000 C.3     1  LIG1        0.2526
     26 O          -2.1170   -3.0460    0.0000 O.3     1  LIG1       -0.4684
     27 C          -3.0210   -2.5830    0.0000 C.3     1  LIG1        0.2526
@<TRIPOS>BOND
     1     1     2   ar
     2     1    10   ar
     3     1    14   ar
     4     2     3   ar
     5     2     7   ar
     6     3     4   ar
     7     4     5   ar
     8     4    26    1
     9     5     6   ar
    10     5    24    1
    11     6     7   ar
    12     7     8   ar
    13     8     9   ar
    14     9    10   ar
    15    10    11   ar
    16    11    12   ar
    17    11    19    1
    18    12    13   ar
    19    13    14   ar
    20    13    17    1
    21    14    15    1
    22    15    16    1
    23    17    18    1
    24    19    20    1
    25    20    21    1
    26    21    22    1
    27    21    23    1
    28    24    25    1
    29    26    27    1
