@<TRIPOS>MOLECULE
23876_ChemDiv_000A-0530
 22 25 0 0 0
SMALL
GASTEIGER
Energy = 0

@<TRIPOS>ATOM
      1 C          -1.2920   -0.4830    0.0000 C.ar    1  LIG1        0.0496
      2 C          -1.2920    0.5210    0.0000 C.2     1  LIG1        0.1764
      3 C          -0.4250    1.0420    0.0000 C.3     1  LIG1        0.0952
      4 C           0.4420    0.5210    0.0000 C.3     1  LIG1        0.1224
      5 N           0.4420   -0.4830    0.0000 N.pl3   1  LIG1       -0.2344
      6 C          -0.4250   -0.9830    0.0000 C.ar    1  LIG1        0.0683
      7 C          -0.4250   -1.9830    0.0000 C.ar    1  LIG1        0.0162
      8 C          -1.2920   -2.4830    0.0000 C.ar    1  LIG1        0.0013
      9 C          -2.1580   -1.9830    0.0000 C.ar    1  LIG1        0.0002
     10 C          -2.1580   -0.9830    0.0000 C.ar    1  LIG1        0.0040
     11 C          -3.0250   -0.4830    0.0000 C.ar    1  LIG1        0.0001
     12 C          -3.8920   -0.9830    0.0000 C.ar    1  LIG1        0.0000
     13 C          -3.8920   -1.9830    0.0000 C.ar    1  LIG1        0.0000
     14 C          -3.0250   -2.4830    0.0000 C.ar    1  LIG1        0.0000
     15 C           1.3130    1.0040    0.0000 C.ar    1  LIG1        0.0009
     16 C           2.1790    0.5080    0.0000 C.ar    1  LIG1        0.0394
     17 C           3.0460    1.0040    0.0000 C.ar    1  LIG1        0.1955
     18 O           3.8880    0.5040    0.0000 O.3     1  LIG1       -0.2866
     19 C           3.0670    2.0000    0.0000 C.ar    1  LIG1        0.0420
     20 C           2.2000    2.4880    0.0000 C.ar    1  LIG1        0.0030
     21 C           1.3290    2.0000    0.0000 C.ar    1  LIG1       -0.0024
     22 O          -2.1580    1.0420    0.0000 O.2     1  LIG1       -0.2912
@<TRIPOS>BOND
     1     1     2    1
     2     1     6   ar
     3     1    10   ar
     4     2     3    1
     5     2    22    2
     6     3     4    1
     7     4     5    1
     8     4    15    1
     9     5     6    1
    10     6     7   ar
    11     7     8   ar
    12     8     9   ar
    13     9    10   ar
    14     9    14   ar
    15    10    11   ar
    16    11    12   ar
    17    12    13   ar
    18    13    14   ar
    19    15    16   ar
    20    15    21   ar
    21    16    17   ar
    22    17    18    1
    23    17    19   ar
    24    19    20   ar
    25    20    21   ar
