@<TRIPOS>MOLECULE
23877_ChemDiv_000A-0018
 24 26 0 0 0
SMALL
GASTEIGER
Energy = 0

@<TRIPOS>ATOM
      1 N          -0.4080    0.2630    0.0000 N.am    1  LIG1       -0.2268
      2 C          -0.4080   -0.7460    0.0000 C.2     1  LIG1        0.2517
      3 C           0.4540   -1.2330    0.0000 C.3     1  LIG1        0.1801
      4 N           1.3080   -0.7460    0.0000 N.am    1  LIG1       -0.2628
      5 C           2.1710   -1.2330    0.0000 C.2     1  LIG1        0.2259
      6 O           2.1710   -2.2630    0.0000 O.2     1  LIG1       -0.2749
      7 C           3.0500   -0.7250    0.0000 C.3     1  LIG1        0.0767
      8 C           3.9000   -1.2080    0.0000 C.3     1  LIG1        0.0091
      9 C           4.7630   -0.7250    0.0000 C.3     1  LIG1        0.0005
     10 C           4.7630    0.2880    0.0000 C.3     1  LIG1        0.0000
     11 C           3.9000    0.7710    0.0000 C.3     1  LIG1        0.0005
     12 C           3.0500    0.2880    0.0000 C.3     1  LIG1        0.0091
     13 C           1.3080    0.2630    0.0000 C.3     1  LIG1        0.1801
     14 C           0.4540    0.7500    0.0000 C.2     1  LIG1        0.2517
     15 O           0.4540    1.7580    0.0000 O.2     1  LIG1       -0.2726
     16 O          -1.2880   -1.2500    0.0000 O.2     1  LIG1       -0.2726
     17 C          -1.2880    0.7710    0.0000 C.3     1  LIG1        0.1056
     18 C          -2.1630    0.2630    0.0000 C.3     1  LIG1        0.0483
     19 C          -3.0420    0.7710    0.0000 C.ar    1  LIG1       -0.0205
     20 C          -3.8960    0.2880    0.0000 C.ar    1  LIG1       -0.0042
     21 C          -4.7670    0.7710    0.0000 C.ar    1  LIG1       -0.0003
     22 C          -4.7670    1.7830    0.0000 C.ar    1  LIG1       -0.0000
     23 C          -3.8960    2.2670    0.0000 C.ar    1  LIG1       -0.0003
     24 C          -3.0420    1.7830    0.0000 C.ar    1  LIG1       -0.0042
@<TRIPOS>BOND
     1     1     2   am
     2     1    14   am
     3     1    17    1
     4     2     3    1
     5     2    16    2
     6     3     4    1
     7     4     5   am
     8     4    13    1
     9     5     6    2
    10     5     7    1
    11     7     8    1
    12     7    12    1
    13     8     9    1
    14     9    10    1
    15    10    11    1
    16    11    12    1
    17    13    14    1
    18    14    15    2
    19    17    18    1
    20    18    19    1
    21    19    20   ar
    22    19    24   ar
    23    20    21   ar
    24    21    22   ar
    25    22    23   ar
    26    23    24   ar
