@<TRIPOS>MOLECULE
23874_ChemDiv_000A-0528
 25 28 0 0 0
SMALL
GASTEIGER
Energy = 0

@<TRIPOS>ATOM
      1 C           2.0380   -0.8630    0.0000 C.ar    1  LIG1        0.2019
      2 O           3.0380   -0.8380    0.0000 O.2     1  LIG1       -0.4164
      3 C           3.5080    0.0380    0.0000 C.ar    1  LIG1        0.3458
      4 C           2.9500    0.9000    0.0000 C.ar    1  LIG1        0.0761
      5 C           1.9830    0.8460    0.0000 C.ar    1  LIG1        0.0094
      6 C           1.5250   -0.0420    0.0000 C.ar    1  LIG1        0.0425
      7 C           1.4540    1.6920    0.0000 C.ar    1  LIG1        0.0003
      8 C           1.8830    2.5830    0.0000 C.ar    1  LIG1        0.0000
      9 C           2.9000    2.6130    0.0000 C.ar    1  LIG1        0.0002
     10 C           3.3960    1.7790    0.0000 C.ar    1  LIG1        0.0065
     11 O           4.5130    0.1080    0.0000 O.2     1  LIG1       -0.2445
     12 C           1.5630   -1.7250    0.0000 C.2     1  LIG1        0.2840
     13 N           0.5580   -1.7250    0.0000 N.am    1  LIG1       -0.2701
     14 C           0.0710   -2.6040    0.0000 C.3     1  LIG1        0.1152
     15 C          -0.9500   -2.6040    0.0000 C.3     1  LIG1        0.1123
     16 N          -1.4790   -1.7580    0.0000 N.pl3   1  LIG1       -0.3041
     17 C          -0.9830   -0.8960    0.0000 C.3     1  LIG1        0.1123
     18 C           0.0290   -0.8710    0.0000 C.3     1  LIG1        0.1152
     19 C          -2.4750   -1.7580    0.0000 C.ar    1  LIG1        0.0479
     20 C          -2.9880   -2.6080    0.0000 C.ar    1  LIG1        0.0145
     21 C          -4.0040   -2.6040    0.0000 C.ar    1  LIG1        0.0013
     22 C          -4.5170   -1.7250    0.0000 C.ar    1  LIG1        0.0001
     23 C          -3.9960   -0.8710    0.0000 C.ar    1  LIG1        0.0013
     24 C          -2.9880   -0.8960    0.0000 C.ar    1  LIG1        0.0145
     25 O           2.0790   -2.5880    0.0000 O.2     1  LIG1       -0.2666
@<TRIPOS>BOND
     1     1     2   ar
     2     1     6   ar
     3     1    12    1
     4     2     3   ar
     5     3     4   ar
     6     3    11    2
     7     4     5   ar
     8     4    10   ar
     9     5     6   ar
    10     5     7   ar
    11     7     8   ar
    12     8     9   ar
    13     9    10   ar
    14    12    13   am
    15    12    25    2
    16    13    14    1
    17    13    18    1
    18    14    15    1
    19    15    16    1
    20    16    17    1
    21    16    19    1
    22    17    18    1
    23    19    20   ar
    24    19    24   ar
    25    20    21   ar
    26    21    22   ar
    27    22    23   ar
    28    23    24   ar
