@<TRIPOS>MOLECULE
23882_ChemDiv_1486-0459
 32 34 0 0 0
SMALL
GASTEIGER
Energy = 0

@<TRIPOS>ATOM
      1 C          -2.4460   -2.6000    0.0000 C.ar    1  LIG1        0.1701
      2 N          -1.5170   -2.8830    0.0000 N.ar    1  LIG1       -0.2035
      3 C          -0.9500   -2.0710    0.0000 C.ar    1  LIG1        0.1733
      4 N          -1.5170   -1.2920    0.0000 N.ar    1  LIG1       -0.3015
      5 C          -2.4460   -1.5920    0.0000 C.ar    1  LIG1        0.1547
      6 C          -3.3040   -1.0960    0.0000 C.ar    1  LIG1        0.3019
      7 N          -4.1880   -1.5920    0.0000 N.ar    1  LIG1       -0.1518
      8 C          -4.1880   -2.6000    0.0000 C.ar    1  LIG1        0.3540
      9 N          -3.3040   -3.1000    0.0000 N.ar    1  LIG1       -0.2614
     10 C          -3.3040   -4.0960    0.0000 C.3     1  LIG1        0.1367
     11 O          -5.0790   -3.1000    0.0000 O.2     1  LIG1       -0.2443
     12 O          -3.3040   -0.0710    0.0000 O.2     1  LIG1       -0.2634
     13 C          -1.1880   -0.3380    0.0000 C.3     1  LIG1        0.1082
     14 C          -0.1790   -0.1420    0.0000 C.3     1  LIG1        0.0246
     15 C           0.1540    0.8130    0.0000 C.3     1  LIG1        0.0020
     16 C           1.1330    0.9750    0.0000 C.3     1  LIG1        0.0001
     17 C           1.4920    1.9080    0.0000 C.3     1  LIG1        0.0000
     18 C           2.4670    2.0750    0.0000 C.3     1  LIG1        0.0000
     19 C           2.8040    3.0130    0.0000 C.3     1  LIG1        0.0000
     20 C           3.7750    3.1790    0.0000 C.3     1  LIG1        0.0000
     21 C           4.1330    4.0960    0.0000 C.3     1  LIG1        0.0000
     22 S           0.0580   -2.0250    0.0000 S.3     1  LIG1       -0.0674
     23 C           0.5830   -2.8830    0.0000 C.3     1  LIG1        0.1519
     24 C           1.5880   -2.8580    0.0000 C.2     1  LIG1        0.2570
     25 N           2.0880   -1.9790    0.0000 N.am    1  LIG1       -0.1785
     26 C           3.0750   -1.9670    0.0000 C.ar    1  LIG1        0.0734
     27 C           3.6000   -2.8170    0.0000 C.ar    1  LIG1        0.0166
     28 C           4.5920   -2.7880    0.0000 C.ar    1  LIG1        0.0013
     29 C           5.0750   -1.9210    0.0000 C.ar    1  LIG1        0.0001
     30 C           4.5500   -1.0580    0.0000 C.ar    1  LIG1        0.0013
     31 C           3.5380   -1.0960    0.0000 C.ar    1  LIG1        0.0166
     32 O           2.1080   -3.7210    0.0000 O.2     1  LIG1       -0.2720
@<TRIPOS>BOND
     1     1     2   ar
     2     1     5   ar
     3     1     9   ar
     4     2     3   ar
     5     3     4   ar
     6     3    22    1
     7     4     5   ar
     8     4    13    1
     9     5     6   ar
    10     6     7   ar
    11     6    12    2
    12     7     8   ar
    13     8     9   ar
    14     8    11    2
    15     9    10    1
    16    13    14    1
    17    14    15    1
    18    15    16    1
    19    16    17    1
    20    17    18    1
    21    18    19    1
    22    19    20    1
    23    20    21    1
    24    22    23    1
    25    23    24    1
    26    24    25   am
    27    24    32    2
    28    25    26    1
    29    26    27   ar
    30    26    31   ar
    31    27    28   ar
    32    28    29   ar
    33    29    30   ar
    34    30    31   ar
