@<TRIPOS>MOLECULE
23880_ChemDiv_000A-0570
 22 23 0 0 0
SMALL
GASTEIGER
Energy = 0

@<TRIPOS>ATOM
      1 C          -1.5170   -0.4540    0.0000 C.ar    1  LIG1        0.1701
      2 N          -0.6540   -0.9500    0.0000 N.ar    1  LIG1       -0.2035
      3 C           0.1500   -0.4540    0.0000 C.ar    1  LIG1        0.1730
      4 N           0.1540    0.5380    0.0000 N.ar    1  LIG1       -0.2989
      5 C          -1.5170    0.5380    0.0000 C.ar    1  LIG1        0.1548
      6 C          -2.3250    1.0330    0.0000 C.ar    1  LIG1        0.3019
      7 N          -3.1500    0.5380    0.0000 N.ar    1  LIG1       -0.1518
      8 C          -3.1500   -0.4540    0.0000 C.ar    1  LIG1        0.3540
      9 N          -2.3250   -0.9080    0.0000 N.ar    1  LIG1       -0.2614
     10 C          -2.3250   -1.8790    0.0000 C.3     1  LIG1        0.1367
     11 O          -4.0000   -0.9500    0.0000 O.2     1  LIG1       -0.2443
     12 O          -2.3250    1.9670    0.0000 O.2     1  LIG1       -0.2634
     13 C           1.0790    1.0330    0.0000 C.3     1  LIG1        0.1401
     14 C           1.9500    0.5380    0.0000 C.3     1  LIG1        0.1667
     15 O           2.8170    1.0330    0.0000 O.3     1  LIG1       -0.3490
     16 C           3.6880    0.5380    0.0000 C.3     1  LIG1        0.1742
     17 S           0.8330   -1.1330    0.0000 S.3     1  LIG1       -0.0769
     18 C           1.7630   -0.8880    0.0000 C.3     1  LIG1        0.0710
     19 C           2.4460   -1.5670    0.0000 C.3     1  LIG1        0.0538
     20 C           3.3330   -1.3210    0.0000 C.2     1  LIG1        0.0512
     21 O           3.5670   -0.3920    0.0000 O.co2   1  LIG1       -0.5491
     22 O           3.9960   -1.9630    0.0000 O.co2   1  LIG1       -0.5491
@<TRIPOS>BOND
     1     1     2   ar
     2     1     5   ar
     3     1     9   ar
     4     2     3   ar
     5     3     4   ar
     6     3    17    1
     7     4     5   ar
     8     4    13    1
     9     5     6   ar
    10     6     7   ar
    11     6    12    2
    12     7     8   ar
    13     8     9   ar
    14     8    11    2
    15     9    10    1
    16    13    14    1
    17    14    15    1
    18    15    16    1
    19    17    18    1
    20    18    19    1
    21    19    20    1
    22    20    21   ar
    23    20    22   ar
