@<TRIPOS>MOLECULE
23883_ChemDiv_000A-0047
 23 25 0 0 0
SMALL
GASTEIGER
Energy = 0

@<TRIPOS>ATOM
      1 C          -1.2790    1.2710    0.0000 C.ar    1  LIG1        0.0791
      2 C          -0.4420    1.7420    0.0000 C.2     1  LIG1        0.2071
      3 C           0.4290    1.2710    0.0000 C.3     1  LIG1        0.2242
      4 C           0.4290    0.2540    0.0000 C.3     1  LIG1        0.1221
      5 C          -0.4420   -0.2290    0.0000 C.2     1  LIG1        0.1799
      6 C          -1.2790    0.2540    0.0000 C.ar    1  LIG1        0.0442
      7 C          -2.1420   -0.2290    0.0000 C.ar    1  LIG1        0.0452
      8 C          -3.0130    0.2540    0.0000 C.ar    1  LIG1        0.1990
      9 C          -3.0130    1.2710    0.0000 C.ar    1  LIG1        0.0841
     10 C          -2.1420    1.7420    0.0000 C.ar    1  LIG1        0.2018
     11 O          -2.1420    2.7580    0.0000 O.3     1  LIG1       -0.2864
     12 O          -3.8750   -0.2500    0.0000 O.3     1  LIG1       -0.2865
     13 O          -0.4420   -1.2380    0.0000 O.2     1  LIG1       -0.2909
     14 C           1.2960   -0.2500    0.0000 C.ar    1  LIG1       -0.0089
     15 C           1.2710   -1.2670    0.0000 C.ar    1  LIG1        0.0416
     16 C           2.1330   -1.7420    0.0000 C.ar    1  LIG1        0.2340
     17 C           3.0080   -1.2670    0.0000 C.ar    1  LIG1        0.2342
     18 C           3.0330   -0.2500    0.0000 C.ar    1  LIG1        0.0451
     19 C           2.1330    0.2540    0.0000 C.ar    1  LIG1       -0.0003
     20 O           3.8710   -1.7710    0.0000 O.3     1  LIG1       -0.2831
     21 O           2.1330   -2.7540    0.0000 O.3     1  LIG1       -0.2832
     22 O           1.2960    1.7670    0.0000 O.3     1  LIG1       -0.2139
     23 O          -0.4420    2.7580    0.0000 O.2     1  LIG1       -0.2885
@<TRIPOS>BOND
     1     1     2    1
     2     1     6   ar
     3     1    10   ar
     4     2     3    1
     5     2    23    2
     6     3     4    1
     7     3    22    1
     8     4     5    1
     9     4    14    1
    10     5     6    1
    11     5    13    2
    12     6     7   ar
    13     7     8   ar
    14     8     9   ar
    15     8    12    1
    16     9    10   ar
    17    10    11    1
    18    14    15   ar
    19    14    19   ar
    20    15    16   ar
    21    16    17   ar
    22    16    21    1
    23    17    18   ar
    24    17    20    1
    25    18    19   ar
