@<TRIPOS>MOLECULE
23885_ChemDiv_000A-0051
 31 32 0 0 0
SMALL
GASTEIGER
Energy = 0

@<TRIPOS>ATOM
      1 S          -3.8580    0.7960    0.0000 S.O2    1  LIG1        0.0092
      2 C          -2.8750    1.0500    0.0000 C.ar    1  LIG1        0.1057
      3 C          -2.1000    0.3670    0.0000 C.ar    1  LIG1        0.0180
      4 C          -1.1460    0.7460    0.0000 C.ar    1  LIG1       -0.0026
      5 C          -0.9830    1.7040    0.0000 C.ar    1  LIG1       -0.0177
      6 C          -0.0750    2.0330    0.0000 C.3     1  LIG1        0.0526
      7 C           0.7000    1.4080    0.0000 C.ar    1  LIG1       -0.0177
      8 C           0.5290    0.4540    0.0000 C.ar    1  LIG1       -0.0026
      9 C           1.2880   -0.1880    0.0000 C.ar    1  LIG1        0.0180
     10 C           2.2580    0.1420    0.0000 C.ar    1  LIG1        0.1057
     11 S           3.0460   -0.4830    0.0000 S.O2    1  LIG1        0.0092
     12 C           3.8460   -1.1330    0.0000 C.3     1  LIG1        0.1676
     13 C           4.7670   -0.7540    0.0000 C.3     1  LIG1        0.1352
     14 C           5.5460   -1.3920    0.0000 C.2     1  LIG1        0.3189
     15 O           5.3750   -2.3420    0.0000 O.2     1  LIG1       -0.2500
     16 O           6.4790   -1.0130    0.0000 O.3     1  LIG1       -0.4443
     17 C           7.2330   -1.6630    0.0000 C.3     1  LIG1        0.2556
     18 O           3.6580    0.3250    0.0000 O.2     1  LIG1       -0.1686
     19 O           2.3920   -1.2670    0.0000 O.2     1  LIG1       -0.1686
     20 C           2.4210    1.1380    0.0000 C.ar    1  LIG1        0.0180
     21 C           1.6330    1.7630    0.0000 C.ar    1  LIG1       -0.0026
     22 C          -1.7380    2.3460    0.0000 C.ar    1  LIG1       -0.0026
     23 C          -2.6790    2.0330    0.0000 C.ar    1  LIG1        0.0180
     24 C          -4.8250    0.5210    0.0000 C.3     1  LIG1        0.1676
     25 C          -5.0830   -0.4500    0.0000 C.3     1  LIG1        0.1352
     26 C          -6.0630   -0.7130    0.0000 C.2     1  LIG1        0.3189
     27 O          -6.7420   -0.0290    0.0000 O.2     1  LIG1       -0.2500
     28 O          -6.2880   -1.6630    0.0000 O.3     1  LIG1       -0.4443
     29 C          -7.2330   -1.9210    0.0000 C.3     1  LIG1        0.2556
     30 O          -3.5880   -0.1880    0.0000 O.2     1  LIG1       -0.1686
     31 O          -4.1170    1.7630    0.0000 O.2     1  LIG1       -0.1686
@<TRIPOS>BOND
     1     1     2    1
     2     1    24    1
     3     1    30    2
     4     1    31    2
     5     2     3   ar
     6     2    23   ar
     7     3     4   ar
     8     4     5   ar
     9     5     6    1
    10     5    22   ar
    11     6     7    1
    12     7     8   ar
    13     7    21   ar
    14     8     9   ar
    15     9    10   ar
    16    10    11    1
    17    10    20   ar
    18    11    12    1
    19    11    18    2
    20    11    19    2
    21    12    13    1
    22    13    14    1
    23    14    15    2
    24    14    16    1
    25    16    17    1
    26    20    21   ar
    27    22    23   ar
    28    24    25    1
    29    25    26    1
    30    26    27    2
    31    26    28    1
    32    28    29    1
