@<TRIPOS>MOLECULE
23886_ChemDiv_3277-0481
 22 23 0 0 0
SMALL
GASTEIGER
Energy = 0

@<TRIPOS>ATOM
      1 C          -1.4330    0.7330    0.0000 C.ar    1  LIG1        0.1704
      2 C          -0.7330    0.0080    0.0000 C.ar    1  LIG1        0.1533
      3 C          -1.0330   -0.9540    0.0000 C.ar    1  LIG1        0.2832
      4 N          -1.9920   -1.1790    0.0000 N.ar    1  LIG1       -0.2454
      5 C          -2.6710   -0.4580    0.0000 C.ar    1  LIG1        0.3350
      6 N          -2.4040    0.5080    0.0000 N.ar    1  LIG1       -0.2628
      7 C          -3.0880    1.2290    0.0000 C.3     1  LIG1        0.1366
      8 O          -3.6460   -0.6880    0.0000 O.2     1  LIG1       -0.2461
      9 C          -2.2670   -2.1290    0.0000 C.3     1  LIG1        0.1383
     10 O          -0.3460   -1.6750    0.0000 O.2     1  LIG1       -0.2652
     11 N           0.1670    0.4460    0.0000 N.ar    1  LIG1       -0.2974
     12 C           0.0330    1.4460    0.0000 C.ar    1  LIG1        0.2065
     13 N          -0.9500    1.6130    0.0000 N.ar    1  LIG1       -0.1989
     14 CL          0.7670    2.1330    0.0000 Cl      1  LIG1       -0.0426
     15 C           1.0380   -0.0250    0.0000 C.3     1  LIG1        0.1085
     16 C           1.0750   -1.0290    0.0000 C.3     1  LIG1        0.0246
     17 C           1.9540   -1.4960    0.0000 C.3     1  LIG1        0.0020
     18 C           2.8130   -0.9790    0.0000 C.3     1  LIG1        0.0001
     19 C           2.7750    0.0250    0.0000 C.3     1  LIG1        0.0000
     20 C           3.6420    0.5580    0.0000 C.3     1  LIG1        0.0000
     21 C           3.5960    1.5630    0.0000 C.3     1  LIG1        0.0000
     22 C           2.7080    2.0290    0.0000 C.3     1  LIG1        0.0000
@<TRIPOS>BOND
     1     1     2   ar
     2     1     6   ar
     3     1    13   ar
     4     2     3   ar
     5     2    11   ar
     6     3     4   ar
     7     3    10    2
     8     4     5   ar
     9     4     9    1
    10     5     6   ar
    11     5     8    2
    12     6     7    1
    13    11    12   ar
    14    11    15    1
    15    12    13   ar
    16    12    14    1
    17    15    16    1
    18    16    17    1
    19    17    18    1
    20    18    19    1
    21    19    20    1
    22    20    21    1
    23    21    22    1
