@<TRIPOS>MOLECULE
23884_ChemDiv_1863-1069
 20 21 0 0 0
SMALL
GASTEIGER
Energy = 0

@<TRIPOS>ATOM
      1 C          -0.9790   -0.7500    0.0000 C.ar    1  LIG1        0.1701
      2 C          -0.9790    0.2500    0.0000 C.ar    1  LIG1        0.1547
      3 C          -1.8330    0.7460    0.0000 C.ar    1  LIG1        0.3019
      4 N          -2.7040    0.2500    0.0000 N.ar    1  LIG1       -0.1518
      5 C          -2.7040   -0.7500    0.0000 C.ar    1  LIG1        0.3540
      6 N          -1.8330   -1.2750    0.0000 N.ar    1  LIG1       -0.2614
      7 C          -1.8330   -2.2670    0.0000 C.3     1  LIG1        0.1367
      8 O          -3.5580   -1.2750    0.0000 O.2     1  LIG1       -0.2443
      9 O          -1.8330    1.7460    0.0000 O.2     1  LIG1       -0.2634
     10 N          -0.0290    0.5420    0.0000 N.ar    1  LIG1       -0.3034
     11 C           0.5500   -0.2540    0.0000 C.ar    1  LIG1        0.1733
     12 N          -0.0290   -1.0710    0.0000 N.ar    1  LIG1       -0.2035
     13 S           1.5460   -0.2540    0.0000 S.3     1  LIG1       -0.0673
     14 C           2.0420   -1.1330    0.0000 C.3     1  LIG1        0.1532
     15 C           3.0290   -1.1330    0.0000 C.2     1  LIG1        0.2722
     16 O           3.4830   -0.2750    0.0000 O.2     1  LIG1       -0.2707
     17 N           3.5540   -1.9960    0.0000 N.am    1  LIG1       -0.0870
     18 C           0.3000    1.4960    0.0000 C.3     1  LIG1        0.0877
     19 C           1.2920    1.7040    0.0000 C.3     1  LIG1        0.0245
     20 C          -0.3580    2.2710    0.0000 C.3     1  LIG1        0.0245
@<TRIPOS>BOND
     1     1     2   ar
     2     1     6   ar
     3     1    12   ar
     4     2     3   ar
     5     2    10   ar
     6     3     4   ar
     7     3     9    2
     8     4     5   ar
     9     5     6   ar
    10     5     8    2
    11     6     7    1
    12    10    11   ar
    13    10    18    1
    14    11    12   ar
    15    11    13    1
    16    13    14    1
    17    14    15    1
    18    15    16    2
    19    15    17   am
    20    18    19    1
    21    18    20    1
