@<TRIPOS>MOLECULE
23894_ChemDiv_000A-0301
 21 24 0 0 0
SMALL
GASTEIGER
Energy = 0

@<TRIPOS>ATOM
      1 C           0.7080   -1.6790    0.0000 C.ar    1  LIG1        0.0949
      2 C           0.0880   -0.9000    0.0000 C.ar    1  LIG1        0.0242
      3 C           0.3630    0.0500    0.0000 C.ar    1  LIG1        0.0497
      4 C           1.3290    0.2960    0.0000 C.ar    1  LIG1        0.0614
      5 N           2.0290   -0.4040    0.0000 N.ar    1  LIG1       -0.2524
      6 C           1.7500   -1.3670    0.0000 C.ar    1  LIG1        0.0765
      7 C           2.5540   -1.9920    0.0000 C.3     1  LIG1        0.0537
      8 C           1.6080    1.2630    0.0000 C.3     1  LIG1        0.0463
      9 C           0.9210    1.9750    0.0000 C.3     1  LIG1        0.0128
     10 C          -0.0380    1.7290    0.0000 C.3     1  LIG1        0.0695
     11 C          -0.3210    0.7630    0.0000 C.2     1  LIG1        0.1742
     12 O          -1.3130    0.5420    0.0000 O.2     1  LIG1       -0.2913
     13 C           0.3630    2.8290    0.0000 C.3     1  LIG1        0.0008
     14 C           1.7500    2.5380    0.0000 C.3     1  LIG1        0.0008
     15 C          -0.8170   -1.2710    0.0000 C.ar    1  LIG1        0.0193
     16 C          -0.7580   -2.2710    0.0000 C.ar    1  LIG1        0.0813
     17 N           0.1420   -2.5170    0.0000 N.ar    1  LIG1       -0.2442
     18 C          -1.5920   -2.8250    0.0000 C.ar    1  LIG1        0.0191
     19 C          -2.5000   -2.3580    0.0000 C.ar    1  LIG1        0.0015
     20 C          -2.5580   -1.4000    0.0000 C.ar    1  LIG1        0.0001
     21 C          -1.7210   -0.8580    0.0000 C.ar    1  LIG1        0.0015
@<TRIPOS>BOND
     1     1     2   ar
     2     1     6   ar
     3     1    17   ar
     4     2     3   ar
     5     2    15   ar
     6     3     4   ar
     7     3    11    1
     8     4     5   ar
     9     4     8    1
    10     5     6   ar
    11     6     7    1
    12     8     9    1
    13     9    10    1
    14     9    13    1
    15     9    14    1
    16    10    11    1
    17    11    12    2
    18    15    16   ar
    19    15    21   ar
    20    16    17   ar
    21    16    18   ar
    22    18    19   ar
    23    19    20   ar
    24    20    21   ar
