@<TRIPOS>MOLECULE
23890_ChemDiv_C066-4409
 18 19 0 0 0
SMALL
GASTEIGER
Energy = 0

@<TRIPOS>ATOM
      1 C          -0.0290   -1.1080    0.0000 C.ar    1  LIG1        0.0314
      2 C           0.8460   -0.6040    0.0000 C.ar    1  LIG1        0.0794
      3 N           0.8420    0.4040    0.0000 N.ar    1  LIG1       -0.2941
      4 C          -0.0290    0.9000    0.0000 C.ar    1  LIG1        0.2608
      5 C          -0.8920    0.4040    0.0000 C.ar    1  LIG1        0.0563
      6 C          -0.8960   -0.6040    0.0000 C.ar    1  LIG1        0.0071
      7 C          -1.7580   -1.1040    0.0000 C.ar    1  LIG1        0.0002
      8 C          -2.6210   -0.6040    0.0000 C.ar    1  LIG1        0.0000
      9 C          -2.6210    0.3920    0.0000 C.ar    1  LIG1        0.0002
     10 C          -1.7580    0.9000    0.0000 C.ar    1  LIG1        0.0047
     11 O          -0.0290    1.9000    0.0000 O.2     1  LIG1       -0.2670
     12 C           1.7040    0.9000    0.0000 C.3     1  LIG1        0.1090
     13 C           1.6920    1.9000    0.0000 C.3     1  LIG1        0.0227
     14 C           0.9830    2.6080    0.0000 C.3     1  LIG1        0.0020
     15 C           2.6170    2.2830    0.0000 C.3     1  LIG1        0.0020
     16 C          -0.0290   -2.1080    0.0000 C.2     1  LIG1        0.0743
     17 O           0.8330   -2.6040    0.0000 O.co2   1  LIG1       -0.5445
     18 O          -0.8920   -2.6040    0.0000 O.co2   1  LIG1       -0.5445
@<TRIPOS>BOND
     1     1     2   ar
     2     1     6   ar
     3     1    16    1
     4     2     3   ar
     5     3     4   ar
     6     3    12    1
     7     4     5   ar
     8     4    11    2
     9     5     6   ar
    10     5    10   ar
    11     6     7   ar
    12     7     8   ar
    13     8     9   ar
    14     9    10   ar
    15    12    13    1
    16    13    14    1
    17    13    15    1
    18    16    17   ar
    19    16    18   ar
