@<TRIPOS>MOLECULE
23891_ChemDiv_6016-3115
 33 37 0 0 0
SMALL
GASTEIGER
Energy = 0

@<TRIPOS>ATOM
      1 N          -0.8880    1.0330    0.0000 N.ar    1  LIG1       -0.2072
      2 N          -0.8880    2.0210    0.0000 N.ar    1  LIG1       -0.1664
      3 C          -1.7330    2.5380    0.0000 C.ar    1  LIG1        0.1011
      4 C          -2.6000    2.0210    0.0000 C.ar    1  LIG1        0.0240
      5 C          -2.6000    1.0330    0.0000 C.ar    1  LIG1        0.0591
      6 C          -1.7330    0.5170    0.0000 C.ar    1  LIG1        0.2768
      7 O          -1.7330   -0.4580    0.0000 O.2     1  LIG1       -0.2655
      8 C          -3.4540    0.5170    0.0000 C.ar    1  LIG1        0.0048
      9 C          -4.3250    1.0330    0.0000 C.ar    1  LIG1        0.0002
     10 C          -4.3250    2.0210    0.0000 C.ar    1  LIG1        0.0001
     11 C          -3.4540    2.5380    0.0000 C.ar    1  LIG1        0.0017
     12 C          -1.7330    3.5250    0.0000 C.ar    1  LIG1        0.0193
     13 C          -0.8880    4.0370    0.0000 C.ar    1  LIG1        0.0016
     14 C          -0.8880    5.0250    0.0000 C.ar    1  LIG1        0.0000
     15 C          -1.7330    5.5420    0.0000 C.ar    1  LIG1        0.0000
     16 C          -2.6000    5.0250    0.0000 C.ar    1  LIG1        0.0000
     17 C          -2.6000    4.0370    0.0000 C.ar    1  LIG1        0.0016
     18 C           0.0000    0.5040    0.0000 C.3     1  LIG1        0.2153
     19 C           0.0000   -0.5130    0.0000 C.2     1  LIG1        0.2506
     20 N           0.8420   -1.0250    0.0000 N.am    1  LIG1       -0.2779
     21 C           0.8420   -2.0170    0.0000 C.3     1  LIG1        0.0935
     22 C           1.7130   -2.5250    0.0000 C.3     1  LIG1        0.0219
     23 C           2.5670   -2.0170    0.0000 C.3     1  LIG1        0.0078
     24 C           3.4580   -2.5330    0.0000 C.3     1  LIG1        0.0265
     25 C           3.4580   -3.5670    0.0000 C.ar    1  LIG1       -0.0222
     26 C           4.3210   -4.0370    0.0000 C.ar    1  LIG1       -0.0043
     27 C           4.3210   -5.0710    0.0000 C.ar    1  LIG1       -0.0003
     28 C           3.4580   -5.5420    0.0000 C.ar    1  LIG1       -0.0000
     29 C           2.5880   -5.0710    0.0000 C.ar    1  LIG1       -0.0003
     30 C           2.5880   -4.0370    0.0000 C.ar    1  LIG1       -0.0043
     31 C           2.5670   -1.0250    0.0000 C.3     1  LIG1        0.0219
     32 C           1.7130   -0.5130    0.0000 C.3     1  LIG1        0.0935
     33 O          -0.8460   -1.0250    0.0000 O.2     1  LIG1       -0.2727
@<TRIPOS>BOND
     1     1     2   ar
     2     1     6   ar
     3     1    18    1
     4     2     3   ar
     5     3     4   ar
     6     3    12    1
     7     4     5   ar
     8     4    11   ar
     9     5     6   ar
    10     5     8   ar
    11     6     7    2
    12     8     9   ar
    13     9    10   ar
    14    10    11   ar
    15    12    13   ar
    16    12    17   ar
    17    13    14   ar
    18    14    15   ar
    19    15    16   ar
    20    16    17   ar
    21    18    19    1
    22    19    20   am
    23    19    33    2
    24    20    21    1
    25    20    32    1
    26    21    22    1
    27    22    23    1
    28    23    24    1
    29    23    31    1
    30    24    25    1
    31    25    26   ar
    32    25    30   ar
    33    26    27   ar
    34    27    28   ar
    35    28    29   ar
    36    29    30   ar
    37    31    32    1
