@<TRIPOS>MOLECULE
23898_ChemDiv_0883-0066
 23 26 0 0 0
SMALL
GASTEIGER
Energy = 0

@<TRIPOS>ATOM
      1 C           0.2420   -1.6250    0.0000 C.ar    1  LIG1        0.0948
      2 C          -0.3880   -0.8420    0.0000 C.ar    1  LIG1        0.0242
      3 C          -0.1080    0.1330    0.0000 C.ar    1  LIG1        0.0497
      4 C           0.8670    0.3880    0.0000 C.ar    1  LIG1        0.0614
      5 N           1.5420   -0.3170    0.0000 N.ar    1  LIG1       -0.2524
      6 C           1.2920   -1.2580    0.0000 C.ar    1  LIG1        0.0757
      7 C           2.1000   -1.8880    0.0000 C.3     1  LIG1        0.0418
      8 C           1.9960   -2.8920    0.0000 C.3     1  LIG1        0.0064
      9 C           3.0170   -1.5130    0.0000 C.3     1  LIG1        0.0064
     10 C           1.1460    1.3290    0.0000 C.3     1  LIG1        0.0463
     11 C           0.4540    2.0460    0.0000 C.3     1  LIG1        0.0128
     12 C          -0.5460    1.7670    0.0000 C.3     1  LIG1        0.0695
     13 C          -0.8000    0.8250    0.0000 C.2     1  LIG1        0.1742
     14 O          -1.8000    0.6040    0.0000 O.2     1  LIG1       -0.2913
     15 C          -0.0750    2.8960    0.0000 C.3     1  LIG1        0.0008
     16 C           1.3710    2.5170    0.0000 C.3     1  LIG1        0.0008
     17 C          -1.2960   -1.2000    0.0000 C.ar    1  LIG1        0.0193
     18 C          -1.2380   -2.2000    0.0000 C.ar    1  LIG1        0.0813
     19 N          -0.2960   -2.4210    0.0000 N.ar    1  LIG1       -0.2442
     20 C          -2.0540   -2.7330    0.0000 C.ar    1  LIG1        0.0191
     21 C          -2.9630   -2.2960    0.0000 C.ar    1  LIG1        0.0015
     22 C          -3.0210   -1.3130    0.0000 C.ar    1  LIG1        0.0001
     23 C          -2.1790   -0.7630    0.0000 C.ar    1  LIG1        0.0015
@<TRIPOS>BOND
     1     1     2   ar
     2     1     6   ar
     3     1    19   ar
     4     2     3   ar
     5     2    17   ar
     6     3     4   ar
     7     3    13    1
     8     4     5   ar
     9     4    10    1
    10     5     6   ar
    11     6     7    1
    12     7     8    1
    13     7     9    1
    14    10    11    1
    15    11    12    1
    16    11    15    1
    17    11    16    1
    18    12    13    1
    19    13    14    2
    20    17    18   ar
    21    17    23   ar
    22    18    19   ar
    23    18    20   ar
    24    20    21   ar
    25    21    22   ar
    26    22    23   ar
