@<TRIPOS>MOLECULE
23897_ChemDiv_6393-0026
 21 24 0 0 0
SMALL
GASTEIGER
Energy = 0

@<TRIPOS>ATOM
      1 N           0.4130   -1.3210    0.0000 N.ar    1  LIG1       -0.2109
      2 N           0.4130   -0.3460    0.0000 N.ar    1  LIG1       -0.1665
      3 C          -0.4380    0.1420    0.0000 C.ar    1  LIG1        0.1011
      4 C          -1.2790   -0.3460    0.0000 C.ar    1  LIG1        0.0240
      5 C          -1.2790   -1.3210    0.0000 C.ar    1  LIG1        0.0591
      6 C          -0.4380   -1.8080    0.0000 C.ar    1  LIG1        0.2767
      7 O          -0.4380   -2.7830    0.0000 O.2     1  LIG1       -0.2655
      8 C          -2.1210   -1.8080    0.0000 C.ar    1  LIG1        0.0048
      9 C          -2.9630   -1.3210    0.0000 C.ar    1  LIG1        0.0002
     10 C          -2.9630   -0.3540    0.0000 C.ar    1  LIG1        0.0001
     11 C          -2.1210    0.1420    0.0000 C.ar    1  LIG1        0.0017
     12 C          -1.9130    1.0920    0.0000 C.ar    1  LIG1        0.0016
     13 C          -0.6460    1.0920    0.0000 C.ar    1  LIG1        0.0193
     14 C          -0.1580    1.9330    0.0000 C.ar    1  LIG1        0.0016
     15 C          -0.6460    2.7880    0.0000 C.ar    1  LIG1        0.0000
     16 C          -1.9130    2.7880    0.0000 C.ar    1  LIG1        0.0000
     17 C          -2.4000    1.9330    0.0000 C.ar    1  LIG1        0.0000
     18 C           1.2630   -1.8210    0.0000 C.3     1  LIG1        0.1720
     19 C           2.1130   -1.3330    0.0000 C.2     1  LIG1        0.0751
     20 O           2.1170   -0.3580    0.0000 O.co2   1  LIG1       -0.5471
     21 O           2.9580   -1.8210    0.0000 O.co2   1  LIG1       -0.5471
@<TRIPOS>BOND
     1     1     2   ar
     2     1     6   ar
     3     1    18    1
     4     2     3   ar
     5     3     4   ar
     6     3    13   ar
     7     4     5   ar
     8     4    11   ar
     9     5     6   ar
    10     5     8   ar
    11     6     7    2
    12     8     9   ar
    13     9    10   ar
    14    10    11   ar
    15    11    12   ar
    16    12    13   ar
    17    12    17   ar
    18    13    14   ar
    19    14    15   ar
    20    15    16   ar
    21    16    17   ar
    22    18    19    1
    23    19    20   ar
    24    19    21   ar
