@<TRIPOS>MOLECULE
23893_ChemDiv_6216-0081
 30 33 0 0 0
SMALL
GASTEIGER
Energy = 0

@<TRIPOS>ATOM
      1 N          -1.3000   -1.2460    0.0000 N.ar    1  LIG1       -0.1668
      2 N          -1.3000   -2.2460    0.0000 N.ar    1  LIG1       -0.2146
      3 C          -2.1750   -2.7460    0.0000 C.ar    1  LIG1        0.2764
      4 C          -3.0380   -2.2460    0.0000 C.ar    1  LIG1        0.0591
      5 C          -3.0380   -1.2460    0.0000 C.ar    1  LIG1        0.0240
      6 C          -2.1750   -0.7460    0.0000 C.ar    1  LIG1        0.1011
      7 C          -2.1750    0.2580    0.0000 C.ar    1  LIG1        0.0191
      8 C          -1.3000    0.7540    0.0000 C.ar    1  LIG1       -0.0013
      9 C          -1.3000    1.7670    0.0000 C.ar    1  LIG1       -0.0044
     10 C          -2.1750    2.2630    0.0000 C.ar    1  LIG1       -0.0241
     11 C          -3.0380    1.7670    0.0000 C.ar    1  LIG1       -0.0045
     12 C          -3.0380    0.7540    0.0000 C.ar    1  LIG1        0.0012
     13 C          -2.1750    3.2630    0.0000 C.3     1  LIG1        0.0308
     14 C          -0.4330    2.2540    0.0000 C.3     1  LIG1        0.1428
     15 N           0.4290    1.7540    0.0000 N.am    1  LIG1       -0.1824
     16 C           1.2920    2.2540    0.0000 C.2     1  LIG1        0.3395
     17 N           2.1540    1.7540    0.0000 N.am    1  LIG1       -0.1890
     18 C           3.0250    2.2540    0.0000 C.3     1  LIG1        0.0969
     19 C           3.8880    1.7500    0.0000 C.3     1  LIG1        0.0217
     20 C           4.7500    2.2500    0.0000 C.3     1  LIG1        0.0018
     21 C           4.7580    3.2460    0.0000 C.3     1  LIG1        0.0001
     22 C           3.8960    3.7460    0.0000 C.3     1  LIG1        0.0018
     23 C           3.0170    3.2460    0.0000 C.3     1  LIG1        0.0217
     24 O           1.2920    3.2540    0.0000 O.2     1  LIG1       -0.2492
     25 C          -3.9000   -0.7460    0.0000 C.ar    1  LIG1        0.0017
     26 C          -4.7630   -1.2460    0.0000 C.ar    1  LIG1        0.0001
     27 C          -4.7630   -2.2460    0.0000 C.ar    1  LIG1        0.0002
     28 C          -3.9000   -2.7460    0.0000 C.ar    1  LIG1        0.0048
     29 O          -2.1750   -3.7420    0.0000 O.2     1  LIG1       -0.2655
     30 C          -0.4330   -2.7540    0.0000 C.3     1  LIG1        0.1571
@<TRIPOS>BOND
     1     1     2   ar
     2     1     6   ar
     3     2     3   ar
     4     2    30    1
     5     3     4   ar
     6     3    29    2
     7     4     5   ar
     8     4    28   ar
     9     5     6   ar
    10     5    25   ar
    11     6     7    1
    12     7     8   ar
    13     7    12   ar
    14     8     9   ar
    15     9    10   ar
    16     9    14    1
    17    10    11   ar
    18    10    13    1
    19    11    12   ar
    20    14    15    1
    21    15    16   am
    22    16    17   am
    23    16    24    2
    24    17    18    1
    25    18    19    1
    26    18    23    1
    27    19    20    1
    28    20    21    1
    29    21    22    1
    30    22    23    1
    31    25    26   ar
    32    26    27   ar
    33    27    28   ar
