@<TRIPOS>MOLECULE
23899_ChemDiv_6434-3527
 28 31 0 0 0
SMALL
GASTEIGER
Energy = 0

@<TRIPOS>ATOM
      1 N           1.2960   -2.7500    0.0000 N.ar    1  LIG1       -0.1668
      2 N           1.2960   -3.7500    0.0000 N.ar    1  LIG1       -0.2146
      3 C           0.4210   -4.2500    0.0000 C.ar    1  LIG1        0.2764
      4 C          -0.4420   -3.7500    0.0000 C.ar    1  LIG1        0.0591
      5 C          -0.4420   -2.7500    0.0000 C.ar    1  LIG1        0.0240
      6 C           0.4210   -2.2540    0.0000 C.ar    1  LIG1        0.1011
      7 C           0.4330   -1.2500    0.0000 C.ar    1  LIG1        0.0195
      8 C          -0.4420   -0.7500    0.0000 C.ar    1  LIG1        0.0047
      9 C          -0.4420    0.2580    0.0000 C.ar    1  LIG1        0.0370
     10 C           0.4210    0.7580    0.0000 C.ar    1  LIG1        0.1393
     11 O           0.4210    1.7580    0.0000 O.3     1  LIG1       -0.4656
     12 C          -0.4420    2.2580    0.0000 C.3     1  LIG1        0.2896
     13 C          -0.4420    3.2540    0.0000 C.2     1  LIG1        0.2702
     14 N           0.4210    3.7540    0.0000 N.am    1  LIG1       -0.2765
     15 C           1.3000    3.2540    0.0000 C.3     1  LIG1        0.0935
     16 C           2.1540    3.7540    0.0000 C.3     1  LIG1        0.0216
     17 C           2.1630    4.7500    0.0000 C.3     1  LIG1        0.0035
     18 C           1.2960    5.2500    0.0000 C.3     1  LIG1        0.0216
     19 C           0.4210    4.7500    0.0000 C.3     1  LIG1        0.0935
     20 O          -1.3040    3.7540    0.0000 O.2     1  LIG1       -0.2708
     21 C           1.2960    0.2580    0.0000 C.ar    1  LIG1        0.0370
     22 C           1.2960   -0.7500    0.0000 C.ar    1  LIG1        0.0047
     23 C          -1.3040   -2.2540    0.0000 C.ar    1  LIG1        0.0017
     24 C          -2.1670   -2.7500    0.0000 C.ar    1  LIG1        0.0001
     25 C          -2.1670   -3.7500    0.0000 C.ar    1  LIG1        0.0002
     26 C          -1.3040   -4.2500    0.0000 C.ar    1  LIG1        0.0048
     27 O           0.4210   -5.2500    0.0000 O.2     1  LIG1       -0.2655
     28 C           2.1630   -4.2500    0.0000 C.3     1  LIG1        0.1571
@<TRIPOS>BOND
     1     1     2   ar
     2     1     6   ar
     3     2     3   ar
     4     2    28    1
     5     3     4   ar
     6     3    27    2
     7     4     5   ar
     8     4    26   ar
     9     5     6   ar
    10     5    23   ar
    11     6     7    1
    12     7     8   ar
    13     7    22   ar
    14     8     9   ar
    15     9    10   ar
    16    10    11    1
    17    10    21   ar
    18    11    12    1
    19    12    13    1
    20    13    14   am
    21    13    20    2
    22    14    15    1
    23    14    19    1
    24    15    16    1
    25    16    17    1
    26    17    18    1
    27    18    19    1
    28    21    22   ar
    29    23    24   ar
    30    24    25   ar
    31    25    26   ar
