@<TRIPOS>MOLECULE
23900_ChemDiv_0883-0068
 24 27 0 0 0
SMALL
GASTEIGER
Energy = 0

@<TRIPOS>ATOM
      1 C          -0.1580   -1.7040    0.0000 C.ar    1  LIG1        0.0949
      2 C          -0.7880   -0.9210    0.0000 C.ar    1  LIG1        0.0242
      3 C          -0.5040    0.0540    0.0000 C.ar    1  LIG1        0.0497
      4 C           0.4710    0.3080    0.0000 C.ar    1  LIG1        0.0614
      5 N           1.1420   -0.3960    0.0000 N.ar    1  LIG1       -0.2524
      6 C           0.8960   -1.3380    0.0000 C.ar    1  LIG1        0.0761
      7 C           1.7040   -1.9670    0.0000 C.3     1  LIG1        0.0473
      8 C           2.6210   -1.5960    0.0000 C.3     1  LIG1        0.0060
      9 C           3.4210   -2.1750    0.0000 C.3     1  LIG1        0.0004
     10 C           2.7250   -0.6210    0.0000 C.3     1  LIG1        0.0004
     11 C           0.7500    1.2500    0.0000 C.3     1  LIG1        0.0463
     12 C           0.0580    1.9710    0.0000 C.3     1  LIG1        0.0128
     13 C          -0.9460    1.6920    0.0000 C.3     1  LIG1        0.0695
     14 C          -1.2000    0.7500    0.0000 C.2     1  LIG1        0.1742
     15 O          -2.2000    0.5250    0.0000 O.2     1  LIG1       -0.2913
     16 C          -0.4750    2.8210    0.0000 C.3     1  LIG1        0.0008
     17 C           0.9750    2.4420    0.0000 C.3     1  LIG1        0.0008
     18 C          -1.6960   -1.2790    0.0000 C.ar    1  LIG1        0.0193
     19 C          -1.6380   -2.2830    0.0000 C.ar    1  LIG1        0.0813
     20 N          -0.6960   -2.5040    0.0000 N.ar    1  LIG1       -0.2442
     21 C          -2.4540   -2.8170    0.0000 C.ar    1  LIG1        0.0191
     22 C          -3.3670   -2.3790    0.0000 C.ar    1  LIG1        0.0015
     23 C          -3.4250   -1.3920    0.0000 C.ar    1  LIG1        0.0001
     24 C          -2.5790   -0.8420    0.0000 C.ar    1  LIG1        0.0015
@<TRIPOS>BOND
     1     1     2   ar
     2     1     6   ar
     3     1    20   ar
     4     2     3   ar
     5     2    18   ar
     6     3     4   ar
     7     3    14    1
     8     4     5   ar
     9     4    11    1
    10     5     6   ar
    11     6     7    1
    12     7     8    1
    13     8     9    1
    14     8    10    1
    15    11    12    1
    16    12    13    1
    17    12    16    1
    18    12    17    1
    19    13    14    1
    20    14    15    2
    21    18    19   ar
    22    18    24   ar
    23    19    20   ar
    24    19    21   ar
    25    21    22   ar
    26    22    23   ar
    27    23    24   ar
