@<TRIPOS>MOLECULE
23901_ChemDiv_6434-3542
 27 30 0 0 0
SMALL
GASTEIGER
Energy = 0

@<TRIPOS>ATOM
      1 N           1.6630   -2.5460    0.0000 N.ar    1  LIG1       -0.1668
      2 N           1.6630   -3.5460    0.0000 N.ar    1  LIG1       -0.2146
      3 C           0.7880   -4.0460    0.0000 C.ar    1  LIG1        0.2764
      4 C          -0.0790   -3.5460    0.0000 C.ar    1  LIG1        0.0591
      5 C          -0.0790   -2.5460    0.0000 C.ar    1  LIG1        0.0240
      6 C           0.7880   -2.0460    0.0000 C.ar    1  LIG1        0.1011
      7 C           0.7960   -1.0380    0.0000 C.ar    1  LIG1        0.0195
      8 C          -0.0790   -0.5380    0.0000 C.ar    1  LIG1        0.0047
      9 C          -0.0790    0.4710    0.0000 C.ar    1  LIG1        0.0370
     10 C           0.7880    0.9710    0.0000 C.ar    1  LIG1        0.1393
     11 O           0.7880    1.9750    0.0000 O.3     1  LIG1       -0.4656
     12 C          -0.0790    2.4750    0.0000 C.3     1  LIG1        0.2896
     13 C          -0.0790    3.4750    0.0000 C.2     1  LIG1        0.2702
     14 N          -0.9420    3.9750    0.0000 N.am    1  LIG1       -0.2765
     15 C          -1.8040    3.4790    0.0000 C.3     1  LIG1        0.0936
     16 C          -2.5330    4.1420    0.0000 C.3     1  LIG1        0.0233
     17 C          -2.1250    5.0460    0.0000 C.3     1  LIG1        0.0233
     18 C          -1.1460    4.9420    0.0000 C.3     1  LIG1        0.0936
     19 O           0.7880    3.9750    0.0000 O.2     1  LIG1       -0.2708
     20 C           1.6630    0.4710    0.0000 C.ar    1  LIG1        0.0370
     21 C           1.6630   -0.5380    0.0000 C.ar    1  LIG1        0.0047
     22 C          -0.9420   -2.0460    0.0000 C.ar    1  LIG1        0.0017
     23 C          -1.8040   -2.5460    0.0000 C.ar    1  LIG1        0.0001
     24 C          -1.8040   -3.5460    0.0000 C.ar    1  LIG1        0.0002
     25 C          -0.9420   -4.0460    0.0000 C.ar    1  LIG1        0.0048
     26 O           0.7880   -5.0460    0.0000 O.2     1  LIG1       -0.2655
     27 C           2.5290   -4.0460    0.0000 C.3     1  LIG1        0.1571
@<TRIPOS>BOND
     1     1     2   ar
     2     1     6   ar
     3     2     3   ar
     4     2    27    1
     5     3     4   ar
     6     3    26    2
     7     4     5   ar
     8     4    25   ar
     9     5     6   ar
    10     5    22   ar
    11     6     7    1
    12     7     8   ar
    13     7    21   ar
    14     8     9   ar
    15     9    10   ar
    16    10    11    1
    17    10    20   ar
    18    11    12    1
    19    12    13    1
    20    13    14   am
    21    13    19    2
    22    14    15    1
    23    14    18    1
    24    15    16    1
    25    16    17    1
    26    17    18    1
    27    20    21   ar
    28    22    23   ar
    29    23    24   ar
    30    24    25   ar
