@<TRIPOS>MOLECULE
23903_ChemDiv_6434-3545
 29 32 0 0 0
SMALL
GASTEIGER
Energy = 0

@<TRIPOS>ATOM
      1 N           2.1540   -2.7670    0.0000 N.ar    1  LIG1       -0.1668
      2 N           2.1540   -3.7630    0.0000 N.ar    1  LIG1       -0.2146
      3 C           1.2830   -4.2630    0.0000 C.ar    1  LIG1        0.2764
      4 C           0.4210   -3.7630    0.0000 C.ar    1  LIG1        0.0591
      5 C           0.4210   -2.7670    0.0000 C.ar    1  LIG1        0.0240
      6 C           1.2830   -2.2670    0.0000 C.ar    1  LIG1        0.1011
      7 C           1.2920   -1.2630    0.0000 C.ar    1  LIG1        0.0195
      8 C           0.4210   -0.7630    0.0000 C.ar    1  LIG1        0.0047
      9 C           0.4210    0.2460    0.0000 C.ar    1  LIG1        0.0370
     10 C           1.2830    0.7420    0.0000 C.ar    1  LIG1        0.1393
     11 O           1.2830    1.7420    0.0000 O.3     1  LIG1       -0.4656
     12 C           0.4210    2.2420    0.0000 C.3     1  LIG1        0.2896
     13 C           0.4210    3.2380    0.0000 C.2     1  LIG1        0.2702
     14 N          -0.4420    3.7380    0.0000 N.am    1  LIG1       -0.2765
     15 C          -0.4250    4.7460    0.0000 C.3     1  LIG1        0.0935
     16 C          -1.2880    5.2460    0.0000 C.3     1  LIG1        0.0216
     17 C          -2.1630    4.7500    0.0000 C.3     1  LIG1        0.0034
     18 C          -2.1630    3.7540    0.0000 C.3     1  LIG1        0.0216
     19 C          -1.3040    3.2420    0.0000 C.3     1  LIG1        0.0935
     20 C          -3.0250    5.2630    0.0000 C.3     1  LIG1        0.0001
     21 O           1.2830    3.7380    0.0000 O.2     1  LIG1       -0.2708
     22 C           2.1540    0.2460    0.0000 C.ar    1  LIG1        0.0370
     23 C           2.1540   -0.7630    0.0000 C.ar    1  LIG1        0.0047
     24 C          -0.4420   -2.2670    0.0000 C.ar    1  LIG1        0.0017
     25 C          -1.3040   -2.7670    0.0000 C.ar    1  LIG1        0.0001
     26 C          -1.3040   -3.7630    0.0000 C.ar    1  LIG1        0.0002
     27 C          -0.4420   -4.2630    0.0000 C.ar    1  LIG1        0.0048
     28 O           1.2830   -5.2630    0.0000 O.2     1  LIG1       -0.2655
     29 C           3.0210   -4.2630    0.0000 C.3     1  LIG1        0.1571
@<TRIPOS>BOND
     1     1     2   ar
     2     1     6   ar
     3     2     3   ar
     4     2    29    1
     5     3     4   ar
     6     3    28    2
     7     4     5   ar
     8     4    27   ar
     9     5     6   ar
    10     5    24   ar
    11     6     7    1
    12     7     8   ar
    13     7    23   ar
    14     8     9   ar
    15     9    10   ar
    16    10    11    1
    17    10    22   ar
    18    11    12    1
    19    12    13    1
    20    13    14   am
    21    13    21    2
    22    14    15    1
    23    14    19    1
    24    15    16    1
    25    16    17    1
    26    17    18    1
    27    17    20    1
    28    18    19    1
    29    22    23   ar
    30    24    25   ar
    31    25    26   ar
    32    26    27   ar
