@<TRIPOS>MOLECULE
23906_ChemDiv_8011-9692
 15 16 0 0 0
SMALL
GASTEIGER
Energy = 0

@<TRIPOS>ATOM
      1 C          -1.1830    0.4210    0.0000 C.ar    1  LIG1        0.1720
      2 C          -0.7460   -0.4040    0.0000 C.ar    1  LIG1        0.1675
      3 N           0.2170   -0.4040    0.0000 N.ar    1  LIG1       -0.3216
      4 C           0.6960    0.4210    0.0000 C.ar    1  LIG1       -0.0284
      5 N           0.2330    1.2330    0.0000 N.ar    1  LIG1       -0.2526
      6 S           1.6920    0.4250    0.0000 S.3     1  LIG1       -0.7209
      7 C           0.7040   -1.2250    0.0000 C.3     1  LIG1        0.1228
      8 C           1.6630   -1.2290    0.0000 C.3     1  LIG1        0.1298
      9 C           2.1380   -0.3630    0.0000 C.1     1  LIG1        0.0752
     10 N           2.6250    0.5000    0.0000 N.1     1  LIG1       -0.1958
     11 N          -1.2250   -1.2210    0.0000 N.ar    1  LIG1       -0.2048
     12 C          -2.1710   -1.2210    0.0000 C.ar    1  LIG1        0.2031
     13 N          -2.6290   -0.4040    0.0000 N.ar    1  LIG1       -0.1841
     14 C          -2.1500    0.4210    0.0000 C.ar    1  LIG1        0.3013
     15 O          -2.6290    1.2330    0.0000 O.2     1  LIG1       -0.2634
@<TRIPOS>BOND
     1     1     2   ar
     2     1     5   ar
     3     1    14   ar
     4     2     3   ar
     5     2    11   ar
     6     3     4   ar
     7     3     7    1
     8     4     5   ar
     9     4     6    1
    10     7     8    1
    11     8     9    1
    12     9    10    3
    13    11    12   ar
    14    12    13   ar
    15    13    14   ar
    16    14    15    2
