@<TRIPOS>MOLECULE
23912_ChemDiv_8013-2683
 17 18 0 0 0
SMALL
GASTEIGER
Energy = 0

@<TRIPOS>ATOM
      1 C          -0.8420   -0.4710    0.0000 C.ar    1  LIG1        0.1697
      2 C          -0.8420    0.4790    0.0000 C.ar    1  LIG1        0.1546
      3 C          -1.6830    0.9580    0.0000 C.ar    1  LIG1        0.3019
      4 N          -2.5170    0.4790    0.0000 N.ar    1  LIG1       -0.1518
      5 C          -2.5170   -0.4710    0.0000 C.ar    1  LIG1        0.3540
      6 N          -1.6830   -0.9460    0.0000 N.ar    1  LIG1       -0.2614
      7 C          -1.6830   -1.9000    0.0000 C.3     1  LIG1        0.1367
      8 O          -3.3500   -0.9330    0.0000 O.2     1  LIG1       -0.2443
      9 O          -1.6830    1.9040    0.0000 O.2     1  LIG1       -0.2634
     10 N           0.8460    0.4790    0.0000 N.ar    1  LIG1       -0.2980
     11 C           0.8460   -0.4710    0.0000 C.ar    1  LIG1        0.1803
     12 N           0.0040   -0.9460    0.0000 N.ar    1  LIG1       -0.2063
     13 C           1.6750    0.9460    0.0000 C.3     1  LIG1        0.1703
     14 C           2.4880    0.4750    0.0000 C.3     1  LIG1        0.1641
     15 N           2.4880   -0.4790    0.0000 N.4     1  LIG1        0.3882
     16 C           3.3460   -0.9750    0.0000 C.3     1  LIG1        0.2026
     17 C           1.6210   -0.9330    0.0000 C.3     1  LIG1        0.2026
@<TRIPOS>BOND
     1     1     2   ar
     2     1     6   ar
     3     1    12   ar
     4     2     3   ar
     5     2    10   ar
     6     3     4   ar
     7     3     9    2
     8     4     5   ar
     9     5     6   ar
    10     5     8    2
    11     6     7    1
    12    10    11   ar
    13    10    13    1
    14    11    12   ar
    15    13    14    1
    16    14    15    1
    17    15    16    1
    18    15    17    1
