@<TRIPOS>MOLECULE
23923_ChemDiv_K788-9384
 27 30 0 0 0
SMALL
GASTEIGER
Energy = 0

@<TRIPOS>ATOM
      1 N          -0.7920    2.0040    0.0000 N.ar    1  LIG1       -0.2071
      2 N          -0.7880    0.9920    0.0000 N.ar    1  LIG1       -0.1664
      3 C          -1.6630    0.4880    0.0000 C.ar    1  LIG1        0.1011
      4 C          -2.5290    0.9790    0.0000 C.ar    1  LIG1        0.0240
      5 C          -2.5330    1.9920    0.0000 C.ar    1  LIG1        0.0591
      6 C          -1.6710    2.5080    0.0000 C.ar    1  LIG1        0.2768
      7 O          -1.6750    3.5080    0.0000 O.2     1  LIG1       -0.2655
      8 C          -3.4000    2.4920    0.0000 C.ar    1  LIG1        0.0048
      9 C          -4.2670    1.9880    0.0000 C.ar    1  LIG1        0.0002
     10 C          -4.2670    0.9880    0.0000 C.ar    1  LIG1        0.0001
     11 C          -3.4000    0.4880    0.0000 C.ar    1  LIG1        0.0017
     12 C          -1.6540   -0.5080    0.0000 C.ar    1  LIG1        0.0193
     13 C          -2.5210   -1.0130    0.0000 C.ar    1  LIG1        0.0012
     14 C          -2.5170   -2.0130    0.0000 C.ar    1  LIG1       -0.0042
     15 C          -1.6500   -2.5040    0.0000 C.ar    1  LIG1       -0.0218
     16 C          -0.7830   -2.0000    0.0000 C.ar    1  LIG1       -0.0042
     17 C          -0.7920   -1.0040    0.0000 C.ar    1  LIG1        0.0012
     18 C          -1.6460   -3.5040    0.0000 C.3     1  LIG1        0.0310
     19 C           0.0710    2.5000    0.0000 C.3     1  LIG1        0.2168
     20 C           0.9330    2.0040    0.0000 C.2     1  LIG1        0.2663
     21 N           1.7960    2.5000    0.0000 N.am    1  LIG1       -0.2055
     22 C           2.6630    2.0080    0.0000 C.3     1  LIG1        0.0954
     23 C           3.5250    2.5000    0.0000 C.3     1  LIG1        0.0217
     24 C           4.2630    1.8330    0.0000 C.3     1  LIG1        0.0018
     25 C           3.8580    0.9250    0.0000 C.3     1  LIG1        0.0018
     26 C           2.8670    1.0290    0.0000 C.3     1  LIG1        0.0217
     27 O           0.9330    1.0130    0.0000 O.2     1  LIG1       -0.2712
@<TRIPOS>BOND
     1     1     2   ar
     2     1     6   ar
     3     1    19    1
     4     2     3   ar
     5     3     4   ar
     6     3    12    1
     7     4     5   ar
     8     4    11   ar
     9     5     6   ar
    10     5     8   ar
    11     6     7    2
    12     8     9   ar
    13     9    10   ar
    14    10    11   ar
    15    12    13   ar
    16    12    17   ar
    17    13    14   ar
    18    14    15   ar
    19    15    16   ar
    20    15    18    1
    21    16    17   ar
    22    19    20    1
    23    20    21   am
    24    20    27    2
    25    21    22    1
    26    22    23    1
    27    22    26    1
    28    23    24    1
    29    24    25    1
    30    25    26    1
