@<TRIPOS>MOLECULE
23920_ChemDiv_8016-1610
 29 33 0 0 0
SMALL
GASTEIGER
Energy = 0

@<TRIPOS>ATOM
      1 C          -2.5080   -0.5130    0.0000 C.ar    1  LIG1        0.1700
      2 C          -2.5000    0.5080    0.0000 C.ar    1  LIG1        0.1531
      3 C          -3.3750    1.0250    0.0000 C.ar    1  LIG1        0.2832
      4 N          -4.2580    0.5130    0.0000 N.ar    1  LIG1       -0.2454
      5 C          -4.2580   -0.5040    0.0000 C.ar    1  LIG1        0.3350
      6 N          -3.3750   -1.0170    0.0000 N.ar    1  LIG1       -0.2628
      7 C          -3.3710   -2.0420    0.0000 C.3     1  LIG1        0.1366
      8 O          -5.1460   -1.0250    0.0000 O.2     1  LIG1       -0.2461
      9 C          -5.1460    1.0210    0.0000 C.3     1  LIG1        0.1383
     10 O          -3.3710    2.0460    0.0000 O.2     1  LIG1       -0.2652
     11 N          -1.5210    0.8210    0.0000 N.ar    1  LIG1       -0.2995
     12 C          -0.9210   -0.0040    0.0000 C.ar    1  LIG1        0.1734
     13 N          -1.5330   -0.8290    0.0000 N.ar    1  LIG1       -0.2035
     14 S           0.0920   -0.0130    0.0000 S.3     1  LIG1       -0.0674
     15 C           0.6040   -0.9000    0.0000 C.3     1  LIG1        0.1515
     16 C           1.6290   -0.9040    0.0000 C.2     1  LIG1        0.2527
     17 N           2.1330   -0.0250    0.0000 N.am    1  LIG1       -0.2081
     18 C           3.1670   -0.0290    0.0000 C.3     1  LIG1        0.0786
     19 C           3.8830    0.5210    0.0000 C.3     1  LIG1        0.0200
     20 C           4.7580    0.5630    0.0000 C.3     1  LIG1        0.0017
     21 C           5.1330    1.5960    0.0000 C.3     1  LIG1        0.0001
     22 C           4.3790    0.9830    0.0000 C.3     1  LIG1        0.0017
     23 C           3.4290    0.9580    0.0000 C.3     1  LIG1        0.0200
     24 C           4.7710    0.0710    0.0000 C.3     1  LIG1        0.0001
     25 C           4.4830   -0.8920    0.0000 C.3     1  LIG1        0.0017
     26 C           3.5330   -0.9130    0.0000 C.3     1  LIG1        0.0200
     27 C           5.1420   -0.2880    0.0000 C.3     1  LIG1        0.0001
     28 O           2.1330   -1.7920    0.0000 O.2     1  LIG1       -0.2724
     29 C          -1.2080    1.7960    0.0000 C.3     1  LIG1        0.1326
@<TRIPOS>BOND
     1     1     2   ar
     2     1     6   ar
     3     1    13   ar
     4     2     3   ar
     5     2    11   ar
     6     3     4   ar
     7     3    10    2
     8     4     5   ar
     9     4     9    1
    10     5     6   ar
    11     5     8    2
    12     6     7    1
    13    11    12   ar
    14    11    29    1
    15    12    13   ar
    16    12    14    1
    17    14    15    1
    18    15    16    1
    19    16    17   am
    20    16    28    2
    21    17    18    1
    22    18    19    1
    23    18    23    1
    24    18    26    1
    25    19    20    1
    26    20    21    1
    27    20    27    1
    28    21    22    1
    29    22    23    1
    30    22    24    1
    31    24    25    1
    32    25    26    1
    33    25    27    1
