@<TRIPOS>MOLECULE
23925_ChemDiv_000A-0179
 24 28 0 0 0
SMALL
GASTEIGER
Energy = 0

@<TRIPOS>ATOM
      1 N           1.0750    0.0000    0.0000 N.ar    1  LIG1       -0.2577
      2 C           0.5790   -0.8710    0.0000 C.ar    1  LIG1        0.1499
      3 N           1.2630   -1.6130    0.0000 N.ar    1  LIG1       -0.2264
      4 C           2.1670   -1.2000    0.0000 C.ar    1  LIG1        0.0991
      5 C           2.0580   -0.2130    0.0000 C.ar    1  LIG1        0.0858
      6 C           2.8790    0.3580    0.0000 C.ar    1  LIG1        0.0192
      7 C           3.7830   -0.0500    0.0000 C.ar    1  LIG1        0.0016
      8 C           3.8920   -1.0290    0.0000 C.ar    1  LIG1        0.0016
      9 C           3.1000   -1.6130    0.0000 C.ar    1  LIG1        0.0206
     10 C          -0.4000   -0.8710    0.0000 C.ar    1  LIG1        0.0347
     11 C          -0.8920    0.0000    0.0000 C.ar    1  LIG1        0.0076
     12 C          -0.4000    0.8830    0.0000 C.ar    1  LIG1        0.0566
     13 C           0.6130    0.8830    0.0000 C.ar    1  LIG1        0.2658
     14 O           1.1250    1.7540    0.0000 O.2     1  LIG1       -0.2666
     15 C          -0.8920    1.7540    0.0000 C.ar    1  LIG1        0.0048
     16 C          -1.9040    1.7540    0.0000 C.ar    1  LIG1        0.0030
     17 C          -2.3920    0.8460    0.0000 C.ar    1  LIG1        0.0347
     18 C          -1.9040    0.0000    0.0000 C.ar    1  LIG1        0.0030
     19 C          -2.3920   -0.8710    0.0000 C.ar    1  LIG1        0.0001
     20 C          -1.9040   -1.7500    0.0000 C.ar    1  LIG1        0.0001
     21 C          -0.9250   -1.7500    0.0000 C.ar    1  LIG1        0.0030
     22 C          -3.3830    0.8210    0.0000 C.2     1  LIG1        0.1735
     23 O          -3.8960    1.6670    0.0000 O.2     1  LIG1       -0.2913
     24 C          -3.8670   -0.0500    0.0000 C.3     1  LIG1        0.0773
@<TRIPOS>BOND
     1     1     2   ar
     2     1     5   ar
     3     1    13   ar
     4     2     3   ar
     5     2    10   ar
     6     3     4   ar
     7     4     5   ar
     8     4     9   ar
     9     5     6   ar
    10     6     7   ar
    11     7     8   ar
    12     8     9   ar
    13    10    11   ar
    14    10    21   ar
    15    11    12   ar
    16    11    18   ar
    17    12    13   ar
    18    12    15   ar
    19    13    14    2
    20    15    16   ar
    21    16    17   ar
    22    17    18   ar
    23    17    22    1
    24    18    19   ar
    25    19    20   ar
    26    20    21   ar
    27    22    23    2
    28    22    24    1
