@<TRIPOS>MOLECULE
23924_ChemDiv_3347-1153
 21 24 0 0 0
SMALL
GASTEIGER
Energy = 0

@<TRIPOS>ATOM
      1 C          -0.0830   -0.9080    0.0000 C.ar    1  LIG1        0.0947
      2 C          -0.0580    0.0790    0.0000 C.ar    1  LIG1        0.0233
      3 C           0.7790    0.5580    0.0000 C.ar    1  LIG1        0.0594
      4 C           1.6170    0.0580    0.0000 C.ar    1  LIG1        0.0606
      5 N           1.6170   -0.9210    0.0000 N.ar    1  LIG1       -0.2526
      6 C           0.7710   -1.3920    0.0000 C.ar    1  LIG1        0.0765
      7 C           0.7500   -2.3580    0.0000 C.3     1  LIG1        0.0537
      8 C           2.4500    0.5290    0.0000 C.3     1  LIG1        0.0459
      9 C           2.4750    1.5080    0.0000 C.3     1  LIG1        0.0120
     10 C           1.6580    2.0130    0.0000 C.3     1  LIG1        0.0791
     11 C           0.7960    1.5540    0.0000 C.3     1  LIG1        0.2729
     12 N          -0.0040    2.0420    0.0000 N.4     1  LIG1        0.5949
     13 C           2.9580    2.3630    0.0000 C.3     1  LIG1        0.0006
     14 C           3.4170    1.2580    0.0000 C.3     1  LIG1        0.0006
     15 C          -1.7500    0.0920    0.0000 C.ar    1  LIG1        0.0191
     16 C          -1.7500   -0.8790    0.0000 C.ar    1  LIG1        0.0813
     17 N          -0.9130   -1.3710    0.0000 N.ar    1  LIG1       -0.2442
     18 C          -2.5880   -1.3710    0.0000 C.ar    1  LIG1        0.0191
     19 C          -3.4210   -0.8790    0.0000 C.ar    1  LIG1        0.0015
     20 C          -3.4210    0.0920    0.0000 C.ar    1  LIG1        0.0001
     21 C          -2.5880    0.5750    0.0000 C.ar    1  LIG1        0.0015
@<TRIPOS>BOND
     1     1     2   ar
     2     1     6   ar
     3     1    17   ar
     4     2     3   ar
     5     2    15   ar
     6     3     4   ar
     7     3    11    1
     8     4     5   ar
     9     4     8    1
    10     5     6   ar
    11     6     7    1
    12     8     9    1
    13     9    10    1
    14     9    13    1
    15     9    14    1
    16    10    11    1
    17    11    12    1
    18    15    16   ar
    19    15    21   ar
    20    16    17   ar
    21    16    18   ar
    22    18    19   ar
    23    19    20   ar
    24    20    21   ar
