@<TRIPOS>MOLECULE
23928_ChemDiv_3710-0012
 22 25 0 0 0
SMALL
GASTEIGER
Energy = 0

@<TRIPOS>ATOM
      1 C          -0.0420   -0.6580    0.0000 C.ar    1  LIG1        0.0949
      2 C          -0.0420    0.3080    0.0000 C.ar    1  LIG1        0.0242
      3 C           0.7830    0.7920    0.0000 C.ar    1  LIG1        0.0497
      4 C           1.6330    0.3080    0.0000 C.ar    1  LIG1        0.0614
      5 N           1.6330   -0.6580    0.0000 N.ar    1  LIG1       -0.2524
      6 C           0.7920   -1.1460    0.0000 C.ar    1  LIG1        0.0761
      7 C           0.7920   -2.1210    0.0000 C.3     1  LIG1        0.0474
      8 C          -0.0540   -2.6000    0.0000 C.3     1  LIG1        0.0067
      9 C           2.4670    0.7790    0.0000 C.3     1  LIG1        0.0463
     10 C           2.4670    1.7580    0.0000 C.3     1  LIG1        0.0128
     11 C           1.6330    2.2380    0.0000 C.3     1  LIG1        0.0695
     12 C           0.7920    1.7580    0.0000 C.2     1  LIG1        0.1742
     13 O          -0.0540    2.2540    0.0000 O.2     1  LIG1       -0.2913
     14 C           2.9460    2.6040    0.0000 C.3     1  LIG1        0.0008
     15 C           3.4080    1.5040    0.0000 C.3     1  LIG1        0.0008
     16 C          -1.7250    0.3080    0.0000 C.ar    1  LIG1        0.0193
     17 C          -1.7250   -0.6710    0.0000 C.ar    1  LIG1        0.0813
     18 N          -0.8920   -1.1540    0.0000 N.ar    1  LIG1       -0.2442
     19 C          -2.5630   -1.1540    0.0000 C.ar    1  LIG1        0.0191
     20 C          -3.4130   -0.6710    0.0000 C.ar    1  LIG1        0.0015
     21 C          -3.4130    0.3080    0.0000 C.ar    1  LIG1        0.0001
     22 C          -2.5630    0.7920    0.0000 C.ar    1  LIG1        0.0015
@<TRIPOS>BOND
     1     1     2   ar
     2     1     6   ar
     3     1    18   ar
     4     2     3   ar
     5     2    16   ar
     6     3     4   ar
     7     3    12    1
     8     4     5   ar
     9     4     9    1
    10     5     6   ar
    11     6     7    1
    12     7     8    1
    13     9    10    1
    14    10    11    1
    15    10    14    1
    16    10    15    1
    17    11    12    1
    18    12    13    2
    19    16    17   ar
    20    16    22   ar
    21    17    18   ar
    22    17    19   ar
    23    19    20   ar
    24    20    21   ar
    25    21    22   ar
