@<TRIPOS>MOLECULE
23935_ChemDiv_8013-0182
 18 21 0 0 0
SMALL
GASTEIGER
Energy = 0

@<TRIPOS>ATOM
      1 N           0.2710   -0.0130    0.0000 N.ar    1  LIG1       -0.2577
      2 C           0.2710   -1.0040    0.0000 C.ar    1  LIG1        0.1500
      3 N           1.2040   -1.3250    0.0000 N.ar    1  LIG1       -0.2264
      4 C           1.7880   -0.5080    0.0000 C.ar    1  LIG1        0.0991
      5 C           1.2040    0.3080    0.0000 C.ar    1  LIG1        0.0858
      6 C           1.6420    1.2130    0.0000 C.ar    1  LIG1        0.0192
      7 C           2.6330    1.3000    0.0000 C.ar    1  LIG1        0.0016
      8 C           3.2170    0.4830    0.0000 C.ar    1  LIG1        0.0016
      9 C           2.7790   -0.4210    0.0000 C.ar    1  LIG1        0.0206
     10 C          -0.6290   -1.4960    0.0000 C.ar    1  LIG1        0.0376
     11 C          -1.4750   -1.0040    0.0000 C.ar    1  LIG1        0.0076
     12 C          -1.4750   -0.0130    0.0000 C.ar    1  LIG1        0.0566
     13 C          -0.6290    0.4830    0.0000 C.ar    1  LIG1        0.2658
     14 O          -0.6290    1.5000    0.0000 O.2     1  LIG1       -0.2666
     15 C          -2.3500    0.4830    0.0000 C.ar    1  LIG1        0.0047
     16 C          -3.2210   -0.0130    0.0000 C.ar    1  LIG1        0.0002
     17 C          -3.2210   -1.0040    0.0000 C.ar    1  LIG1        0.0000
     18 C          -2.3500   -1.4960    0.0000 C.ar    1  LIG1        0.0003
@<TRIPOS>BOND
     1     1     2   ar
     2     1     5   ar
     3     1    13   ar
     4     2     3   ar
     5     2    10   ar
     6     3     4   ar
     7     4     5   ar
     8     4     9   ar
     9     5     6   ar
    10     6     7   ar
    11     7     8   ar
    12     8     9   ar
    13    10    11   ar
    14    11    12   ar
    15    11    18   ar
    16    12    13   ar
    17    12    15   ar
    18    13    14    2
    19    15    16   ar
    20    16    17   ar
    21    17    18   ar
