@<TRIPOS>MOLECULE
23940_ChemDiv_D226-0123
 15 17 0 0 0
SMALL
GASTEIGER
Energy = 0

@<TRIPOS>ATOM
      1 C          -0.4040   -0.4580    0.0000 C.ar    1  LIG1        0.1701
      2 N           0.3790   -0.9290    0.0000 N.ar    1  LIG1       -0.2035
      3 C           1.1750   -0.4790    0.0000 C.ar    1  LIG1        0.1730
      4 N           1.1920    0.4380    0.0000 N.ar    1  LIG1       -0.3006
      5 C          -0.4040    0.4500    0.0000 C.ar    1  LIG1        0.1547
      6 C          -1.2040    0.9130    0.0000 C.ar    1  LIG1        0.3019
      7 N          -1.9920    0.4500    0.0000 N.ar    1  LIG1       -0.1518
      8 C          -1.9920   -0.4710    0.0000 C.ar    1  LIG1        0.3540
      9 N          -1.2040   -0.9210    0.0000 N.ar    1  LIG1       -0.2614
     10 C          -1.2040   -1.8460    0.0000 C.3     1  LIG1        0.1367
     11 O          -2.7920   -0.9290    0.0000 O.2     1  LIG1       -0.2443
     12 O          -1.2040    1.8500    0.0000 O.2     1  LIG1       -0.2634
     13 C           2.7880    0.4170    0.0000 C.3     1  LIG1        0.1202
     14 C           2.7670   -0.5080    0.0000 C.3     1  LIG1        0.0896
     15 S           1.9670   -0.9540    0.0000 S.3     1  LIG1       -0.0752
@<TRIPOS>BOND
     1     1     2   ar
     2     1     5   ar
     3     1     9   ar
     4     2     3   ar
     5     3     4   ar
     6     3    15    1
     7     4     5   ar
     8     4    13    1
     9     5     6   ar
    10     6     7   ar
    11     6    12    2
    12     7     8   ar
    13     8     9   ar
    14     8    11    2
    15     9    10    1
    16    13    14    1
    17    14    15    1
