@<TRIPOS>MOLECULE
23947_ChemDiv_000A-0121
 19 20 0 0 0
SMALL
GASTEIGER
Energy = 0

@<TRIPOS>ATOM
      1 C          -1.4500    2.0460    0.0000 C.3     1  LIG1        0.0503
      2 C          -1.4710    1.2580    0.0000 C.3     1  LIG1        0.0108
      3 C          -1.4500    0.4170    0.0000 C.3     1  LIG1        0.0556
      4 C          -0.4710    0.4170    0.0000 C.3     1  LIG1        0.1085
      5 N           0.0790    1.2790    0.0000 N.4     1  LIG1        0.3017
      6 C          -0.5630    2.0460    0.0000 C.3     1  LIG1        0.1083
      7 C           0.9130    0.6880    0.0000 C.3     1  LIG1        0.1149
      8 C           0.8080   -0.3420    0.0000 C.3     1  LIG1        0.1218
      9 C           1.6750   -0.9130    0.0000 C.3     1  LIG1        0.1155
     10 N           1.5830   -1.9630    0.0000 N.4     1  LIG1        0.3108
     11 C           0.5580   -1.8670    0.0000 C.3     1  LIG1        0.1710
     12 C           1.5040   -2.9880    0.0000 C.3     1  LIG1        0.1710
     13 C           2.6330   -2.0290    0.0000 C.3     1  LIG1        0.1710
     14 C           0.6750    2.1380    0.0000 C.3     1  LIG1        0.1704
     15 C          -2.6130    0.4460    0.0000 C.3     1  LIG1        0.0061
     16 C          -2.6380    2.0920    0.0000 C.3     1  LIG1        0.0059
     17 C          -2.0250    1.3040    0.0000 C.3     1  LIG1        0.0004
     18 C          -0.7750    1.2580    0.0000 C.3     1  LIG1        0.0004
     19 C          -1.4500    2.9920    0.0000 C.3     1  LIG1        0.0059
@<TRIPOS>BOND
     1     1     2    1
     2     1     6    1
     3     1    16    1
     4     1    19    1
     5     2     3    1
     6     2    17    1
     7     2    18    1
     8     3     4    1
     9     3    15    1
    10     4     5    1
    11     5     6    1
    12     5     7    1
    13     5    14    1
    14     7     8    1
    15     8     9    1
    16     9    10    1
    17    10    11    1
    18    10    12    1
    19    10    13    1
    20    15    16    1
