@<TRIPOS>MOLECULE
23946_ChemDiv_000A-0562
 17 19 0 0 0
SMALL
GASTEIGER
Energy = 0

@<TRIPOS>ATOM
      1 N           0.2250    1.1540    0.0000 N.2     1  LIG1       -0.2465
      2 C           1.1750    0.9330    0.0000 C.2     1  LIG1        0.0624
      3 C           1.6080    0.0830    0.0000 C.ar    1  LIG1        0.0481
      4 C           1.1750   -0.8830    0.0000 C.ar    1  LIG1        0.1464
      5 O           0.2250   -1.0880    0.0000 O.3     1  LIG1       -0.4519
      6 C          -0.5420   -0.4580    0.0000 C.ar    1  LIG1        0.1628
      7 C          -0.5420    0.5460    0.0000 C.ar    1  LIG1        0.1161
      8 C          -1.4290    1.0420    0.0000 C.ar    1  LIG1        0.0336
      9 C          -2.2920    0.5210    0.0000 C.ar    1  LIG1        0.0594
     10 C          -2.2920   -0.4580    0.0000 C.ar    1  LIG1        0.0146
     11 C          -1.4290   -0.9540    0.0000 C.ar    1  LIG1        0.0399
     12 CL         -3.1750    0.9880    0.0000 Cl      1  LIG1       -0.0822
     13 C           1.7500   -1.6960    0.0000 C.ar    1  LIG1        0.0375
     14 C           2.7540   -1.6960    0.0000 C.ar    1  LIG1        0.0031
     15 C           3.1710   -0.7080    0.0000 C.ar    1  LIG1        0.0002
     16 C           2.6460    0.0830    0.0000 C.ar    1  LIG1        0.0042
     17 C           1.7960    1.7000    0.0000 C.3     1  LIG1        0.0522
@<TRIPOS>BOND
     1     1     2    2
     2     1     7    1
     3     2     3    1
     4     2    17    1
     5     3     4   ar
     6     3    16   ar
     7     4     5    1
     8     4    13   ar
     9     5     6    1
    10     6     7   ar
    11     6    11   ar
    12     7     8   ar
    13     8     9   ar
    14     9    10   ar
    15     9    12    1
    16    10    11   ar
    17    13    14   ar
    18    14    15   ar
    19    15    16   ar
