@<TRIPOS>MOLECULE
23942_ChemDiv_D226-0124
 16 18 0 0 0
SMALL
GASTEIGER
Energy = 0

@<TRIPOS>ATOM
      1 C          -0.3500   -0.4540    0.0000 C.ar    1  LIG1        0.1700
      2 C          -0.3500    0.4540    0.0000 C.ar    1  LIG1        0.1530
      3 C          -1.1630    0.9290    0.0000 C.ar    1  LIG1        0.2832
      4 N          -1.9500    0.4540    0.0000 N.ar    1  LIG1       -0.2454
      5 C          -1.9500   -0.4630    0.0000 C.ar    1  LIG1        0.3350
      6 N          -1.1630   -0.9170    0.0000 N.ar    1  LIG1       -0.2628
      7 C          -1.1630   -1.8500    0.0000 C.3     1  LIG1        0.1366
      8 O          -2.7500   -0.9170    0.0000 O.2     1  LIG1       -0.2461
      9 C          -2.8670    0.4540    0.0000 C.3     1  LIG1        0.1383
     10 O          -1.1630    1.8540    0.0000 O.2     1  LIG1       -0.2652
     11 N           1.2580    0.4540    0.0000 N.ar    1  LIG1       -0.3006
     12 C           1.2380   -0.4790    0.0000 C.ar    1  LIG1        0.1730
     13 N           0.4460   -0.9170    0.0000 N.ar    1  LIG1       -0.2035
     14 S           2.0380   -0.9540    0.0000 S.3     1  LIG1       -0.0752
     15 C           2.8500   -0.5040    0.0000 C.3     1  LIG1        0.0896
     16 C           2.8630    0.4290    0.0000 C.3     1  LIG1        0.1202
@<TRIPOS>BOND
     1     1     2   ar
     2     1     6   ar
     3     1    13   ar
     4     2     3   ar
     5     2    11   ar
     6     3     4   ar
     7     3    10    2
     8     4     5   ar
     9     4     9    1
    10     5     6   ar
    11     5     8    2
    12     6     7    1
    13    11    12   ar
    14    11    16    1
    15    12    13   ar
    16    12    14    1
    17    14    15    1
    18    15    16    1
