@<TRIPOS>MOLECULE
23944_ChemDiv_D226-0137
 24 25 0 0 0
SMALL
GASTEIGER
Energy = 0

@<TRIPOS>ATOM
      1 C          -1.1250   -0.8540    0.0000 C.ar    1  LIG1        0.1701
      2 N          -0.1830   -1.1670    0.0000 N.ar    1  LIG1       -0.2035
      3 C           0.4000   -0.3460    0.0000 C.ar    1  LIG1        0.1729
      4 N          -0.1830    0.4670    0.0000 N.ar    1  LIG1       -0.3015
      5 C          -1.1250    0.1540    0.0000 C.ar    1  LIG1        0.1547
      6 C          -1.9960    0.6420    0.0000 C.ar    1  LIG1        0.3019
      7 N          -2.8630    0.1540    0.0000 N.ar    1  LIG1       -0.1518
      8 C          -2.8630   -0.8540    0.0000 C.ar    1  LIG1        0.3540
      9 N          -1.9960   -1.3710    0.0000 N.ar    1  LIG1       -0.2614
     10 C          -1.9960   -2.3580    0.0000 C.3     1  LIG1        0.1367
     11 O          -3.7460   -1.3710    0.0000 O.2     1  LIG1       -0.2443
     12 O          -1.9960    1.6580    0.0000 O.2     1  LIG1       -0.2634
     13 C           0.1540    1.4080    0.0000 C.3     1  LIG1        0.1082
     14 C           1.1420    1.6040    0.0000 C.3     1  LIG1        0.0246
     15 C           1.4670    2.5420    0.0000 C.3     1  LIG1        0.0020
     16 C           2.4290    2.7330    0.0000 C.3     1  LIG1        0.0001
     17 C           2.7670    3.6670    0.0000 C.3     1  LIG1        0.0000
     18 C           3.7420    3.8330    0.0000 C.3     1  LIG1        0.0000
     19 S           1.3790   -0.3460    0.0000 S.3     1  LIG1       -0.0769
     20 C           1.8920   -1.2210    0.0000 C.3     1  LIG1        0.0710
     21 C           1.3790   -2.0920    0.0000 C.3     1  LIG1        0.0538
     22 C           1.8790   -2.9580    0.0000 C.2     1  LIG1        0.0512
     23 O           2.8670   -2.9830    0.0000 O.co2   1  LIG1       -0.5491
     24 O           1.3920   -3.8290    0.0000 O.co2   1  LIG1       -0.5491
@<TRIPOS>BOND
     1     1     2   ar
     2     1     5   ar
     3     1     9   ar
     4     2     3   ar
     5     3     4   ar
     6     3    19    1
     7     4     5   ar
     8     4    13    1
     9     5     6   ar
    10     6     7   ar
    11     6    12    2
    12     7     8   ar
    13     8     9   ar
    14     8    11    2
    15     9    10    1
    16    13    14    1
    17    14    15    1
    18    15    16    1
    19    16    17    1
    20    17    18    1
    21    19    20    1
    22    20    21    1
    23    21    22    1
    24    22    23   ar
    25    22    24   ar
