@<TRIPOS>MOLECULE
23945_ChemDiv_000A-0113
 32 36 0 0 0
SMALL
GASTEIGER
Energy = 0

@<TRIPOS>ATOM
      1 C          -1.9830    2.7500    0.0000 C.ar    1  LIG1        0.3502
      2 N          -2.5630    1.9170    0.0000 N.ar    1  LIG1       -0.2785
      3 C          -3.5250    2.2580    0.0000 C.ar    1  LIG1        0.0816
      4 C          -3.5250    3.2460    0.0000 C.ar    1  LIG1        0.1018
      5 N          -2.5630    3.5460    0.0000 N.ar    1  LIG1       -0.1908
      6 C          -4.3880    3.7460    0.0000 C.ar    1  LIG1        0.0207
      7 C          -5.2670    3.2460    0.0000 C.ar    1  LIG1        0.0016
      8 C          -5.2670    2.2580    0.0000 C.ar    1  LIG1        0.0016
      9 C          -4.3880    1.7330    0.0000 C.ar    1  LIG1        0.0188
     10 C          -2.2330    0.9830    0.0000 C.3     1  LIG1        0.1121
     11 C          -1.2330    0.7880    0.0000 C.3     1  LIG1        0.0420
     12 C          -0.9330   -0.1540    0.0000 C.3     1  LIG1        0.0745
     13 N           0.0380   -0.3670    0.0000 N.3     1  LIG1       -0.2627
     14 C           0.6960    0.3710    0.0000 C.3     1  LIG1        0.1359
     15 C           1.6670    0.1750    0.0000 C.3     1  LIG1        0.1569
     16 N           2.0040   -0.7630    0.0000 N.4     1  LIG1        0.3814
     17 C           2.9920   -0.9460    0.0000 C.3     1  LIG1        0.1331
     18 C           3.6500   -0.1830    0.0000 C.ar    1  LIG1        0.0328
     19 C           3.2960    0.7880    0.0000 C.ar    1  LIG1        0.0016
     20 C           3.9380    1.5630    0.0000 C.ar    1  LIG1       -0.0001
     21 C           4.9000    1.3710    0.0000 C.ar    1  LIG1       -0.0000
     22 C           5.2630    0.4580    0.0000 C.ar    1  LIG1       -0.0001
     23 C           4.6330   -0.3500    0.0000 C.ar    1  LIG1        0.0016
     24 C           3.3580   -1.8920    0.0000 C.ar    1  LIG1        0.0328
     25 C           2.6880   -2.6420    0.0000 C.ar    1  LIG1        0.0016
     26 C           3.0210   -3.5750    0.0000 C.ar    1  LIG1       -0.0001
     27 C           4.0210   -3.7420    0.0000 C.ar    1  LIG1       -0.0000
     28 C           4.6500   -2.9960    0.0000 C.ar    1  LIG1       -0.0001
     29 C           4.3210   -2.0630    0.0000 C.ar    1  LIG1        0.0016
     30 C           1.3420   -1.5080    0.0000 C.3     1  LIG1        0.1569
     31 C           0.3750   -1.3130    0.0000 C.3     1  LIG1        0.1359
     32 O          -0.9830    2.7830    0.0000 O.2     1  LIG1       -0.2444
@<TRIPOS>BOND
     1     1     2   ar
     2     1     5   ar
     3     1    32    2
     4     2     3   ar
     5     2    10    1
     6     3     4   ar
     7     3     9   ar
     8     4     5   ar
     9     4     6   ar
    10     6     7   ar
    11     7     8   ar
    12     8     9   ar
    13    10    11    1
    14    11    12    1
    15    12    13    1
    16    13    14    1
    17    13    31    1
    18    14    15    1
    19    15    16    1
    20    16    17    1
    21    16    30    1
    22    17    18    1
    23    17    24    1
    24    18    19   ar
    25    18    23   ar
    26    19    20   ar
    27    20    21   ar
    28    21    22   ar
    29    22    23   ar
    30    24    25   ar
    31    24    29   ar
    32    25    26   ar
    33    26    27   ar
    34    27    28   ar
    35    28    29   ar
    36    30    31    1
