@<TRIPOS>MOLECULE
23948_ChemDiv_000A-0564
 25 26 0 0 0
SMALL
GASTEIGER
Energy = 0

@<TRIPOS>ATOM
      1 S          -2.0170    0.5830    0.0000 S.O2    1  LIG1        0.0769
      2 C          -2.5460    1.4500    0.0000 C.ar    1  LIG1        0.1235
      3 C          -2.0420    2.2960    0.0000 C.ar    1  LIG1        0.0196
      4 C          -2.5250    3.1710    0.0000 C.ar    1  LIG1       -0.0029
      5 C          -3.5540    3.2040    0.0000 C.ar    1  LIG1       -0.0218
      6 C          -4.0460    2.2960    0.0000 C.ar    1  LIG1       -0.0029
      7 C          -3.5500    1.4580    0.0000 C.ar    1  LIG1        0.0196
      8 C          -4.0130    4.0750    0.0000 C.3     1  LIG1        0.0310
      9 O          -1.1540    1.0670    0.0000 O.2     1  LIG1       -0.1516
     10 O          -2.9080    0.0670    0.0000 O.2     1  LIG1       -0.1516
     11 N          -1.5250   -0.2790    0.0000 N.3     1  LIG1       -0.0759
     12 C          -0.5210   -0.2790    0.0000 C.3     1  LIG1        0.1388
     13 C          -0.0290   -1.1580    0.0000 C.3     1  LIG1        0.1362
     14 N           0.9830   -1.1580    0.0000 N.am    1  LIG1       -0.2000
     15 C           1.4880   -2.0040    0.0000 C.2     1  LIG1        0.2678
     16 C           2.4790   -2.0040    0.0000 C.ar    1  LIG1        0.0922
     17 C           3.1500   -2.7460    0.0000 C.ar    1  LIG1        0.0790
     18 S           4.0420   -2.3500    0.0000 S.2     1  LIG1        0.0199
     19 N           3.9540   -1.3630    0.0000 N.ar    1  LIG1       -0.2023
     20 C           2.9750   -1.1460    0.0000 C.ar    1  LIG1        0.1199
     21 S           2.5880   -0.2500    0.0000 S.3     1  LIG1       -0.0932
     22 C           3.2040    0.5420    0.0000 C.3     1  LIG1        0.0757
     23 S           2.9540   -3.7330    0.0000 S.3     1  LIG1       -0.1047
     24 C           2.0250   -4.0750    0.0000 C.3     1  LIG1        0.0747
     25 O           0.9580   -2.8790    0.0000 O.2     1  LIG1       -0.2683
@<TRIPOS>BOND
     1     1     2    1
     2     1     9    2
     3     1    10    2
     4     1    11    1
     5     2     3   ar
     6     2     7   ar
     7     3     4   ar
     8     4     5   ar
     9     5     6   ar
    10     5     8    1
    11     6     7   ar
    12    11    12    1
    13    12    13    1
    14    13    14    1
    15    14    15   am
    16    15    16    1
    17    15    25    2
    18    16    17   ar
    19    16    20   ar
    20    17    18   ar
    21    17    23    1
    22    18    19   ar
    23    19    20   ar
    24    20    21    1
    25    21    22    1
    26    23    24    1
