@<TRIPOS>MOLECULE
23953_ChemDiv_8015-5068
 14 16 0 0 0
SMALL
GASTEIGER
Energy = 0

@<TRIPOS>ATOM
      1 N          -1.1000    0.0880    0.0000 N.ar    1  LIG1       -0.2888
      2 C          -1.1000   -0.9080    0.0000 C.ar    1  LIG1        0.1478
      3 N          -0.1580   -1.2210    0.0000 N.ar    1  LIG1       -0.2264
      4 C           0.4210   -0.4210    0.0000 C.ar    1  LIG1        0.1003
      5 C          -0.1580    0.4000    0.0000 C.ar    1  LIG1        0.0831
      6 C           0.2580    1.3130    0.0000 C.ar    1  LIG1        0.0205
      7 C           1.2580    1.4130    0.0000 C.ar    1  LIG1        0.0196
      8 C           1.8460    0.6000    0.0000 C.ar    1  LIG1        0.0907
      9 C           1.4330   -0.3210    0.0000 C.ar    1  LIG1        0.0387
     10 N           2.8330    0.7080    0.0000 N.pl3   1  LIG1       -0.1280
     11 C          -1.9670   -1.4080    0.0000 C.ar    1  LIG1        0.0374
     12 C          -2.8380   -0.9080    0.0000 C.ar    1  LIG1        0.0046
     13 C          -2.8380    0.0880    0.0000 C.ar    1  LIG1        0.0191
     14 C          -1.9670    0.5880    0.0000 C.ar    1  LIG1        0.0814
@<TRIPOS>BOND
     1     1     2   ar
     2     1     5   ar
     3     1    14   ar
     4     2     3   ar
     5     2    11   ar
     6     3     4   ar
     7     4     5   ar
     8     4     9   ar
     9     5     6   ar
    10     6     7   ar
    11     7     8   ar
    12     8     9   ar
    13     8    10    1
    14    11    12   ar
    15    12    13   ar
    16    13    14   ar
