@<TRIPOS>MOLECULE
23956_ChemDiv_6840-0066
 23 26 0 0 0
SMALL
GASTEIGER
Energy = 0

@<TRIPOS>ATOM
      1 N           1.7080   -2.4540    0.0000 N.2     1  LIG1       -0.2503
      2 C           2.5250   -1.9750    0.0000 C.2     1  LIG1        0.0547
      3 C           2.5250   -1.0210    0.0000 C.2     1  LIG1       -0.0108
      4 C           0.8880   -1.0210    0.0000 C.2     1  LIG1       -0.0033
      5 C           0.8880   -1.9750    0.0000 C.2     1  LIG1        0.0769
      6 C           0.0460   -2.4540    0.0000 C.2     1  LIG1        0.0182
      7 C          -0.7670   -1.9750    0.0000 C.2     1  LIG1       -0.0049
      8 C          -0.7670   -1.0210    0.0000 C.2     1  LIG1       -0.0182
      9 C           0.0460   -0.5460    0.0000 C.3     1  LIG1        0.0513
     10 C          -1.5880   -0.5330    0.0000 C.3     1  LIG1        0.1392
     11 N          -2.4630   -1.0420    0.0000 N.am    1  LIG1       -0.1839
     12 C          -3.3250   -0.5330    0.0000 C.2     1  LIG1        0.3237
     13 N          -3.3250    0.4580    0.0000 N.am    1  LIG1       -0.2577
     14 C          -2.4630    0.9540    0.0000 C.3     1  LIG1        0.1271
     15 C          -2.4630    1.9630    0.0000 C.3     1  LIG1        0.1637
     16 O          -3.3250    2.4580    0.0000 O.3     1  LIG1       -0.3501
     17 C          -4.2000    1.9630    0.0000 C.3     1  LIG1        0.1637
     18 C          -4.2000    0.9540    0.0000 C.3     1  LIG1        0.1271
     19 O          -4.2000   -1.0420    0.0000 O.2     1  LIG1       -0.2508
     20 C           3.3630   -0.5460    0.0000 C.3     1  LIG1        0.0273
     21 C           4.1960   -1.0210    0.0000 C.3     1  LIG1        0.0051
     22 C           4.1960   -1.9750    0.0000 C.3     1  LIG1        0.0066
     23 C           3.3630   -2.4540    0.0000 C.3     1  LIG1        0.0455
@<TRIPOS>BOND
     1     1     2    2
     2     1     5    1
     3     2     3    1
     4     2    23    1
     5     3     4    2
     6     3    20    1
     7     4     5    1
     8     4     9    1
     9     5     6    2
    10     6     7    1
    11     7     8    2
    12     8     9    1
    13     8    10    1
    14    10    11    1
    15    11    12   am
    16    12    13   am
    17    12    19    2
    18    13    14    1
    19    13    18    1
    20    14    15    1
    21    15    16    1
    22    16    17    1
    23    17    18    1
    24    20    21    1
    25    21    22    1
    26    22    23    1
