@<TRIPOS>MOLECULE
23957_ChemDiv_000A-0199
 22 24 0 0 0
SMALL
GASTEIGER
Energy = 0

@<TRIPOS>ATOM
      1 N           0.8540    0.9880    0.0000 N.am    1  LIG1       -0.2513
      2 C           0.8540    1.9920    0.0000 C.2     1  LIG1        0.3282
      3 N           0.0000    2.5040    0.0000 N.am    1  LIG1       -0.1624
      4 C          -0.8580    1.9920    0.0000 C.ar    1  LIG1        0.0728
      5 C          -0.8580    0.9880    0.0000 C.ar    1  LIG1        0.0159
      6 C           0.0000    0.4960    0.0000 C.3     1  LIG1        0.1236
      7 C           0.0000   -0.5250    0.0000 C.ar    1  LIG1        0.0000
      8 C           0.8540   -1.0040    0.0000 C.ar    1  LIG1       -0.0023
      9 C           0.8540   -2.0210    0.0000 C.ar    1  LIG1       -0.0003
     10 C           0.0000   -2.5000    0.0000 C.ar    1  LIG1       -0.0000
     11 C          -0.8580   -2.0210    0.0000 C.ar    1  LIG1       -0.0003
     12 C          -0.8580   -1.0040    0.0000 C.ar    1  LIG1       -0.0023
     13 C          -1.7210    0.4960    0.0000 C.ar    1  LIG1        0.0056
     14 C          -2.5790    0.9880    0.0000 C.ar    1  LIG1        0.0344
     15 C          -2.5790    1.9920    0.0000 C.ar    1  LIG1        0.0080
     16 C          -1.7210    2.5040    0.0000 C.ar    1  LIG1        0.0169
     17 BR         -3.4500    0.4710    0.0000 Br      1  LIG1       -0.0490
     18 O           1.7500    2.5040    0.0000 O.2     1  LIG1       -0.2504
     19 C           1.7500    0.4710    0.0000 C.3     1  LIG1        0.1373
     20 C           2.6080    0.9500    0.0000 C.2     1  LIG1        0.0705
     21 O           3.4460    0.4290    0.0000 O.co2   1  LIG1       -0.5474
     22 O           2.6460    1.9630    0.0000 O.co2   1  LIG1       -0.5474
@<TRIPOS>BOND
     1     1     2   am
     2     1     6    1
     3     1    19    1
     4     2     3   am
     5     2    18    2
     6     3     4    1
     7     4     5   ar
     8     4    16   ar
     9     5     6    1
    10     5    13   ar
    11     6     7    1
    12     7     8   ar
    13     7    12   ar
    14     8     9   ar
    15     9    10   ar
    16    10    11   ar
    17    11    12   ar
    18    13    14   ar
    19    14    15   ar
    20    14    17    1
    21    15    16   ar
    22    19    20    1
    23    20    21   ar
    24    20    22   ar
