@<TRIPOS>MOLECULE
23955_ChemDiv_8016-9345
 22 26 0 0 0
SMALL
GASTEIGER
Energy = 0

@<TRIPOS>ATOM
      1 N          -0.0250    0.0080    0.0000 N.ar    1  LIG1       -0.2577
      2 C          -0.5210   -0.8670    0.0000 C.ar    1  LIG1        0.1499
      3 N           0.1500   -1.6040    0.0000 N.ar    1  LIG1       -0.2264
      4 C           1.0750   -1.2000    0.0000 C.ar    1  LIG1        0.0991
      5 C           0.9630   -0.2000    0.0000 C.ar    1  LIG1        0.0866
      6 C           1.7750    0.3960    0.0000 C.ar    1  LIG1        0.0306
      7 C           2.6920   -0.0040    0.0000 C.ar    1  LIG1        0.0592
      8 C           2.8000   -1.0130    0.0000 C.ar    1  LIG1        0.0130
      9 C           1.9920   -1.6040    0.0000 C.ar    1  LIG1        0.0215
     10 CL          3.5040    0.5790    0.0000 Cl      1  LIG1       -0.0822
     11 C          -1.5130   -0.8630    0.0000 C.ar    1  LIG1        0.0347
     12 C          -2.0080    0.0080    0.0000 C.ar    1  LIG1        0.0075
     13 C          -1.5130    0.8580    0.0000 C.ar    1  LIG1        0.0566
     14 C          -0.5210    0.8580    0.0000 C.ar    1  LIG1        0.2658
     15 O          -0.0250    1.7210    0.0000 O.2     1  LIG1       -0.2666
     16 C          -2.0080    1.7290    0.0000 C.ar    1  LIG1        0.0047
     17 C          -3.0080    1.7290    0.0000 C.ar    1  LIG1        0.0002
     18 C          -3.5080    0.8580    0.0000 C.ar    1  LIG1        0.0000
     19 C          -3.0080    0.0080    0.0000 C.ar    1  LIG1        0.0002
     20 C          -3.5080   -0.8630    0.0000 C.ar    1  LIG1        0.0000
     21 C          -3.0080   -1.7250    0.0000 C.ar    1  LIG1        0.0001
     22 C          -2.0080   -1.7250    0.0000 C.ar    1  LIG1        0.0030
@<TRIPOS>BOND
     1     1     2   ar
     2     1     5   ar
     3     1    14   ar
     4     2     3   ar
     5     2    11   ar
     6     3     4   ar
     7     4     5   ar
     8     4     9   ar
     9     5     6   ar
    10     6     7   ar
    11     7     8   ar
    12     7    10    1
    13     8     9   ar
    14    11    12   ar
    15    11    22   ar
    16    12    13   ar
    17    12    19   ar
    18    13    14   ar
    19    13    16   ar
    20    14    15    2
    21    16    17   ar
    22    17    18   ar
    23    18    19   ar
    24    19    20   ar
    25    20    21   ar
    26    21    22   ar
