@<TRIPOS>MOLECULE
23959_ChemDiv_000A-0202
 29 31 0 0 0
SMALL
GASTEIGER
Energy = 0

@<TRIPOS>ATOM
      1 S           2.7130    1.1580    0.0000 S.O2    1  LIG1       -0.0578
      2 N           2.2080    0.2710    0.0000 N.pl3   1  LIG1       -0.5357
      3 C           2.7130   -0.5960    0.0000 C.ar    1  LIG1       -0.1101
      4 C           2.2080   -1.4540    0.0000 C.ar    1  LIG1        0.0058
      5 C           2.7130   -2.3170    0.0000 C.ar    1  LIG1        0.1383
      6 F           2.2080   -3.1710    0.0000 F       1  LIG1       -0.2042
      7 C           3.7040   -2.3170    0.0000 C.ar    1  LIG1        0.0295
      8 C           4.2080   -1.4540    0.0000 C.ar    1  LIG1        0.0004
      9 C           3.7040   -0.5960    0.0000 C.ar    1  LIG1       -0.0237
     10 C           1.8460    1.6750    0.0000 C.ar    1  LIG1        0.0894
     11 C           0.9790    1.1790    0.0000 C.ar    1  LIG1        0.0215
     12 C           0.1000    1.6750    0.0000 C.ar    1  LIG1        0.0566
     13 C          -0.7670    1.1580    0.0000 C.2     1  LIG1        0.2690
     14 N          -1.6330    1.6540    0.0000 N.am    1  LIG1       -0.1754
     15 C          -2.4880    1.1580    0.0000 C.ar    1  LIG1        0.0737
     16 C          -2.4880    0.1540    0.0000 C.ar    1  LIG1        0.0177
     17 C          -3.3540   -0.3460    0.0000 C.ar    1  LIG1        0.0153
     18 C          -3.3540   -1.3330    0.0000 C.2     1  LIG1        0.0729
     19 O          -4.2040   -1.8290    0.0000 O.co2   1  LIG1       -0.5446
     20 O          -2.5000   -1.8210    0.0000 O.co2   1  LIG1       -0.5446
     21 C          -4.2130    0.1540    0.0000 C.ar    1  LIG1        0.0012
     22 C          -4.2130    1.1580    0.0000 C.ar    1  LIG1        0.0014
     23 C          -3.3540    1.6540    0.0000 C.ar    1  LIG1        0.0166
     24 O          -0.7670    0.1540    0.0000 O.2     1  LIG1       -0.2680
     25 C           0.1000    2.6750    0.0000 C.ar    1  LIG1        0.0047
     26 C           0.9790    3.1750    0.0000 C.ar    1  LIG1        0.0014
     27 C           1.8460    2.6750    0.0000 C.ar    1  LIG1        0.0169
     28 O           3.2290    2.0380    0.0000 O.2     1  LIG1       -0.1842
     29 O           3.5920    0.6540    0.0000 O.2     1  LIG1       -0.1842
@<TRIPOS>BOND
     1     1     2    1
     2     1    10    1
     3     1    28    2
     4     1    29    2
     5     2     3    1
     6     3     4   ar
     7     3     9   ar
     8     4     5   ar
     9     5     6    1
    10     5     7   ar
    11     7     8   ar
    12     8     9   ar
    13    10    11   ar
    14    10    27   ar
    15    11    12   ar
    16    12    13    1
    17    12    25   ar
    18    13    14   am
    19    13    24    2
    20    14    15    1
    21    15    16   ar
    22    15    23   ar
    23    16    17   ar
    24    17    18    1
    25    17    21   ar
    26    18    19   ar
    27    18    20   ar
    28    21    22   ar
    29    22    23   ar
    30    25    26   ar
    31    26    27   ar
