@<TRIPOS>MOLECULE
23963_ChemDiv_000A-0215
 22 23 0 0 0
SMALL
GASTEIGER
Energy = 0

@<TRIPOS>ATOM
      1 C           0.4630    2.1380    0.0000 C.ar    1  LIG1        0.0105
      2 C          -0.4080    1.6290    0.0000 C.3     1  LIG1        0.0646
      3 C          -1.2790    2.1380    0.0000 C.3     1  LIG1        0.1869
      4 C          -1.2790    3.1580    0.0000 C.3     1  LIG1        0.1868
      5 C          -0.4080    3.6460    0.0000 C.3     1  LIG1        0.0617
      6 C           0.4630    3.1330    0.0000 C.ar    1  LIG1       -0.0205
      7 C           1.3080    3.6460    0.0000 C.ar    1  LIG1       -0.0043
      8 C           2.1710    3.1580    0.0000 C.ar    1  LIG1        0.0028
      9 C           2.1710    2.1380    0.0000 C.ar    1  LIG1        0.0366
     10 C           1.3080    1.6290    0.0000 C.ar    1  LIG1        0.1344
     11 O           1.3080    0.6290    0.0000 O.3     1  LIG1       -0.4728
     12 C           0.4630    0.1420    0.0000 C.3     1  LIG1        0.2445
     13 C           0.4630   -0.8460    0.0000 C.3     1  LIG1        0.2574
     14 C          -0.4080   -1.3380    0.0000 C.3     1  LIG1        0.2370
     15 N          -0.4330   -2.3290    0.0000 N.4     1  LIG1        0.4412
     16 C          -1.3000   -2.8210    0.0000 C.3     1  LIG1        0.0979
     17 C          -1.7920   -1.9500    0.0000 C.3     1  LIG1        0.0627
     18 C          -0.8170   -3.6880    0.0000 C.3     1  LIG1        0.0627
     19 C          -2.1750   -3.3040    0.0000 C.3     1  LIG1        0.0627
     20 O           1.3080   -1.3580    0.0000 O.3     1  LIG1       -0.2124
     21 O          -2.1420    3.6920    0.0000 O.3     1  LIG1       -0.2200
     22 O          -2.1420    1.5790    0.0000 O.3     1  LIG1       -0.2200
@<TRIPOS>BOND
     1     1     2    1
     2     1     6   ar
     3     1    10   ar
     4     2     3    1
     5     3     4    1
     6     3    22    1
     7     4     5    1
     8     4    21    1
     9     5     6    1
    10     6     7   ar
    11     7     8   ar
    12     8     9   ar
    13     9    10   ar
    14    10    11    1
    15    11    12    1
    16    12    13    1
    17    13    14    1
    18    13    20    1
    19    14    15    1
    20    15    16    1
    21    16    17    1
    22    16    18    1
    23    16    19    1
