@<TRIPOS>MOLECULE
23969_ChemDiv_3690-0783
 15 15 0 0 0
SMALL
GASTEIGER
Energy = 0

@<TRIPOS>ATOM
      1 N          -0.5170    1.2330    0.0000 N.am    1  LIG1       -0.2297
      2 C          -0.5170    2.2500    0.0000 C.2     1  LIG1        0.2313
      3 O           0.3750    2.7630    0.0000 O.2     1  LIG1       -0.2745
      4 C          -1.3670    2.7460    0.0000 C.3     1  LIG1        0.0862
      5 C          -2.2330    2.2500    0.0000 C.3     1  LIG1        0.0191
      6 C          -2.2330    1.2540    0.0000 C.3     1  LIG1        0.0862
      7 C          -1.3670    0.7420    0.0000 C.2     1  LIG1        0.2313
      8 O          -1.3670   -0.2460    0.0000 O.2     1  LIG1       -0.2745
      9 C           0.3750    0.7420    0.0000 C.3     1  LIG1        0.1070
     10 C           0.3750   -0.2710    0.0000 C.3     1  LIG1        0.0829
     11 C           1.2170   -0.7630    0.0000 C.3     1  LIG1        0.1110
     12 N           1.2170   -1.7750    0.0000 N.4     1  LIG1        0.3106
     13 C           2.2290   -1.7750    0.0000 C.3     1  LIG1        0.1710
     14 C           0.2330   -1.7750    0.0000 C.3     1  LIG1        0.1710
     15 C           1.2170   -2.7580    0.0000 C.3     1  LIG1        0.1710
@<TRIPOS>BOND
     1     1     2   am
     2     1     7   am
     3     1     9    1
     4     2     3    2
     5     2     4    1
     6     4     5    1
     7     5     6    1
     8     6     7    1
     9     7     8    2
    10     9    10    1
    11    10    11    1
    12    11    12    1
    13    12    13    1
    14    12    14    1
    15    12    15    1
