@<TRIPOS>MOLECULE
23967_ChemDiv_0075-0007
 20 21 0 0 0
SMALL
GASTEIGER
Energy = 0

@<TRIPOS>ATOM
      1 S          -0.1040    0.0040    0.0000 S.O2    1  LIG1        0.0648
      2 C          -0.9830    0.5250    0.0000 C.ar    1  LIG1        0.1419
      3 C          -1.8380    0.0210    0.0000 C.ar    1  LIG1        0.1273
      4 N          -2.0380   -0.9670    0.0000 N.ar    1  LIG1       -0.1888
      5 S          -3.0250   -1.0500    0.0000 S.2     1  LIG1        0.1165
      6 N          -3.4170   -0.1500    0.0000 N.ar    1  LIG1       -0.1901
      7 C          -2.6920    0.5250    0.0000 C.ar    1  LIG1        0.1102
      8 C          -2.6920    1.5170    0.0000 C.ar    1  LIG1        0.0214
      9 C          -1.8380    2.0210    0.0000 C.ar    1  LIG1        0.0030
     10 C          -0.9830    1.5170    0.0000 C.ar    1  LIG1        0.0216
     11 N           0.7750   -0.5000    0.0000 N.3     1  LIG1       -0.1558
     12 C           0.7750   -1.5330    0.0000 C.3     1  LIG1        0.0797
     13 C          -0.0750   -2.0170    0.0000 C.3     1  LIG1        0.0192
     14 C           1.6330   -2.0170    0.0000 C.3     1  LIG1        0.0192
     15 C           1.6500    0.0040    0.0000 C.3     1  LIG1        0.1119
     16 C           1.6710    1.0130    0.0000 C.3     1  LIG1        0.1245
     17 C           2.5290    1.4920    0.0000 C.1     1  LIG1        0.0747
     18 N           3.4130    1.9960    0.0000 N.1     1  LIG1       -0.1958
     19 O           0.4250    0.8790    0.0000 O.2     1  LIG1       -0.1527
     20 O          -0.6080   -0.8750    0.0000 O.2     1  LIG1       -0.1527
@<TRIPOS>BOND
     1     1     2    1
     2     1    11    1
     3     1    19    2
     4     1    20    2
     5     2     3   ar
     6     2    10   ar
     7     3     4   ar
     8     3     7   ar
     9     4     5   ar
    10     5     6   ar
    11     6     7   ar
    12     7     8   ar
    13     8     9   ar
    14     9    10   ar
    15    11    12    1
    16    11    15    1
    17    12    13    1
    18    12    14    1
    19    15    16    1
    20    16    17    1
    21    17    18    3
