@<TRIPOS>MOLECULE
23965_ChemDiv_000A-0238
 21 22 0 0 0
SMALL
GASTEIGER
Energy = 0

@<TRIPOS>ATOM
      1 C          -2.7170    0.2710    0.0000 C.ar    1  LIG1        0.1432
      2 S          -1.7330    0.0130    0.0000 S.O2    1  LIG1        0.0784
      3 O          -1.4790    1.0000    0.0000 O.2     1  LIG1       -0.1515
      4 O          -1.9880   -0.9420    0.0000 O.2     1  LIG1       -0.1515
      5 N          -0.7460   -0.2380    0.0000 N.3     1  LIG1       -0.0777
      6 C          -0.0710    0.4670    0.0000 C.3     1  LIG1        0.1155
      7 C           0.9170    0.2210    0.0000 C.3     1  LIG1        0.0208
      8 C           1.5880    0.9250    0.0000 C.3     1  LIG1        0.0019
      9 C           2.5710    0.6670    0.0000 C.3     1  LIG1        0.0059
     10 C           3.2540    1.3710    0.0000 C.3     1  LIG1        0.0417
     11 C           4.2420    1.1170    0.0000 C.2     1  LIG1        0.0503
     12 O           4.9170    1.8210    0.0000 O.co2   1  LIG1       -0.5492
     13 O           4.4920    0.1540    0.0000 O.co2   1  LIG1       -0.5492
     14 C          -3.4000   -0.4330    0.0000 C.ar    1  LIG1        0.1274
     15 N          -3.3460   -1.4210    0.0000 N.ar    1  LIG1       -0.1888
     16 S          -4.2670   -1.8170    0.0000 S.2     1  LIG1        0.1165
     17 N          -4.9210   -1.0250    0.0000 N.ar    1  LIG1       -0.1901
     18 C          -4.3830   -0.1790    0.0000 C.ar    1  LIG1        0.1102
     19 C          -4.6380    0.7830    0.0000 C.ar    1  LIG1        0.0214
     20 C          -3.9330    1.4880    0.0000 C.ar    1  LIG1        0.0030
     21 C          -2.9750    1.2420    0.0000 C.ar    1  LIG1        0.0216
@<TRIPOS>BOND
     1     1     2    1
     2     1    14   ar
     3     1    21   ar
     4     2     3    2
     5     2     4    2
     6     2     5    1
     7     5     6    1
     8     6     7    1
     9     7     8    1
    10     8     9    1
    11     9    10    1
    12    10    11    1
    13    11    12   ar
    14    11    13   ar
    15    14    15   ar
    16    14    18   ar
    17    15    16   ar
    18    16    17   ar
    19    17    18   ar
    20    18    19   ar
    21    19    20   ar
    22    20    21   ar
