@<TRIPOS>MOLECULE
23961_ChemDiv_1021-1372
 35 38 0 0 0
SMALL
GASTEIGER
Energy = 0

@<TRIPOS>ATOM
      1 S           0.0170    2.9500    0.0000 S.O2    1  LIG1       -0.0578
      2 C          -1.0210    2.9500    0.0000 C.ar    1  LIG1        0.0895
      3 C          -1.4960    2.0880    0.0000 C.ar    1  LIG1        0.0220
      4 C          -2.5170    2.0880    0.0000 C.ar    1  LIG1        0.0628
      5 C          -3.0080    1.1500    0.0000 C.2     1  LIG1        0.2695
      6 N          -2.4670    0.2880    0.0000 N.am    1  LIG1       -0.1754
      7 C          -3.0080   -0.5790    0.0000 C.ar    1  LIG1        0.0737
      8 C          -2.4670   -1.4420    0.0000 C.ar    1  LIG1        0.0166
      9 C          -3.0080   -2.3040    0.0000 C.ar    1  LIG1        0.0013
     10 C          -3.9670   -2.3040    0.0000 C.ar    1  LIG1        0.0001
     11 C          -4.5040   -1.4420    0.0000 C.ar    1  LIG1        0.0013
     12 C          -3.9670   -0.5790    0.0000 C.ar    1  LIG1        0.0166
     13 O          -4.0250    1.1500    0.0000 O.2     1  LIG1       -0.2680
     14 C          -3.0080    2.9500    0.0000 C.ar    1  LIG1        0.0391
     15 C          -2.5170    3.8170    0.0000 C.ar    1  LIG1        0.0081
     16 C          -1.4960    3.8170    0.0000 C.ar    1  LIG1        0.0174
     17 BR         -3.9880    2.9500    0.0000 Br      1  LIG1       -0.0488
     18 N           1.0460    2.9500    0.0000 N.pl3   1  LIG1       -0.5358
     19 C           1.5630    2.0880    0.0000 C.ar    1  LIG1       -0.1122
     20 C           1.0960    1.2000    0.0000 C.ar    1  LIG1       -0.0225
     21 C           1.5630    0.3580    0.0000 C.ar    1  LIG1        0.0148
     22 C           2.5420    0.3580    0.0000 C.ar    1  LIG1        0.0736
     23 N           3.0330   -0.5040    0.0000 N.am    1  LIG1       -0.1754
     24 C           2.5210   -1.3920    0.0000 C.2     1  LIG1        0.2690
     25 O           1.5290   -1.3920    0.0000 O.2     1  LIG1       -0.2680
     26 C           3.0130   -2.2540    0.0000 C.ar    1  LIG1        0.0554
     27 C           2.5420   -3.1250    0.0000 C.ar    1  LIG1        0.0046
     28 C           3.0330   -3.9630    0.0000 C.ar    1  LIG1        0.0001
     29 C           4.0500   -3.9460    0.0000 C.ar    1  LIG1        0.0000
     30 C           4.5000   -3.0630    0.0000 C.ar    1  LIG1        0.0001
     31 C           3.9710   -2.2540    0.0000 C.ar    1  LIG1        0.0046
     32 C           3.0330    1.2380    0.0000 C.ar    1  LIG1        0.0148
     33 C           2.5420    2.0880    0.0000 C.ar    1  LIG1       -0.0225
     34 O           0.0170    1.9290    0.0000 O.2     1  LIG1       -0.1842
     35 O           0.0170    3.9670    0.0000 O.2     1  LIG1       -0.1842
@<TRIPOS>BOND
     1     1     2    1
     2     1    18    1
     3     1    34    2
     4     1    35    2
     5     2     3   ar
     6     2    16   ar
     7     3     4   ar
     8     4     5    1
     9     4    14   ar
    10     5     6   am
    11     5    13    2
    12     6     7    1
    13     7     8   ar
    14     7    12   ar
    15     8     9   ar
    16     9    10   ar
    17    10    11   ar
    18    11    12   ar
    19    14    15   ar
    20    14    17    1
    21    15    16   ar
    22    18    19    1
    23    19    20   ar
    24    19    33   ar
    25    20    21   ar
    26    21    22   ar
    27    22    23    1
    28    22    32   ar
    29    23    24   am
    30    24    25    2
    31    24    26    1
    32    26    27   ar
    33    26    31   ar
    34    27    28   ar
    35    28    29   ar
    36    29    30   ar
    37    30    31   ar
    38    32    33   ar
