@<TRIPOS>MOLECULE
23979_ChemDiv_8016-5004
 12 12 0 0 0
SMALL
GASTEIGER
Energy = 0

@<TRIPOS>ATOM
      1 N           0.8670    0.5080    0.0000 N.4     1  LIG1        0.3784
      2 C           0.8670   -0.5460    0.0000 C.3     1  LIG1        0.1577
      3 C          -0.0460   -1.0670    0.0000 C.3     1  LIG1        0.1483
      4 C          -0.9460   -0.5460    0.0000 C.3     1  LIG1        0.0220
      5 C          -1.7130   -0.0710    0.0000 C.3     1  LIG1        0.0017
      6 C          -0.5080    0.1960    0.0000 C.3     1  LIG1        0.0017
      7 C          -1.3630   -1.2710    0.0000 C.3     1  LIG1        0.0017
      8 N          -0.0460   -2.1080    0.0000 N.3     1  LIG1       -0.1266
      9 C           1.7080    1.1210    0.0000 C.3     1  LIG1        0.1388
     10 C           1.3920    2.1130    0.0000 C.3     1  LIG1        0.0688
     11 C           0.3460    2.1130    0.0000 C.3     1  LIG1        0.0688
     12 C           0.0210    1.1210    0.0000 C.3     1  LIG1        0.1388
@<TRIPOS>BOND
     1     1     2    1
     2     1     9    1
     3     1    12    1
     4     2     3    1
     5     3     4    1
     6     3     8    1
     7     4     5    1
     8     4     6    1
     9     4     7    1
    10     9    10    1
    11    10    11    1
    12    11    12    1
