@<TRIPOS>MOLECULE
23989_ChemDiv_1217-1064A
 23 25 0 0 0
SMALL
GASTEIGER
Energy = 0

@<TRIPOS>ATOM
      1 S          -1.4790    0.6790    0.0000 S.O2    1  LIG1        0.0648
      2 C          -2.5130    0.6790    0.0000 C.ar    1  LIG1        0.1419
      3 C          -3.0250   -0.1540    0.0000 C.ar    1  LIG1        0.1273
      4 N          -2.7290   -1.1000    0.0000 N.ar    1  LIG1       -0.1888
      5 S          -3.5540   -1.6920    0.0000 S.2     1  LIG1        0.1165
      6 N          -4.3790   -1.0670    0.0000 N.ar    1  LIG1       -0.1901
      7 C          -4.0420   -0.1540    0.0000 C.ar    1  LIG1        0.1102
      8 C          -4.5210    0.7250    0.0000 C.ar    1  LIG1        0.0214
      9 C          -4.0000    1.5710    0.0000 C.ar    1  LIG1        0.0030
     10 C          -2.9750    1.5710    0.0000 C.ar    1  LIG1        0.0216
     11 N          -0.4790    0.6790    0.0000 N.3     1  LIG1       -0.1555
     12 C           0.0290    1.5290    0.0000 C.3     1  LIG1        0.0964
     13 C           1.0460    1.5290    0.0000 C.3     1  LIG1        0.0303
     14 C           1.5460    0.6790    0.0000 C.3     1  LIG1        0.1019
     15 C           2.5420    0.6790    0.0000 C.2     1  LIG1        0.3165
     16 O           3.0380    1.5670    0.0000 O.2     1  LIG1       -0.2501
     17 O           2.9670   -0.1880    0.0000 O.3     1  LIG1       -0.4485
     18 C           3.9630   -0.1880    0.0000 C.3     1  LIG1        0.2086
     19 C           4.5170    0.5540    0.0000 C.3     1  LIG1        0.0513
     20 C           1.0380   -0.1880    0.0000 C.3     1  LIG1        0.0303
     21 C           0.0460   -0.1880    0.0000 C.3     1  LIG1        0.0964
     22 O          -1.4790    1.6960    0.0000 O.2     1  LIG1       -0.1527
     23 O          -1.4790   -0.3210    0.0000 O.2     1  LIG1       -0.1527
@<TRIPOS>BOND
     1     1     2    1
     2     1    11    1
     3     1    22    2
     4     1    23    2
     5     2     3   ar
     6     2    10   ar
     7     3     4   ar
     8     3     7   ar
     9     4     5   ar
    10     5     6   ar
    11     6     7   ar
    12     7     8   ar
    13     8     9   ar
    14     9    10   ar
    15    11    12    1
    16    11    21    1
    17    12    13    1
    18    13    14    1
    19    14    15    1
    20    14    20    1
    21    15    16    2
    22    15    17    1
    23    17    18    1
    24    18    19    1
    25    20    21    1
