@<TRIPOS>MOLECULE
23982_ChemDiv_000A-0666
 34 38 0 0 0
SMALL
GASTEIGER
Energy = 0

@<TRIPOS>ATOM
      1 C           0.4580   -0.2380    0.0000 C.ar    1  LIG1        0.1597
      2 N          -0.4000    0.2580    0.0000 N.ar    1  LIG1       -0.2471
      3 C          -1.2540   -0.2380    0.0000 C.ar    1  LIG1        0.1432
      4 C          -1.2540   -1.2290    0.0000 C.ar    1  LIG1        0.0769
      5 C          -0.4000   -1.7250    0.0000 C.ar    1  LIG1        0.2025
      6 C           0.4580   -1.2290    0.0000 C.ar    1  LIG1        0.0858
      7 C           1.3130   -1.7250    0.0000 C.ar    1  LIG1        0.0520
      8 N           2.1790   -1.2290    0.0000 N.ar    1  LIG1       -0.2624
      9 C           2.1790   -0.2380    0.0000 C.ar    1  LIG1        0.3551
     10 N           1.3130    0.2580    0.0000 N.ar    1  LIG1       -0.1740
     11 O           3.0630    0.2830    0.0000 O.2     1  LIG1       -0.2440
     12 C           3.0380   -1.7250    0.0000 C.ar    1  LIG1        0.0680
     13 C           3.8880   -1.2290    0.0000 C.ar    1  LIG1        0.0177
     14 C           4.7500   -1.7250    0.0000 C.ar    1  LIG1        0.0015
     15 C           4.7500   -2.7540    0.0000 C.ar    1  LIG1        0.0001
     16 C           3.8880   -3.2500    0.0000 C.ar    1  LIG1        0.0015
     17 C           3.0380   -2.7540    0.0000 C.ar    1  LIG1        0.0177
     18 C           1.3130   -2.7540    0.0000 C.3     1  LIG1        0.0507
     19 O          -0.4000   -2.7540    0.0000 O.2     1  LIG1       -0.2863
     20 N          -2.1540    0.2830    0.0000 N.pl3   1  LIG1       -0.1951
     21 C          -3.0420   -0.2380    0.0000 C.ar    1  LIG1        0.0721
     22 C          -3.8920    0.2580    0.0000 C.ar    1  LIG1        0.0166
     23 C          -4.7540   -0.2380    0.0000 C.ar    1  LIG1        0.0013
     24 C          -4.7540   -1.2290    0.0000 C.ar    1  LIG1        0.0001
     25 C          -3.8920   -1.7250    0.0000 C.ar    1  LIG1        0.0013
     26 C          -3.0420   -1.2290    0.0000 C.ar    1  LIG1        0.0166
     27 C          -0.4000    1.2460    0.0000 C.ar    1  LIG1        0.2383
     28 N           0.4580    1.7420    0.0000 N.ar    1  LIG1       -0.2154
     29 C           0.4580    2.7330    0.0000 C.ar    1  LIG1        0.0636
     30 C          -0.4000    3.2250    0.0000 C.ar    1  LIG1        0.0296
     31 C          -1.2540    2.7330    0.0000 C.ar    1  LIG1        0.0636
     32 N          -1.2540    1.7420    0.0000 N.ar    1  LIG1       -0.2154
     33 C          -2.1540    3.2540    0.0000 C.3     1  LIG1        0.0522
     34 C           1.3540    3.2540    0.0000 C.3     1  LIG1        0.0522
@<TRIPOS>BOND
     1     1     2   ar
     2     1     6   ar
     3     1    10   ar
     4     2     3   ar
     5     2    27    1
     6     3     4   ar
     7     3    20    1
     8     4     5   ar
     9     5     6   ar
    10     5    19    2
    11     6     7   ar
    12     7     8   ar
    13     7    18    1
    14     8     9   ar
    15     8    12    1
    16     9    10   ar
    17     9    11    2
    18    12    13   ar
    19    12    17   ar
    20    13    14   ar
    21    14    15   ar
    22    15    16   ar
    23    16    17   ar
    24    20    21    1
    25    21    22   ar
    26    21    26   ar
    27    22    23   ar
    28    23    24   ar
    29    24    25   ar
    30    25    26   ar
    31    27    28   ar
    32    27    32   ar
    33    28    29   ar
    34    29    30   ar
    35    29    34    1
    36    30    31   ar
    37    31    32   ar
    38    31    33    1
