@<TRIPOS>MOLECULE
23985_ChemDiv_0180-0383
 24 25 0 0 0
SMALL
GASTEIGER
Energy = 0

@<TRIPOS>ATOM
      1 S          -0.5420    1.2580    0.0000 S.O2    1  LIG1        0.0650
      2 C          -1.4080    1.7580    0.0000 C.ar    1  LIG1        0.1419
      3 C          -2.2830    1.2580    0.0000 C.ar    1  LIG1        0.1273
      4 N          -2.5000    0.2880    0.0000 N.ar    1  LIG1       -0.1888
      5 S          -3.4670    0.2080    0.0000 S.2     1  LIG1        0.1165
      6 N          -3.8710    1.0960    0.0000 N.ar    1  LIG1       -0.1901
      7 C          -3.1330    1.7580    0.0000 C.ar    1  LIG1        0.1102
      8 C          -3.1330    2.7500    0.0000 C.ar    1  LIG1        0.0214
      9 C          -2.2830    3.2460    0.0000 C.ar    1  LIG1        0.0030
     10 C          -1.4080    2.7500    0.0000 C.ar    1  LIG1        0.0216
     11 N           0.3420    0.7580    0.0000 N.3     1  LIG1       -0.1483
     12 C           0.3420   -0.2460    0.0000 C.3     1  LIG1        0.1582
     13 C           1.2000   -0.7500    0.0000 C.3     1  LIG1        0.1580
     14 N           1.2000   -1.7500    0.0000 N.4     1  LIG1        0.3784
     15 C           2.0540   -2.2500    0.0000 C.3     1  LIG1        0.1388
     16 C           2.0290   -3.2420    0.0000 C.3     1  LIG1        0.0688
     17 C           0.3330   -2.2500    0.0000 C.3     1  LIG1        0.1388
     18 C          -0.5420   -1.7500    0.0000 C.3     1  LIG1        0.0688
     19 C           1.2250    1.2960    0.0000 C.3     1  LIG1        0.1122
     20 C           2.1580    0.7580    0.0000 C.3     1  LIG1        0.1245
     21 C           3.0130    1.2580    0.0000 C.1     1  LIG1        0.0747
     22 N           3.8670    1.7540    0.0000 N.1     1  LIG1       -0.1958
     23 O          -0.0380    2.1330    0.0000 O.2     1  LIG1       -0.1527
     24 O          -1.0250    0.3830    0.0000 O.2     1  LIG1       -0.1527
@<TRIPOS>BOND
     1     1     2    1
     2     1    11    1
     3     1    23    2
     4     1    24    2
     5     2     3   ar
     6     2    10   ar
     7     3     4   ar
     8     3     7   ar
     9     4     5   ar
    10     5     6   ar
    11     6     7   ar
    12     7     8   ar
    13     8     9   ar
    14     9    10   ar
    15    11    12    1
    16    11    19    1
    17    12    13    1
    18    13    14    1
    19    14    15    1
    20    14    17    1
    21    15    16    1
    22    17    18    1
    23    19    20    1
    24    20    21    1
    25    21    22    3
