@<TRIPOS>MOLECULE
23980_ChemDiv_000A-0637
 24 26 0 0 0
SMALL
GASTEIGER
Energy = 0

@<TRIPOS>ATOM
      1 C           0.5460   -0.2830    0.0000 C.3     1  LIG1        0.2368
      2 C          -0.0630    0.5420    0.0000 C.2     1  LIG1        0.2217
      3 C          -0.9750    0.2130    0.0000 C.ar    1  LIG1        0.1075
      4 C          -0.9750   -0.7960    0.0000 C.ar    1  LIG1        0.1586
      5 O           0.0130   -1.0830    0.0000 O.3     1  LIG1       -0.4670
      6 C          -1.8460   -1.3000    0.0000 C.ar    1  LIG1        0.1256
      7 C          -2.7170   -0.7960    0.0000 C.ar    1  LIG1        0.1552
      8 C          -2.7170    0.2130    0.0000 C.ar    1  LIG1        0.0749
      9 C          -1.8460    0.7210    0.0000 C.ar    1  LIG1        0.1476
     10 O          -1.8460    1.7330    0.0000 O.3     1  LIG1       -0.4711
     11 C          -2.7170    2.2420    0.0000 C.3     1  LIG1        0.2525
     12 O          -3.5880   -1.3000    0.0000 O.3     1  LIG1       -0.4704
     13 C          -3.5880   -2.3040    0.0000 C.3     1  LIG1        0.2525
     14 CL         -1.8460   -2.3170    0.0000 Cl      1  LIG1       -0.0759
     15 O           0.1380    1.5540    0.0000 O.2     1  LIG1       -0.2870
     16 C           1.0540    0.5960    0.0000 C.2     1  LIG1        0.1622
     17 C           2.0670    0.5750    0.0000 C.2     1  LIG1        0.0738
     18 C           2.5710   -0.2830    0.0000 C.2     1  LIG1        0.1761
     19 C           2.0460   -1.1630    0.0000 C.3     1  LIG1        0.0736
     20 C           1.0290   -1.1630    0.0000 C.3     1  LIG1        0.0586
     21 C           0.5250   -2.0500    0.0000 C.3     1  LIG1        0.0050
     22 O           3.5830   -0.2830    0.0000 O.2     1  LIG1       -0.2912
     23 O           0.8330    1.5790    0.0000 O.2     1  LIG1       -0.4717
     24 C           1.0960    2.3210    0.0000 C.3     1  LIG1        0.2522
@<TRIPOS>BOND
     1     1     2    1
     2     1     5    1
     3     1    16    1
     4     1    20    1
     5     2     3    1
     6     2    15    2
     7     3     4   ar
     8     3     9   ar
     9     4     5    1
    10     4     6   ar
    11     6     7   ar
    12     6    14    1
    13     7     8   ar
    14     7    12    1
    15     8     9   ar
    16     9    10    1
    17    10    11    1
    18    12    13    1
    19    16    17    2
    20    16    23    1
    21    17    18    1
    22    18    19    1
    23    18    22    2
    24    19    20    1
    25    20    21    1
    26    23    24    1
