@<TRIPOS>MOLECULE
23986_ChemDiv_C614-0312
 26 28 0 0 0
SMALL
GASTEIGER
Energy = 0

@<TRIPOS>ATOM
      1 C          -0.8040    1.7290    0.0000 C.2     1  LIG1        0.0488
      2 N          -1.6040    1.1580    0.0000 N.2     1  LIG1       -0.2534
      3 C          -2.4170    1.7420    0.0000 C.ar    1  LIG1        0.0780
      4 C          -3.4000    1.5290    0.0000 C.ar    1  LIG1        0.0313
      5 C          -3.7080    0.5790    0.0000 C.2     1  LIG1        0.0743
      6 O          -3.0380   -0.1630    0.0000 O.co2   1  LIG1       -0.5445
      7 O          -4.6830    0.3670    0.0000 O.co2   1  LIG1       -0.5445
      8 C          -4.0710    2.2750    0.0000 C.ar    1  LIG1        0.0026
      9 C          -3.7630    3.2380    0.0000 C.ar    1  LIG1       -0.0002
     10 C          -2.7710    3.4380    0.0000 C.ar    1  LIG1       -0.0024
     11 C          -2.1000    2.6960    0.0000 C.ar    1  LIG1        0.0004
     12 C          -1.1040    2.6920    0.0000 C.3     1  LIG1        0.0603
     13 C          -0.4420    3.4380    0.0000 C.3     1  LIG1        0.0101
     14 C           0.5420    3.2210    0.0000 C.3     1  LIG1        0.0016
     15 C           0.8540    2.2710    0.0000 C.3     1  LIG1        0.0148
     16 C           0.1790    1.5210    0.0000 C.3     1  LIG1        0.1144
     17 C           0.4790    0.5790    0.0000 C.2     1  LIG1        0.2464
     18 O          -0.1880   -0.1630    0.0000 O.2     1  LIG1       -0.2730
     19 N           1.4580    0.3670    0.0000 N.am    1  LIG1       -0.1987
     20 C           1.7580   -0.5830    0.0000 C.3     1  LIG1        0.1775
     21 C           2.7290   -0.7960    0.0000 C.3     1  LIG1        0.1624
     22 N           3.0330   -1.7460    0.0000 N.4     1  LIG1        0.3786
     23 C           4.0130   -1.9580    0.0000 C.3     1  LIG1        0.1388
     24 C           4.6790   -1.2170    0.0000 C.3     1  LIG1        0.0688
     25 C           2.3670   -2.4880    0.0000 C.3     1  LIG1        0.1388
     26 C           2.6710   -3.4330    0.0000 C.3     1  LIG1        0.0688
@<TRIPOS>BOND
     1     1     2    2
     2     1    12    1
     3     1    16    1
     4     2     3    1
     5     3     4   ar
     6     3    11   ar
     7     4     5    1
     8     4     8   ar
     9     5     6   ar
    10     5     7   ar
    11     8     9   ar
    12     9    10   ar
    13    10    11   ar
    14    11    12    1
    15    12    13    1
    16    13    14    1
    17    14    15    1
    18    15    16    1
    19    16    17    1
    20    17    18    2
    21    17    19   am
    22    19    20    1
    23    20    21    1
    24    21    22    1
    25    22    23    1
    26    22    25    1
    27    23    24    1
    28    25    26    1
