@<TRIPOS>MOLECULE
23988_ChemDiv_C614-0315
 25 28 0 0 0
SMALL
GASTEIGER
Energy = 0

@<TRIPOS>ATOM
      1 C           0.9710    0.4130    0.0000 C.2     1  LIG1        0.0508
      2 N           0.1630   -0.1580    0.0000 N.2     1  LIG1       -0.2532
      3 C          -0.6460    0.4170    0.0000 C.ar    1  LIG1        0.0815
      4 C          -1.6290    0.2080    0.0000 C.ar    1  LIG1        0.0738
      5 C          -1.9380   -0.7460    0.0000 C.2     1  LIG1        0.2673
      6 N          -2.9080   -0.9500    0.0000 N.ar    1  LIG1       -0.2537
      7 C          -3.3170   -1.8630    0.0000 C.ar    1  LIG1        0.1852
      8 N          -4.3080   -1.7630    0.0000 N.ar    1  LIG1       -0.2219
      9 C          -4.5130   -0.7830    0.0000 C.ar    1  LIG1        0.1197
     10 C          -3.6500   -0.2880    0.0000 C.ar    1  LIG1        0.1051
     11 O          -1.2710   -1.4830    0.0000 O.2     1  LIG1       -0.2665
     12 C          -2.3000    0.9580    0.0000 C.ar    1  LIG1        0.0062
     13 C          -1.9880    1.9170    0.0000 C.ar    1  LIG1       -0.0001
     14 C          -1.0040    2.1170    0.0000 C.ar    1  LIG1       -0.0024
     15 C          -0.3290    1.3830    0.0000 C.ar    1  LIG1        0.0005
     16 C           0.6580    1.3710    0.0000 C.3     1  LIG1        0.0603
     17 C           1.3330    2.1170    0.0000 C.3     1  LIG1        0.0101
     18 C           2.3170    1.9000    0.0000 C.3     1  LIG1        0.0017
     19 C           2.6250    0.9500    0.0000 C.3     1  LIG1        0.0168
     20 C           1.9500    0.2000    0.0000 C.3     1  LIG1        0.1351
     21 C           2.2500   -0.7460    0.0000 C.2     1  LIG1        0.3218
     22 O           1.5790   -1.4830    0.0000 O.2     1  LIG1       -0.2497
     23 O           3.2290   -0.9580    0.0000 O.3     1  LIG1       -0.4483
     24 C           3.5290   -1.9040    0.0000 C.3     1  LIG1        0.2086
     25 C           4.5080   -2.1130    0.0000 C.3     1  LIG1        0.0513
@<TRIPOS>BOND
     1     1     2    2
     2     1    16    1
     3     1    20    1
     4     2     3    1
     5     3     4   ar
     6     3    15   ar
     7     4     5    1
     8     4    12   ar
     9     5     6   am
    10     5    11    2
    11     6     7   ar
    12     6    10   ar
    13     7     8   ar
    14     8     9   ar
    15     9    10   ar
    16    12    13   ar
    17    13    14   ar
    18    14    15   ar
    19    15    16    1
    20    16    17    1
    21    17    18    1
    22    18    19    1
    23    19    20    1
    24    20    21    1
    25    21    22    2
    26    21    23    1
    27    23    24    1
    28    24    25    1
