@<TRIPOS>MOLECULE
23991_ChemDiv_3448-7796
 26 29 0 0 0
SMALL
GASTEIGER
Energy = 0

@<TRIPOS>ATOM
      1 S          -1.0500    0.8210    0.0000 S.O2    1  LIG1        0.0648
      2 C          -2.0000    0.8210    0.0000 C.ar    1  LIG1        0.1419
      3 C          -2.4790   -0.0130    0.0000 C.ar    1  LIG1        0.1278
      4 C          -3.4290   -0.0130    0.0000 C.ar    1  LIG1        0.1163
      5 N          -3.9250   -0.8420    0.0000 N.ar    1  LIG1       -0.1896
      6 S          -3.4290   -1.6960    0.0000 S.2     1  LIG1        0.1166
      7 N          -1.9790   -0.8420    0.0000 N.ar    1  LIG1       -0.1887
      8 C          -3.9130    0.8210    0.0000 C.ar    1  LIG1        0.0544
      9 C          -3.4420    1.6630    0.0000 C.ar    1  LIG1        0.0097
     10 C          -2.4790    1.6630    0.0000 C.ar    1  LIG1        0.0221
     11 BR         -4.8750    0.8210    0.0000 Br      1  LIG1       -0.0474
     12 N          -0.0880    0.8210    0.0000 N.3     1  LIG1       -0.1555
     13 C           0.3710    0.0040    0.0000 C.3     1  LIG1        0.0958
     14 C           1.3540    0.0040    0.0000 C.3     1  LIG1        0.0195
     15 C           1.8540    0.8210    0.0000 C.3     1  LIG1        0.0072
     16 C           2.8880    0.8210    0.0000 C.3     1  LIG1        0.0264
     17 C           3.3880   -0.0750    0.0000 C.ar    1  LIG1       -0.0222
     18 C           4.3710   -0.0750    0.0000 C.ar    1  LIG1       -0.0043
     19 C           4.8710   -0.9330    0.0000 C.ar    1  LIG1       -0.0003
     20 C           4.3710   -1.8000    0.0000 C.ar    1  LIG1       -0.0000
     21 C           3.3880   -1.8000    0.0000 C.ar    1  LIG1       -0.0003
     22 C           2.8880   -0.9330    0.0000 C.ar    1  LIG1       -0.0043
     23 C           1.3540    1.6790    0.0000 C.3     1  LIG1        0.0195
     24 C           0.3710    1.6790    0.0000 C.3     1  LIG1        0.0958
     25 O          -1.0500    1.8040    0.0000 O.2     1  LIG1       -0.1527
     26 O          -1.0500   -0.1170    0.0000 O.2     1  LIG1       -0.1527
@<TRIPOS>BOND
     1     1     2    1
     2     1    12    1
     3     1    25    2
     4     1    26    2
     5     2     3   ar
     6     2    10   ar
     7     3     4   ar
     8     3     7   ar
     9     4     5   ar
    10     4     8   ar
    11     5     6   ar
    12     6     7   ar
    13     8     9   ar
    14     8    11    1
    15     9    10   ar
    16    12    13    1
    17    12    24    1
    18    13    14    1
    19    14    15    1
    20    15    16    1
    21    15    23    1
    22    16    17    1
    23    17    18   ar
    24    17    22   ar
    25    18    19   ar
    26    19    20   ar
    27    20    21   ar
    28    21    22   ar
    29    23    24    1
