@<TRIPOS>MOLECULE
23992_ChemDiv_C614-0318
 27 30 0 0 0
SMALL
GASTEIGER
Energy = 0

@<TRIPOS>ATOM
      1 C           0.9670    1.2500    0.0000 C.2     1  LIG1        0.0508
      2 N           0.1630    0.6750    0.0000 N.2     1  LIG1       -0.2533
      3 C          -0.6500    1.2540    0.0000 C.ar    1  LIG1        0.0813
      4 C          -1.6330    1.0420    0.0000 C.ar    1  LIG1        0.0727
      5 C          -1.9420    0.0920    0.0000 C.2     1  LIG1        0.2704
      6 N          -2.9170   -0.1130    0.0000 N.am    1  LIG1       -0.1754
      7 C          -3.2210   -1.0630    0.0000 C.ar    1  LIG1        0.0737
      8 C          -4.1920   -1.2710    0.0000 C.ar    1  LIG1        0.0166
      9 C          -4.5040   -2.2130    0.0000 C.ar    1  LIG1        0.0013
     10 C          -3.8380   -2.9500    0.0000 C.ar    1  LIG1        0.0001
     11 C          -2.8580   -2.7420    0.0000 C.ar    1  LIG1        0.0013
     12 C          -2.5540   -1.8000    0.0000 C.ar    1  LIG1        0.0166
     13 O          -1.2710   -0.6500    0.0000 O.2     1  LIG1       -0.2680
     14 C          -2.3040    1.7920    0.0000 C.ar    1  LIG1        0.0061
     15 C          -1.9960    2.7580    0.0000 C.ar    1  LIG1       -0.0001
     16 C          -1.0040    2.9540    0.0000 C.ar    1  LIG1       -0.0024
     17 C          -0.3330    2.2170    0.0000 C.ar    1  LIG1        0.0005
     18 C           0.6630    2.2040    0.0000 C.3     1  LIG1        0.0603
     19 C           1.3290    2.9540    0.0000 C.3     1  LIG1        0.0101
     20 C           2.3080    2.7460    0.0000 C.3     1  LIG1        0.0017
     21 C           2.6210    1.7830    0.0000 C.3     1  LIG1        0.0168
     22 C           1.9460    1.0380    0.0000 C.3     1  LIG1        0.1351
     23 C           2.2500    0.0920    0.0000 C.2     1  LIG1        0.3218
     24 O           1.5790   -0.6500    0.0000 O.2     1  LIG1       -0.2497
     25 O           3.2250   -0.1210    0.0000 O.3     1  LIG1       -0.4483
     26 C           3.5290   -1.0630    0.0000 C.3     1  LIG1        0.2086
     27 C           4.5000   -1.2750    0.0000 C.3     1  LIG1        0.0513
@<TRIPOS>BOND
     1     1     2    2
     2     1    18    1
     3     1    22    1
     4     2     3    1
     5     3     4   ar
     6     3    17   ar
     7     4     5    1
     8     4    14   ar
     9     5     6   am
    10     5    13    2
    11     6     7    1
    12     7     8   ar
    13     7    12   ar
    14     8     9   ar
    15     9    10   ar
    16    10    11   ar
    17    11    12   ar
    18    14    15   ar
    19    15    16   ar
    20    16    17   ar
    21    17    18    1
    22    18    19    1
    23    19    20    1
    24    20    21    1
    25    21    22    1
    26    22    23    1
    27    23    24    2
    28    23    25    1
    29    25    26    1
    30    26    27    1
