@<TRIPOS>MOLECULE
23990_ChemDiv_C614-0317
 26 29 0 0 0
SMALL
GASTEIGER
Energy = 0

@<TRIPOS>ATOM
      1 C           2.4210    0.9830    0.0000 C.2     1  LIG1        0.0453
      2 N           1.6170    0.4080    0.0000 N.2     1  LIG1       -0.2534
      3 C           0.8040    0.9880    0.0000 C.ar    1  LIG1        0.0813
      4 C          -0.1790    0.7790    0.0000 C.ar    1  LIG1        0.0723
      5 C          -0.4880   -0.1750    0.0000 C.2     1  LIG1        0.2665
      6 N          -1.4630   -0.3750    0.0000 N.am    1  LIG1       -0.1968
      7 C          -1.7630   -1.3250    0.0000 C.3     1  LIG1        0.1418
      8 C          -2.7460   -1.5380    0.0000 C.ar    1  LIG1       -0.0006
      9 C          -3.4080   -0.7920    0.0000 C.ar    1  LIG1       -0.0026
     10 C          -4.3750   -0.9960    0.0000 C.ar    1  LIG1       -0.0003
     11 C          -4.6830   -1.9460    0.0000 C.ar    1  LIG1       -0.0000
     12 C          -4.0130   -2.6880    0.0000 C.ar    1  LIG1       -0.0003
     13 C          -3.0460   -2.4750    0.0000 C.ar    1  LIG1       -0.0026
     14 O           0.1830   -0.9130    0.0000 O.2     1  LIG1       -0.2683
     15 C          -0.8460    1.5290    0.0000 C.ar    1  LIG1        0.0061
     16 C          -0.5420    2.4960    0.0000 C.ar    1  LIG1       -0.0001
     17 C           0.4500    2.6920    0.0000 C.ar    1  LIG1       -0.0024
     18 C           1.1210    1.9500    0.0000 C.ar    1  LIG1        0.0005
     19 C           2.1170    1.9420    0.0000 C.3     1  LIG1        0.0601
     20 C           2.7830    2.6920    0.0000 C.3     1  LIG1        0.0100
     21 C           3.7630    2.4790    0.0000 C.3     1  LIG1        0.0015
     22 C           4.0750    1.5170    0.0000 C.3     1  LIG1        0.0112
     23 C           3.4000    0.7710    0.0000 C.3     1  LIG1        0.0728
     24 C           3.7040   -0.1750    0.0000 C.2     1  LIG1        0.0553
     25 O           4.6790   -0.3880    0.0000 O.co2   1  LIG1       -0.5488
     26 O           3.0330   -0.9130    0.0000 O.co2   1  LIG1       -0.5488
@<TRIPOS>BOND
     1     1     2    2
     2     1    19    1
     3     1    23    1
     4     2     3    1
     5     3     4   ar
     6     3    18   ar
     7     4     5    1
     8     4    15   ar
     9     5     6   am
    10     5    14    2
    11     6     7    1
    12     7     8    1
    13     8     9   ar
    14     8    13   ar
    15     9    10   ar
    16    10    11   ar
    17    11    12   ar
    18    12    13   ar
    19    15    16   ar
    20    16    17   ar
    21    17    18   ar
    22    18    19    1
    23    19    20    1
    24    20    21    1
    25    21    22    1
    26    22    23    1
    27    23    24    1
    28    24    25   ar
    29    24    26   ar
