@<TRIPOS>MOLECULE
23999_ChemDiv_8012-4641
 26 30 0 0 0
SMALL
GASTEIGER
Energy = 0

@<TRIPOS>ATOM
      1 C           1.6420   -0.0130    0.0000 C.ar    1  LIG1        0.1432
      2 S           1.1580   -0.8290    0.0000 S.O2    1  LIG1        0.0784
      3 O           0.3540   -0.3420    0.0000 O.2     1  LIG1       -0.1515
      4 O           1.9710   -1.3130    0.0000 O.2     1  LIG1       -0.1515
      5 N           0.7000   -1.6500    0.0000 N.3     1  LIG1       -0.0751
      6 C          -0.2630   -1.6500    0.0000 C.3     1  LIG1        0.1474
      7 C          -0.7250   -0.8290    0.0000 C.3     1  LIG1        0.1627
      8 O          -1.6790   -0.8290    0.0000 O.3     1  LIG1       -0.3569
      9 C          -2.2580    0.0920    0.0000 C.3     1  LIG1        0.0928
     10 C          -3.1330   -0.2500    0.0000 C.3     1  LIG1        0.0272
     11 C          -4.0210    0.1500    0.0000 C.3     1  LIG1        0.0023
     12 C          -4.5000   -0.7670    0.0000 C.3     1  LIG1        0.0002
     13 C          -3.7210   -0.3960    0.0000 C.3     1  LIG1        0.0023
     14 C          -2.8290   -0.8290    0.0000 C.3     1  LIG1        0.0272
     15 C          -3.7210    0.6580    0.0000 C.3     1  LIG1        0.0002
     16 C          -3.2080    1.5580    0.0000 C.3     1  LIG1        0.0023
     17 C          -2.2580    1.0330    0.0000 C.3     1  LIG1        0.0272
     18 C          -4.0210    1.1960    0.0000 C.3     1  LIG1        0.0002
     19 C           2.5960   -0.0130    0.0000 C.ar    1  LIG1        0.1274
     20 N           3.0790   -0.9000    0.0000 N.ar    1  LIG1       -0.1888
     21 S           4.4960   -0.0960    0.0000 S.2     1  LIG1        0.1165
     22 N           4.0670    0.7830    0.0000 N.ar    1  LIG1       -0.1901
     23 C           3.0960    0.7830    0.0000 C.ar    1  LIG1        0.1102
     24 C           2.5960    1.6540    0.0000 C.ar    1  LIG1        0.0214
     25 C           1.6670    1.6540    0.0000 C.ar    1  LIG1        0.0030
     26 C           1.1670    0.8420    0.0000 C.ar    1  LIG1        0.0216
@<TRIPOS>BOND
     1     1     2    1
     2     1    19   ar
     3     1    26   ar
     4     2     3    2
     5     2     4    2
     6     2     5    1
     7     5     6    1
     8     6     7    1
     9     7     8    1
    10     8     9    1
    11     9    10    1
    12     9    14    1
    13     9    17    1
    14    10    11    1
    15    11    12    1
    16    11    18    1
    17    12    13    1
    18    13    14    1
    19    13    15    1
    20    15    16    1
    21    16    17    1
    22    16    18    1
    23    19    20   ar
    24    19    23   ar
    25    20    21   ar
    26    21    22   ar
    27    22    23   ar
    28    23    24   ar
    29    24    25   ar
    30    25    26   ar
