@<TRIPOS>MOLECULE
23997_ChemDiv_8012-3365
 21 22 0 0 0
SMALL
GASTEIGER
Energy = 0

@<TRIPOS>ATOM
      1 S          -0.8000    0.8080    0.0000 S.O2    1  LIG1        0.0786
      2 C          -1.7460    0.8080    0.0000 C.ar    1  LIG1        0.1432
      3 C          -2.2080   -0.0330    0.0000 C.ar    1  LIG1        0.1274
      4 N          -1.7330   -0.8630    0.0000 N.ar    1  LIG1       -0.1888
      5 S          -3.1830   -1.6960    0.0000 S.2     1  LIG1        0.1165
      6 N          -3.6420   -0.8540    0.0000 N.ar    1  LIG1       -0.1901
      7 C          -3.1750   -0.0330    0.0000 C.ar    1  LIG1        0.1102
      8 C          -3.6580    0.8080    0.0000 C.ar    1  LIG1        0.0214
      9 C          -3.1750    1.6250    0.0000 C.ar    1  LIG1        0.0030
     10 C          -2.2080    1.6250    0.0000 C.ar    1  LIG1        0.0216
     11 N           0.1460    0.8080    0.0000 N.3     1  LIG1       -0.0735
     12 C           0.6420   -0.0750    0.0000 C.3     1  LIG1        0.1346
     13 C           0.1460   -0.8710    0.0000 C.2     1  LIG1        0.0681
     14 O           0.6250   -1.7420    0.0000 O.co2   1  LIG1       -0.5477
     15 O          -0.8250   -0.8790    0.0000 O.co2   1  LIG1       -0.5477
     16 C           1.6290   -0.0750    0.0000 C.3     1  LIG1        0.0367
     17 C           2.1250    0.8000    0.0000 C.3     1  LIG1        0.0595
     18 S           3.1500    0.8000    0.0000 S.3     1  LIG1       -0.1393
     19 C           3.6540    1.6670    0.0000 C.3     1  LIG1        0.0692
     20 O          -0.8000    1.7460    0.0000 O.2     1  LIG1       -0.1515
     21 O          -0.8000   -0.1460    0.0000 O.2     1  LIG1       -0.1515
@<TRIPOS>BOND
     1     1     2    1
     2     1    11    1
     3     1    20    2
     4     1    21    2
     5     2     3   ar
     6     2    10   ar
     7     3     4   ar
     8     3     7   ar
     9     4     5   ar
    10     5     6   ar
    11     6     7   ar
    12     7     8   ar
    13     8     9   ar
    14     9    10   ar
    15    11    12    1
    16    12    13    1
    17    12    16    1
    18    13    14   ar
    19    13    15   ar
    20    16    17    1
    21    17    18    1
    22    18    19    1
