@<TRIPOS>MOLECULE
24008_ChemDiv_8014-1579
 22 24 0 0 0
SMALL
GASTEIGER
Energy = 0

@<TRIPOS>ATOM
      1 C           0.0460    0.4960    0.0000 C.ar    1  LIG1        0.1421
      2 C           0.0460    1.5170    0.0000 C.ar    1  LIG1        0.1281
      3 C          -0.8170    2.0080    0.0000 C.ar    1  LIG1        0.2703
      4 N          -1.6830    1.4880    0.0000 N.ar    1  LIG1       -0.2466
      5 C          -1.6830    0.5290    0.0000 C.ar    1  LIG1        0.3349
      6 N          -0.8170   -0.0040    0.0000 N.ar    1  LIG1       -0.2649
      7 C          -0.8170   -1.0170    0.0000 C.3     1  LIG1        0.1365
      8 O          -2.5880    0.0290    0.0000 O.2     1  LIG1       -0.2461
      9 C          -2.5880    1.9830    0.0000 C.3     1  LIG1        0.1382
     10 O          -0.8170    3.0000    0.0000 O.2     1  LIG1       -0.2666
     11 C           0.9170    2.0080    0.0000 C.ar    1  LIG1        0.2079
     12 C           1.7790    1.4880    0.0000 C.ar    1  LIG1        0.1033
     13 C           1.7790    0.5290    0.0000 C.ar    1  LIG1        0.2691
     14 N           0.9170   -0.0040    0.0000 N.ar    1  LIG1       -0.2601
     15 C           0.9170   -0.9880    0.0000 C.ar    1  LIG1        0.0682
     16 C           1.7790   -1.4960    0.0000 C.ar    1  LIG1        0.0177
     17 C           1.7790   -2.4880    0.0000 C.ar    1  LIG1        0.0015
     18 C           0.9170   -2.9960    0.0000 C.ar    1  LIG1        0.0001
     19 C           0.0460   -2.4880    0.0000 C.ar    1  LIG1        0.0015
     20 C           0.0460   -1.4960    0.0000 C.ar    1  LIG1        0.0177
     21 O           2.5830   -0.0170    0.0000 O.3     1  LIG1       -0.2665
     22 O           0.9170    3.0000    0.0000 O.2     1  LIG1       -0.2861
@<TRIPOS>BOND
     1     1     2   ar
     2     1     6   ar
     3     1    14   ar
     4     2     3   ar
     5     2    11   ar
     6     3     4   ar
     7     3    10    2
     8     4     5   ar
     9     4     9    1
    10     5     6   ar
    11     5     8    2
    12     6     7    1
    13    11    12   ar
    14    11    22    2
    15    12    13   ar
    16    13    14   ar
    17    13    21    1
    18    14    15    1
    19    15    16   ar
    20    15    20   ar
    21    16    17   ar
    22    17    18   ar
    23    18    19   ar
    24    19    20   ar
