@<TRIPOS>MOLECULE
24007_ChemDiv_000A-0127
 24 26 0 0 0
SMALL
GASTEIGER
Energy = 0

@<TRIPOS>ATOM
      1 CA          0.0670    1.0580    0.0000 C.ar    1  LIG1        0.1488
      2 N          -0.8500    1.4580    0.0000 N.ar    1  LIG1       -0.2493
      3 C          -1.6710    0.8710    0.0000 C.ar    1  LIG1        0.2840
      4 CA         -1.5630   -0.1210    0.0000 C.ar    1  LIG1        0.1488
      5 N          -0.6380   -0.5250    0.0000 N.ar    1  LIG1       -0.2493
      6 C           0.1830    0.0630    0.0000 C.ar    1  LIG1        0.2840
      7 O           1.1000   -0.3580    0.0000 O.2     1  LIG1       -0.2649
      8 C          -0.7170   -1.5040    0.0000 C.ar    1  LIG1        0.1855
      9 N          -1.6960   -1.7540    0.0000 N.ar    1  LIG1       -0.2168
     10 C          -2.1960   -0.8880    0.0000 C.ar    1  LIG1        0.1791
     11 C          -3.2040   -0.8040    0.0000 C.2     1  LIG1        0.3608
     12 O          -3.6210    0.0830    0.0000 O.2     1  LIG1       -0.2431
     13 O          -3.7630   -1.6670    0.0000 O.3     1  LIG1       -0.4444
     14 C          -3.3080   -2.5630    0.0000 C.3     1  LIG1        0.2089
     15 C          -2.3080   -2.6420    0.0000 C.3     1  LIG1        0.0513
     16 O          -2.5880    1.2670    0.0000 O.2     1  LIG1       -0.2649
     17 C          -0.7460    2.4330    0.0000 C.ar    1  LIG1        0.1855
     18 N           0.2040    2.6460    0.0000 N.ar    1  LIG1       -0.2168
     19 C           0.7130    1.8210    0.0000 C.ar    1  LIG1        0.1791
     20 C           1.7330    1.7380    0.0000 C.2     1  LIG1        0.3608
     21 O           2.1580    0.8500    0.0000 O.2     1  LIG1       -0.2431
     22 O           2.3000    2.5750    0.0000 O.3     1  LIG1       -0.4444
     23 C           3.2830    2.5250    0.0000 C.3     1  LIG1        0.2089
     24 C           3.7580    1.6250    0.0000 C.3     1  LIG1        0.0513
@<TRIPOS>BOND
     1     1     2   ar
     2     1     6   ar
     3     1    19   ar
     4     2     3   ar
     5     2    17   ar
     6     3     4   ar
     7     3    16    2
     8     4     5   ar
     9     4    10   ar
    10     5     6   ar
    11     5     8   ar
    12     6     7    2
    13     8     9   ar
    14     9    10   ar
    15    10    11    1
    16    11    12    2
    17    11    13    1
    18    13    14    1
    19    14    15    1
    20    17    18   ar
    21    18    19   ar
    22    19    20    1
    23    20    21    2
    24    20    22    1
    25    22    23    1
    26    23    24    1
