@<TRIPOS>MOLECULE
24014_ChemDiv_D021-0180
 27 30 0 0 0
SMALL
GASTEIGER
Energy = 0

@<TRIPOS>ATOM
      1 C          -0.0580    0.5290    0.0000 C.ar    1  LIG1        0.1561
      2 C          -0.0330    1.5250    0.0000 C.ar    1  LIG1        0.0919
      3 C          -0.8920    2.0330    0.0000 C.ar    1  LIG1        0.2687
      4 N          -1.7540    1.5500    0.0000 N.ar    1  LIG1       -0.2579
      5 C          -1.7710    0.5580    0.0000 C.ar    1  LIG1        0.1475
      6 N          -0.9250    0.0540    0.0000 N.ar    1  LIG1       -0.2105
      7 C          -2.6460    0.0830    0.0000 C.ar    1  LIG1        0.0128
      8 C          -3.4920    0.5880    0.0000 C.ar    1  LIG1        0.0003
      9 C          -3.4750    1.5960    0.0000 C.ar    1  LIG1        0.0189
     10 C          -2.6000    2.0790    0.0000 C.ar    1  LIG1        0.0843
     11 C          -2.6630   -0.9130    0.0000 C.3     1  LIG1        0.0342
     12 O          -0.8670    3.0460    0.0000 O.2     1  LIG1       -0.2665
     13 C           0.8460    2.0250    0.0000 C.ar    1  LIG1        0.0229
     14 C           1.7080    1.5040    0.0000 C.ar    1  LIG1        0.1250
     15 C           1.6920    0.4920    0.0000 C.ar    1  LIG1        0.2754
     16 N           0.8130    0.0080    0.0000 N.ar    1  LIG1       -0.2588
     17 C           0.7880   -0.9880    0.0000 C.ar    1  LIG1        0.0639
     18 C          -0.0790   -1.4880    0.0000 C.ar    1  LIG1       -0.0056
     19 C          -0.0920   -2.4830    0.0000 C.ar    1  LIG1       -0.0031
     20 C           0.7830   -2.9920    0.0000 C.ar    1  LIG1       -0.0045
     21 C           1.6170   -2.5250    0.0000 C.ar    1  LIG1       -0.0204
     22 C           1.6500   -1.5170    0.0000 C.ar    1  LIG1        0.0131
     23 C           2.4630   -3.0420    0.0000 C.3     1  LIG1        0.0311
     24 C          -1.0790   -1.4880    0.0000 C.3     1  LIG1        0.0326
     25 O           2.5540   -0.0290    0.0000 O.2     1  LIG1       -0.2658
     26 C           2.6000    1.9880    0.0000 C.1     1  LIG1        0.1052
     27 N           3.4880    2.4790    0.0000 N.1     1  LIG1       -0.1907
@<TRIPOS>BOND
     1     1     2   ar
     2     1     6   ar
     3     1    16   ar
     4     2     3   ar
     5     2    13   ar
     6     3     4   ar
     7     3    12    2
     8     4     5   ar
     9     4    10   ar
    10     5     6   ar
    11     5     7   ar
    12     7     8   ar
    13     7    11    1
    14     8     9   ar
    15     9    10   ar
    16    13    14   ar
    17    14    15   ar
    18    14    26    1
    19    15    16   ar
    20    15    25    2
    21    16    17    1
    22    17    18   ar
    23    17    22   ar
    24    18    19   ar
    25    18    24    1
    26    19    20   ar
    27    20    21   ar
    28    21    22   ar
    29    21    23    1
    30    26    27    3
