@<TRIPOS>MOLECULE
24017_ChemDiv_C105-2566
 29 32 0 0 0
SMALL
GASTEIGER
Energy = 0

@<TRIPOS>ATOM
      1 C           0.0880    4.0040    0.0000 C.ar    1  LIG1        0.1432
      2 S           0.0880    3.0040    0.0000 S.O2    1  LIG1        0.0784
      3 O          -0.9130    3.0040    0.0000 O.2     1  LIG1       -0.1515
      4 O           1.0880    3.0040    0.0000 O.2     1  LIG1       -0.1515
      5 N           0.0880    2.0080    0.0000 N.3     1  LIG1       -0.0772
      6 C          -0.7670    1.5040    0.0000 C.3     1  LIG1        0.1250
      7 C          -0.7670    0.5040    0.0000 C.3     1  LIG1        0.1060
      8 C          -1.6290    0.0040    0.0000 C.2     1  LIG1        0.2272
      9 N          -1.6290   -1.0000    0.0000 N.am    1  LIG1       -0.2791
     10 C          -0.7630   -1.4960    0.0000 C.3     1  LIG1        0.0993
     11 C          -0.7630   -2.5000    0.0000 C.3     1  LIG1        0.0782
     12 C          -1.6290   -3.0000    0.0000 C.3     1  LIG1        0.0903
     13 N          -1.6290   -4.0000    0.0000 N.4     1  LIG1        0.3730
     14 C          -0.7630   -4.5000    0.0000 C.3     1  LIG1        0.1383
     15 C          -0.7630   -5.5040    0.0000 C.3     1  LIG1        0.0629
     16 C          -1.6290   -6.0040    0.0000 C.3     1  LIG1        0.0123
     17 C          -2.4960   -5.5040    0.0000 C.3     1  LIG1        0.0629
     18 C          -2.4960   -4.5000    0.0000 C.3     1  LIG1        0.1383
     19 C          -2.4960   -2.5000    0.0000 C.3     1  LIG1        0.0782
     20 C          -2.4960   -1.4960    0.0000 C.3     1  LIG1        0.0993
     21 O          -2.4960    0.5040    0.0000 O.2     1  LIG1       -0.2748
     22 C           0.9540    4.5000    0.0000 C.ar    1  LIG1        0.1274
     23 N           1.9080    4.2000    0.0000 N.ar    1  LIG1       -0.1888
     24 S           2.4920    5.0040    0.0000 S.2     1  LIG1        0.1165
     25 N           1.9080    5.8080    0.0000 N.ar    1  LIG1       -0.1901
     26 C           0.9540    5.5040    0.0000 C.ar    1  LIG1        0.1102
     27 C           0.0880    6.0040    0.0000 C.ar    1  LIG1        0.0214
     28 C          -0.7790    5.5040    0.0000 C.ar    1  LIG1        0.0030
     29 C          -0.7790    4.5000    0.0000 C.ar    1  LIG1        0.0216
@<TRIPOS>BOND
     1     1     2    1
     2     1    22   ar
     3     1    29   ar
     4     2     3    2
     5     2     4    2
     6     2     5    1
     7     5     6    1
     8     6     7    1
     9     7     8    1
    10     8     9   am
    11     8    21    2
    12     9    10    1
    13     9    20    1
    14    10    11    1
    15    11    12    1
    16    12    13    1
    17    12    19    1
    18    13    14    1
    19    13    18    1
    20    14    15    1
    21    15    16    1
    22    16    17    1
    23    17    18    1
    24    19    20    1
    25    22    23   ar
    26    22    26   ar
    27    23    24   ar
    28    24    25   ar
    29    25    26   ar
    30    26    27   ar
    31    27    28   ar
    32    28    29   ar
