@<TRIPOS>MOLECULE
24019_ChemDiv_C105-2590
 31 34 0 0 0
SMALL
GASTEIGER
Energy = 0

@<TRIPOS>ATOM
      1 C           1.8290    4.0000    0.0000 C.ar    1  LIG1        0.1432
      2 S           1.8290    3.0080    0.0000 S.O2    1  LIG1        0.0784
      3 O           2.8330    3.0080    0.0000 O.2     1  LIG1       -0.1515
      4 O           0.8330    3.0080    0.0000 O.2     1  LIG1       -0.1515
      5 N           1.8290    2.0040    0.0000 N.3     1  LIG1       -0.0772
      6 C           0.9750    1.5040    0.0000 C.3     1  LIG1        0.1251
      7 C           0.9750    0.5040    0.0000 C.3     1  LIG1        0.1076
      8 C           0.1130    0.0040    0.0000 C.2     1  LIG1        0.2429
      9 N           0.1130   -0.9960    0.0000 N.am    1  LIG1       -0.2067
     10 C          -0.7540   -1.5000    0.0000 C.3     1  LIG1        0.1072
     11 C          -1.6210   -0.9960    0.0000 C.3     1  LIG1        0.0845
     12 C          -2.4920   -1.5000    0.0000 C.3     1  LIG1        0.1408
     13 N          -2.4920   -2.5000    0.0000 N.4     1  LIG1        0.3808
     14 C          -3.3630   -3.0040    0.0000 C.3     1  LIG1        0.1662
     15 C          -3.3670   -4.0040    0.0000 C.ar    1  LIG1        0.0344
     16 C          -4.2380   -4.5040    0.0000 C.ar    1  LIG1        0.0014
     17 C          -4.2380   -5.5040    0.0000 C.ar    1  LIG1       -0.0001
     18 C          -3.3670   -6.0040    0.0000 C.ar    1  LIG1       -0.0000
     19 C          -2.5130   -5.5040    0.0000 C.ar    1  LIG1       -0.0001
     20 C          -2.5130   -4.5040    0.0000 C.ar    1  LIG1        0.0014
     21 C          -1.6130   -3.0040    0.0000 C.3     1  LIG1        0.1408
     22 C          -0.7540   -2.5000    0.0000 C.3     1  LIG1        0.0845
     23 O          -0.7540    0.5040    0.0000 O.2     1  LIG1       -0.2733
     24 C           2.6960    4.5040    0.0000 C.ar    1  LIG1        0.1274
     25 N           3.6500    4.2040    0.0000 N.ar    1  LIG1       -0.1888
     26 S           4.2330    5.0040    0.0000 S.2     1  LIG1        0.1165
     27 N           3.6500    5.8130    0.0000 N.ar    1  LIG1       -0.1901
     28 C           2.6960    5.5040    0.0000 C.ar    1  LIG1        0.1102
     29 C           1.8290    6.0040    0.0000 C.ar    1  LIG1        0.0214
     30 C           0.9630    5.5040    0.0000 C.ar    1  LIG1        0.0030
     31 C           0.9630    4.5040    0.0000 C.ar    1  LIG1        0.0216
@<TRIPOS>BOND
     1     1     2    1
     2     1    24   ar
     3     1    31   ar
     4     2     3    2
     5     2     4    2
     6     2     5    1
     7     5     6    1
     8     6     7    1
     9     7     8    1
    10     8     9   am
    11     8    23    2
    12     9    10    1
    13    10    11    1
    14    10    22    1
    15    11    12    1
    16    12    13    1
    17    13    14    1
    18    13    21    1
    19    14    15    1
    20    15    16   ar
    21    15    20   ar
    22    16    17   ar
    23    17    18   ar
    24    18    19   ar
    25    19    20   ar
    26    21    22    1
    27    24    25   ar
    28    24    28   ar
    29    25    26   ar
    30    26    27   ar
    31    27    28   ar
    32    28    29   ar
    33    29    30   ar
    34    30    31   ar
