@<TRIPOS>MOLECULE
24010_ChemDiv_D021-0033
 33 37 0 0 0
SMALL
GASTEIGER
Energy = 0

@<TRIPOS>ATOM
      1 C           0.8790    0.0580    0.0000 C.ar    1  LIG1        0.1390
      2 N           0.8630    1.0580    0.0000 N.ar    1  LIG1       -0.2527
      3 C          -0.0170    1.5500    0.0000 C.ar    1  LIG1        0.1563
      4 C          -0.0330    2.5460    0.0000 C.ar    1  LIG1        0.0919
      5 C          -0.8960    3.0290    0.0000 C.ar    1  LIG1        0.2687
      6 N          -1.7460    2.5210    0.0000 N.ar    1  LIG1       -0.2579
      7 C          -1.7290    1.5290    0.0000 C.ar    1  LIG1        0.1475
      8 N          -0.8710    1.0420    0.0000 N.ar    1  LIG1       -0.2105
      9 C          -2.5790    1.0290    0.0000 C.ar    1  LIG1        0.0128
     10 C          -3.4460    1.5040    0.0000 C.ar    1  LIG1        0.0003
     11 C          -3.4580    2.5000    0.0000 C.ar    1  LIG1        0.0189
     12 C          -2.6080    3.0040    0.0000 C.ar    1  LIG1        0.0843
     13 C          -2.5710    0.0290    0.0000 C.3     1  LIG1        0.0342
     14 O          -0.9000    4.0290    0.0000 O.2     1  LIG1       -0.2665
     15 C           0.8420    3.0750    0.0000 C.ar    1  LIG1        0.0229
     16 C           1.7130    2.5790    0.0000 C.ar    1  LIG1        0.1250
     17 C           1.7250    1.5750    0.0000 C.ar    1  LIG1        0.2756
     18 O           2.6040    1.0750    0.0000 O.2     1  LIG1       -0.2658
     19 C           2.5920    3.0920    0.0000 C.1     1  LIG1        0.1052
     20 N           3.4540    3.6040    0.0000 N.1     1  LIG1       -0.1907
     21 C           0.0830   -0.5420    0.0000 C.ar    1  LIG1        0.2963
     22 N           0.4040   -1.4880    0.0000 N.ar    1  LIG1       -0.2132
     23 N           1.4080   -1.4750    0.0000 N.ar    1  LIG1       -0.2644
     24 C           1.6960   -0.5170    0.0000 C.ar    1  LIG1        0.0755
     25 C           2.6630   -0.7750    0.0000 C.3     1  LIG1        0.0534
     26 C           2.0080   -2.2790    0.0000 C.3     1  LIG1        0.1518
     27 C          -0.1750   -2.3080    0.0000 C.ar    1  LIG1        0.0841
     28 C          -1.1710   -2.2170    0.0000 C.ar    1  LIG1        0.0192
     29 C          -1.7460   -3.0380    0.0000 C.ar    1  LIG1        0.0015
     30 C          -1.3210   -3.9460    0.0000 C.ar    1  LIG1        0.0001
     31 C          -0.3210   -4.0290    0.0000 C.ar    1  LIG1        0.0015
     32 C           0.2500   -3.2130    0.0000 C.ar    1  LIG1        0.0192
     33 O          -0.8960   -0.8000    0.0000 O.2     1  LIG1       -0.2636
@<TRIPOS>BOND
     1     1     2    1
     2     1    21   ar
     3     1    24   ar
     4     2     3   ar
     5     2    17   ar
     6     3     4   ar
     7     3     8   ar
     8     4     5   ar
     9     4    15   ar
    10     5     6   ar
    11     5    14    2
    12     6     7   ar
    13     6    12   ar
    14     7     8   ar
    15     7     9   ar
    16     9    10   ar
    17     9    13    1
    18    10    11   ar
    19    11    12   ar
    20    15    16   ar
    21    16    17   ar
    22    16    19    1
    23    17    18    2
    24    19    20    3
    25    21    22   ar
    26    21    33    2
    27    22    23   ar
    28    22    27    1
    29    23    24   ar
    30    23    26    1
    31    24    25    1
    32    27    28   ar
    33    27    32   ar
    34    28    29   ar
    35    29    30   ar
    36    30    31   ar
    37    31    32   ar
