@<TRIPOS>MOLECULE
24018_ChemDiv_000A-0305
 15 15 0 0 0
SMALL
GASTEIGER
Energy = 0

@<TRIPOS>ATOM
      1 C           2.3830   -0.3500    0.0000 C.3     1  LIG1        0.0868
      2 C           2.7960    0.5580    0.0000 C.2     1  LIG1        0.0544
      3 O           2.2330    1.3580    0.0000 O.co2   1  LIG1       -0.5490
      4 O           3.7920    0.6420    0.0000 O.co2   1  LIG1       -0.5490
      5 C           2.0380    0.5750    0.0000 C.3     1  LIG1        0.1523
      6 O           1.0630    0.7330    0.0000 O.3     1  LIG1       -0.3300
      7 C           0.4130   -0.0540    0.0000 C.3     1  LIG1        0.2351
      8 O           0.7830   -0.9830    0.0000 O.3     1  LIG1       -0.3300
      9 C           1.7790   -1.1380    0.0000 C.3     1  LIG1        0.1523
     10 C          -0.5830    0.1000    0.0000 C.3     1  LIG1        0.0613
     11 C          -1.2130   -0.7040    0.0000 C.3     1  LIG1        0.0052
     12 C          -2.1880   -0.5500    0.0000 C.3     1  LIG1        0.0002
     13 C          -2.8210   -1.3540    0.0000 C.3     1  LIG1        0.0000
     14 C          -3.7960   -1.2000    0.0000 C.3     1  LIG1        0.0000
     15 C           2.7580   -1.2830    0.0000 C.3     1  LIG1        0.0106
@<TRIPOS>BOND
     1     1     2    1
     2     1     5    1
     3     1     9    1
     4     1    15    1
     5     2     3   ar
     6     2     4   ar
     7     5     6    1
     8     6     7    1
     9     7     8    1
    10     7    10    1
    11     8     9    1
    12    10    11    1
    13    11    12    1
    14    12    13    1
    15    13    14    1
