@<TRIPOS>MOLECULE
24029_ChemDiv_C361-2453
 28 31 0 0 0
SMALL
GASTEIGER
Energy = 0

@<TRIPOS>ATOM
      1 S          -1.2460   -2.0040    0.0000 S.O2    1  LIG1        0.0648
      2 C          -1.2460   -3.0040    0.0000 C.ar    1  LIG1        0.1419
      3 C          -0.3830   -3.4960    0.0000 C.ar    1  LIG1        0.1273
      4 N           0.5670   -3.1920    0.0000 N.ar    1  LIG1       -0.1888
      5 S           1.1580   -3.9960    0.0000 S.2     1  LIG1        0.1165
      6 N           0.5670   -4.8080    0.0000 N.ar    1  LIG1       -0.1901
      7 C          -0.3830   -4.4960    0.0000 C.ar    1  LIG1        0.1102
      8 C          -1.2460   -4.9960    0.0000 C.ar    1  LIG1        0.0214
      9 C          -2.1130   -4.4960    0.0000 C.ar    1  LIG1        0.0030
     10 C          -2.1130   -3.4960    0.0000 C.ar    1  LIG1        0.0216
     11 N          -1.2460   -1.0040    0.0000 N.3     1  LIG1       -0.1555
     12 C          -0.3830   -0.5040    0.0000 C.3     1  LIG1        0.0963
     13 C          -0.3830    0.4880    0.0000 C.3     1  LIG1        0.0283
     14 C          -1.2460    0.9880    0.0000 C.3     1  LIG1        0.0796
     15 C          -1.2460    1.9880    0.0000 C.2     1  LIG1        0.2252
     16 N          -0.3830    2.4880    0.0000 N.am    1  LIG1       -0.2796
     17 C           0.4830    1.9790    0.0000 C.3     1  LIG1        0.0933
     18 C           1.3500    2.4880    0.0000 C.3     1  LIG1        0.0199
     19 C           1.3500    3.4880    0.0000 C.3     1  LIG1        0.0034
     20 C           0.4830    4.0000    0.0000 C.3     1  LIG1        0.0199
     21 C          -0.3830    3.4880    0.0000 C.3     1  LIG1        0.0933
     22 C           0.4830    4.9960    0.0000 C.3     1  LIG1        0.0018
     23 C           2.2380    1.9790    0.0000 C.3     1  LIG1        0.0018
     24 O          -2.1130    2.4880    0.0000 O.2     1  LIG1       -0.2749
     25 C          -2.1130    0.4880    0.0000 C.3     1  LIG1        0.0283
     26 C          -2.1130   -0.5040    0.0000 C.3     1  LIG1        0.0963
     27 O          -0.2460   -2.0040    0.0000 O.2     1  LIG1       -0.1527
     28 O          -2.2420   -2.0040    0.0000 O.2     1  LIG1       -0.1527
@<TRIPOS>BOND
     1     1     2    1
     2     1    11    1
     3     1    27    2
     4     1    28    2
     5     2     3   ar
     6     2    10   ar
     7     3     4   ar
     8     3     7   ar
     9     4     5   ar
    10     5     6   ar
    11     6     7   ar
    12     7     8   ar
    13     8     9   ar
    14     9    10   ar
    15    11    12    1
    16    11    26    1
    17    12    13    1
    18    13    14    1
    19    14    15    1
    20    14    25    1
    21    15    16   am
    22    15    24    2
    23    16    17    1
    24    16    21    1
    25    17    18    1
    26    18    19    1
    27    18    23    1
    28    19    20    1
    29    20    21    1
    30    20    22    1
    31    25    26    1
