@<TRIPOS>MOLECULE
24021_ChemDiv_C113-0396
 17 18 0 0 0
SMALL
GASTEIGER
Energy = 0

@<TRIPOS>ATOM
      1 S          -0.3380   -0.4170    0.0000 S.O2    1  LIG1        0.0783
      2 C          -0.3380    0.5920    0.0000 C.ar    1  LIG1        0.1432
      3 C           0.5380    1.1130    0.0000 C.ar    1  LIG1        0.1274
      4 N           1.5040    0.8000    0.0000 N.ar    1  LIG1       -0.1888
      5 S           2.0920    1.6000    0.0000 S.2     1  LIG1        0.1165
      6 N           1.5040    2.4290    0.0000 N.ar    1  LIG1       -0.1901
      7 C           0.5380    2.1210    0.0000 C.ar    1  LIG1        0.1102
      8 C          -0.3380    2.6250    0.0000 C.ar    1  LIG1        0.0214
      9 C          -1.2170    2.1210    0.0000 C.ar    1  LIG1        0.0030
     10 C          -1.2170    1.1130    0.0000 C.ar    1  LIG1        0.0216
     11 N          -0.3380   -1.4290    0.0000 N.3     1  LIG1       -0.0806
     12 C          -1.2040   -1.9330    0.0000 C.3     1  LIG1        0.0827
     13 C          -2.0960   -2.4420    0.0000 C.3     1  LIG1        0.0194
     14 C          -0.8080   -2.6210    0.0000 C.3     1  LIG1        0.0194
     15 C          -1.7210   -1.0500    0.0000 C.3     1  LIG1        0.0194
     16 O           0.6750   -0.4170    0.0000 O.2     1  LIG1       -0.1515
     17 O          -1.3460   -0.4170    0.0000 O.2     1  LIG1       -0.1515
@<TRIPOS>BOND
     1     1     2    1
     2     1    11    1
     3     1    16    2
     4     1    17    2
     5     2     3   ar
     6     2    10   ar
     7     3     4   ar
     8     3     7   ar
     9     4     5   ar
    10     5     6   ar
    11     6     7   ar
    12     7     8   ar
    13     8     9   ar
    14     9    10   ar
    15    11    12    1
    16    12    13    1
    17    12    14    1
    18    12    15    1
