@<TRIPOS>MOLECULE
24026_ChemDiv_3464-8131
 31 35 0 0 0
SMALL
GASTEIGER
Energy = 0

@<TRIPOS>ATOM
      1 S           1.1420   -1.2630    0.0000 S.O2    1  LIG1       -0.0578
      2 N           2.0130   -1.7630    0.0000 N.pl3   1  LIG1       -0.5358
      3 C           2.5250   -0.8960    0.0000 C.ar    1  LIG1       -0.1121
      4 C           2.0290   -0.0420    0.0000 C.ar    1  LIG1       -0.0177
      5 C           2.5420    0.8330    0.0000 C.ar    1  LIG1        0.0701
      6 C           2.0380    1.7000    0.0000 C.ar    1  LIG1        0.3159
      7 N           2.4420    2.6130    0.0000 N.ar    1  LIG1        0.0972
      8 C           1.6960    3.2830    0.0000 C.ar    1  LIG1        0.3692
      9 N           0.8380    2.7960    0.0000 N.ar    1  LIG1       -0.2404
     10 C           1.0420    1.8080    0.0000 C.ar    1  LIG1        0.1619
     11 C          -0.0130    3.2830    0.0000 C.ar    1  LIG1        0.0859
     12 C          -0.0130    4.2710    0.0000 C.ar    1  LIG1        0.0194
     13 C           0.8380    4.7830    0.0000 C.ar    1  LIG1        0.0096
     14 C           1.6960    4.2710    0.0000 C.ar    1  LIG1        0.0965
     15 C           3.5330    0.8330    0.0000 C.ar    1  LIG1        0.0061
     16 C           4.0370   -0.0420    0.0000 C.ar    1  LIG1       -0.0017
     17 C           3.5170   -0.9130    0.0000 C.ar    1  LIG1       -0.0238
     18 C           0.2920   -1.7630    0.0000 C.ar    1  LIG1        0.0893
     19 C           0.2960   -2.7630    0.0000 C.ar    1  LIG1        0.0169
     20 C          -0.5750   -3.2670    0.0000 C.ar    1  LIG1        0.0013
     21 C          -1.4380   -2.7750    0.0000 C.ar    1  LIG1        0.0001
     22 C          -1.4500   -1.7630    0.0000 C.ar    1  LIG1        0.0013
     23 C          -0.5830   -1.2630    0.0000 C.ar    1  LIG1        0.0169
     24 C          -2.3000   -3.2670    0.0000 C.ar    1  LIG1        0.0000
     25 C          -3.1750   -2.7750    0.0000 C.ar    1  LIG1        0.0000
     26 C          -4.0370   -3.2670    0.0000 C.ar    1  LIG1        0.0000
     27 C          -4.0370   -4.2790    0.0000 C.ar    1  LIG1        0.0000
     28 C          -3.1750   -4.7830    0.0000 C.ar    1  LIG1        0.0000
     29 C          -2.3000   -4.2790    0.0000 C.ar    1  LIG1        0.0000
     30 O           1.1420   -0.2580    0.0000 O.2     1  LIG1       -0.1842
     31 O           0.1920   -1.0000    0.0000 O.2     1  LIG1       -0.1842
@<TRIPOS>BOND
     1     1     2    1
     2     1    18    1
     3     1    30    2
     4     1    31    2
     5     2     3    1
     6     3     4   ar
     7     3    17   ar
     8     4     5   ar
     9     5     6    1
    10     5    15   ar
    11     6     7   ar
    12     6    10   ar
    13     7     8   ar
    14     8     9   ar
    15     8    14   ar
    16     9    10   ar
    17     9    11   ar
    18    11    12   ar
    19    12    13   ar
    20    13    14   ar
    21    15    16   ar
    22    16    17   ar
    23    18    19   ar
    24    18    23   ar
    25    19    20   ar
    26    20    21   ar
    27    21    22   ar
    28    21    24    1
    29    22    23   ar
    30    24    25   ar
    31    24    29   ar
    32    25    26   ar
    33    26    27   ar
    34    27    28   ar
    35    28    29   ar
