@<TRIPOS>MOLECULE
24020_ChemDiv_000A-0307
 22 24 0 0 0
SMALL
GASTEIGER
Energy = 0

@<TRIPOS>ATOM
      1 N           0.8670    1.0000    0.0000 N.pl3   1  LIG1       -0.1851
      2 C           0.8670    2.0000    0.0000 C.2     1  LIG1        0.3013
      3 N          -0.0130    2.4880    0.0000 N.2     1  LIG1       -0.0448
      4 C          -0.8710    2.0000    0.0000 C.ar    1  LIG1        0.1929
      5 C          -0.8710    1.0000    0.0000 C.ar    1  LIG1        0.0677
      6 C          -0.0130    0.5040    0.0000 C.3     1  LIG1        0.2090
      7 C          -0.0420   -0.4880    0.0000 C.ar    1  LIG1        0.0244
      8 C           0.8380   -0.9880    0.0000 C.ar    1  LIG1       -0.0001
      9 C           0.8380   -1.9830    0.0000 C.ar    1  LIG1       -0.0002
     10 C          -0.0130   -2.4830    0.0000 C.ar    1  LIG1       -0.0000
     11 C          -0.8710   -1.9830    0.0000 C.ar    1  LIG1       -0.0002
     12 C          -0.9040   -0.9880    0.0000 C.ar    1  LIG1       -0.0001
     13 C          -1.7330    0.5040    0.0000 C.ar    1  LIG1        0.0103
     14 C          -2.6170    1.0000    0.0000 C.ar    1  LIG1        0.0346
     15 C          -2.6170    2.0000    0.0000 C.ar    1  LIG1        0.0105
     16 C          -1.7330    2.4880    0.0000 C.ar    1  LIG1        0.0469
     17 BR         -3.4960    0.5040    0.0000 Br      1  LIG1       -0.0490
     18 C           1.7540    2.4880    0.0000 C.3     1  LIG1        0.1299
     19 C           1.7540    0.5040    0.0000 C.3     1  LIG1        0.2448
     20 C           2.6130    1.0000    0.0000 C.2     1  LIG1        0.0971
     21 O           2.6170    2.0000    0.0000 O.co2   1  LIG1       -0.5450
     22 O           3.4920    0.5500    0.0000 O.co2   1  LIG1       -0.5450
@<TRIPOS>BOND
     1     1     2    1
     2     1     6    1
     3     1    19    1
     4     2     3    2
     5     2    18    1
     6     3     4    1
     7     4     5   ar
     8     4    16   ar
     9     5     6    1
    10     5    13   ar
    11     6     7    1
    12     7     8   ar
    13     7    12   ar
    14     8     9   ar
    15     9    10   ar
    16    10    11   ar
    17    11    12   ar
    18    13    14   ar
    19    14    15   ar
    20    14    17    1
    21    15    16   ar
    22    19    20    1
    23    20    21   ar
    24    20    22   ar
