@<TRIPOS>MOLECULE
24028_ChemDiv_D234-0003
 31 34 0 0 0
SMALL
GASTEIGER
Energy = 0

@<TRIPOS>ATOM
      1 S           2.5630    0.3460    0.0000 S.O2    1  LIG1       -0.0578
      2 N           3.0580    1.2130    0.0000 N.pl3   1  LIG1       -0.5360
      3 C           2.5630    2.0790    0.0000 C.ar    1  LIG1       -0.1161
      4 C           1.5670    2.0790    0.0000 C.ar    1  LIG1       -0.0180
      5 C           1.0630    2.9540    0.0000 C.ar    1  LIG1        0.0700
      6 C           0.0750    2.9540    0.0000 C.ar    1  LIG1        0.3159
      7 N          -0.5170    3.7630    0.0000 N.ar    1  LIG1        0.0972
      8 C          -1.4670    3.4460    0.0000 C.ar    1  LIG1        0.3689
      9 N          -1.4670    2.4670    0.0000 N.ar    1  LIG1       -0.2404
     10 C          -0.5170    2.1380    0.0000 C.ar    1  LIG1        0.1619
     11 C          -2.3290    1.9540    0.0000 C.ar    1  LIG1        0.0856
     12 C          -3.1830    2.4500    0.0000 C.ar    1  LIG1        0.0152
     13 C          -3.1830    3.4460    0.0000 C.ar    1  LIG1       -0.0125
     14 C          -2.3290    3.9580    0.0000 C.ar    1  LIG1        0.0923
     15 C          -4.0580    3.9460    0.0000 C.3     1  LIG1        0.0313
     16 C           1.5670    3.8250    0.0000 C.ar    1  LIG1        0.0057
     17 C           2.5630    3.8250    0.0000 C.ar    1  LIG1       -0.0058
     18 C           3.0580    2.9540    0.0000 C.ar    1  LIG1       -0.0439
     19 C           4.0540    2.9630    0.0000 C.3     1  LIG1        0.0291
     20 C           2.0580   -0.5170    0.0000 C.ar    1  LIG1        0.0894
     21 C           1.0500   -0.5000    0.0000 C.ar    1  LIG1        0.0182
     22 C           0.5420   -1.3630    0.0000 C.ar    1  LIG1        0.0179
     23 C           1.0330   -2.2250    0.0000 C.ar    1  LIG1        0.0734
     24 N           0.5250   -3.0960    0.0000 N.am    1  LIG1       -0.1792
     25 C          -0.4710   -3.0790    0.0000 C.2     1  LIG1        0.2461
     26 O          -0.9830   -3.9540    0.0000 O.2     1  LIG1       -0.2730
     27 C          -0.9670   -2.2080    0.0000 C.3     1  LIG1        0.0968
     28 C           2.0460   -2.2420    0.0000 C.ar    1  LIG1        0.0179
     29 C           2.5460   -1.3790    0.0000 C.ar    1  LIG1        0.0182
     30 O           1.5670    0.3460    0.0000 O.2     1  LIG1       -0.1842
     31 O           3.0580   -0.5170    0.0000 O.2     1  LIG1       -0.1842
@<TRIPOS>BOND
     1     1     2    1
     2     1    20    1
     3     1    30    2
     4     1    31    2
     5     2     3    1
     6     3     4   ar
     7     3    18   ar
     8     4     5   ar
     9     5     6    1
    10     5    16   ar
    11     6     7   ar
    12     6    10   ar
    13     7     8   ar
    14     8     9   ar
    15     8    14   ar
    16     9    10   ar
    17     9    11   ar
    18    11    12   ar
    19    12    13   ar
    20    13    14   ar
    21    13    15    1
    22    16    17   ar
    23    17    18   ar
    24    18    19    1
    25    20    21   ar
    26    20    29   ar
    27    21    22   ar
    28    22    23   ar
    29    23    24    1
    30    23    28   ar
    31    24    25   am
    32    25    26    2
    33    25    27    1
    34    28    29   ar
