@<TRIPOS>MOLECULE
24025_ChemDiv_C361-2424
 32 36 0 0 0
SMALL
GASTEIGER
Energy = 0

@<TRIPOS>ATOM
      1 S          -2.0960   -2.2420    0.0000 S.O2    1  LIG1        0.0648
      2 C          -2.0960   -3.2460    0.0000 C.ar    1  LIG1        0.1419
      3 C          -1.2330   -3.7500    0.0000 C.ar    1  LIG1        0.1273
      4 N          -0.2790   -3.4330    0.0000 N.ar    1  LIG1       -0.1888
      5 S           0.3080   -4.2460    0.0000 S.2     1  LIG1        0.1165
      6 N          -0.2790   -5.0580    0.0000 N.ar    1  LIG1       -0.1901
      7 C          -1.2330   -4.7460    0.0000 C.ar    1  LIG1        0.1102
      8 C          -2.0960   -5.2500    0.0000 C.ar    1  LIG1        0.0214
      9 C          -2.9670   -4.7460    0.0000 C.ar    1  LIG1        0.0030
     10 C          -2.9670   -3.7500    0.0000 C.ar    1  LIG1        0.0216
     11 N          -2.0960   -1.2460    0.0000 N.3     1  LIG1       -0.1555
     12 C          -2.9670   -0.7420    0.0000 C.3     1  LIG1        0.0963
     13 C          -2.9670    0.2540    0.0000 C.3     1  LIG1        0.0283
     14 C          -2.0960    0.7630    0.0000 C.3     1  LIG1        0.0796
     15 C          -2.0960    1.7630    0.0000 C.2     1  LIG1        0.2255
     16 N          -1.2330    2.2630    0.0000 N.am    1  LIG1       -0.2751
     17 C          -0.3630    1.7630    0.0000 C.3     1  LIG1        0.1195
     18 C           0.4920    2.2630    0.0000 C.2     1  LIG1       -0.0089
     19 C           0.4920    3.2580    0.0000 C.2     1  LIG1       -0.0231
     20 C          -0.3630    3.7540    0.0000 C.3     1  LIG1        0.0476
     21 C          -1.2330    3.2580    0.0000 C.3     1  LIG1        0.0984
     22 C           1.3630    3.7540    0.0000 C.ar    1  LIG1       -0.0042
     23 C           2.2250    3.2580    0.0000 C.ar    1  LIG1       -0.0003
     24 C           3.0960    3.7540    0.0000 C.ar    1  LIG1       -0.0000
     25 C           3.0960    4.7540    0.0000 C.ar    1  LIG1       -0.0000
     26 C           2.2250    5.2500    0.0000 C.ar    1  LIG1       -0.0000
     27 C           1.3630    4.7540    0.0000 C.ar    1  LIG1       -0.0003
     28 O          -2.9670    2.2630    0.0000 O.2     1  LIG1       -0.2749
     29 C          -1.2330    0.2540    0.0000 C.3     1  LIG1        0.0283
     30 C          -1.2330   -0.7420    0.0000 C.3     1  LIG1        0.0963
     31 O          -3.1000   -2.2420    0.0000 O.2     1  LIG1       -0.1527
     32 O          -1.1000   -2.2420    0.0000 O.2     1  LIG1       -0.1527
@<TRIPOS>BOND
     1     1     2    1
     2     1    11    1
     3     1    31    2
     4     1    32    2
     5     2     3   ar
     6     2    10   ar
     7     3     4   ar
     8     3     7   ar
     9     4     5   ar
    10     5     6   ar
    11     6     7   ar
    12     7     8   ar
    13     8     9   ar
    14     9    10   ar
    15    11    12    1
    16    11    30    1
    17    12    13    1
    18    13    14    1
    19    14    15    1
    20    14    29    1
    21    15    16   am
    22    15    28    2
    23    16    17    1
    24    16    21    1
    25    17    18    1
    26    18    19    2
    27    19    20    1
    28    19    22    1
    29    20    21    1
    30    22    23   ar
    31    22    27   ar
    32    23    24   ar
    33    24    25   ar
    34    25    26   ar
    35    26    27   ar
    36    29    30    1
