@<TRIPOS>MOLECULE
24024_ChemDiv_3382-1260
 28 31 0 0 0
SMALL
GASTEIGER
Energy = 0

@<TRIPOS>ATOM
      1 S          -2.9460    0.0210    0.0000 S.O2    1  LIG1       -0.0578
      2 N          -2.9420    0.9830    0.0000 N.pl3   1  LIG1       -0.5358
      3 C          -2.0960    1.4710    0.0000 C.ar    1  LIG1       -0.1123
      4 C          -2.0830    2.4380    0.0000 C.ar    1  LIG1       -0.0236
      5 C          -1.2420    2.9210    0.0000 C.ar    1  LIG1        0.0043
      6 C          -0.3960    2.4380    0.0000 C.ar    1  LIG1        0.0717
      7 C           0.4330    2.9210    0.0000 C.ar    1  LIG1        0.3160
      8 N           1.2960    2.4250    0.0000 N.ar    1  LIG1        0.0972
      9 C           2.1330    2.9210    0.0000 C.ar    1  LIG1        0.3692
     10 N           2.1330    3.9040    0.0000 N.ar    1  LIG1       -0.2404
     11 C           0.4330    3.9040    0.0000 C.ar    1  LIG1        0.1619
     12 C           2.9790    4.3880    0.0000 C.ar    1  LIG1        0.0859
     13 C           3.8130    3.9040    0.0000 C.ar    1  LIG1        0.0194
     14 C           3.8130    2.9210    0.0000 C.ar    1  LIG1        0.0096
     15 C           2.9790    2.4380    0.0000 C.ar    1  LIG1        0.0965
     16 C          -0.3960    1.4540    0.0000 C.ar    1  LIG1        0.0043
     17 C          -1.2420    0.9670    0.0000 C.ar    1  LIG1       -0.0236
     18 C          -2.9460   -0.9580    0.0000 C.ar    1  LIG1        0.0895
     19 C          -3.8000   -1.4330    0.0000 C.ar    1  LIG1        0.0200
     20 C          -3.8170   -2.4080    0.0000 C.ar    1  LIG1        0.0382
     21 C          -2.9710   -2.9080    0.0000 C.ar    1  LIG1        0.1386
     22 C          -2.1170   -2.4330    0.0000 C.ar    1  LIG1        0.0382
     23 C          -2.1130   -1.4460    0.0000 C.ar    1  LIG1        0.0200
     24 O          -2.9880   -3.8920    0.0000 O.3     1  LIG1       -0.4755
     25 C          -2.1420   -4.3880    0.0000 C.3     1  LIG1        0.2055
     26 C          -1.2880   -3.9170    0.0000 C.3     1  LIG1        0.0512
     27 O          -2.0960   -0.4790    0.0000 O.2     1  LIG1       -0.1842
     28 O          -3.7920   -0.4630    0.0000 O.2     1  LIG1       -0.1842
@<TRIPOS>BOND
     1     1     2    1
     2     1    18    1
     3     1    27    2
     4     1    28    2
     5     2     3    1
     6     3     4   ar
     7     3    17   ar
     8     4     5   ar
     9     5     6   ar
    10     6     7    1
    11     6    16   ar
    12     7     8   ar
    13     7    11   ar
    14     8     9   ar
    15     9    10   ar
    16     9    15   ar
    17    10    11   ar
    18    10    12   ar
    19    12    13   ar
    20    13    14   ar
    21    14    15   ar
    22    16    17   ar
    23    18    19   ar
    24    18    23   ar
    25    19    20   ar
    26    20    21   ar
    27    21    22   ar
    28    21    24    1
    29    22    23   ar
    30    24    25    1
    31    25    26    1
