@<TRIPOS>MOLECULE
24023_ChemDiv_C361-2394
 30 34 0 0 0
SMALL
GASTEIGER
Energy = 0

@<TRIPOS>ATOM
      1 S          -0.8040   -2.2460    0.0000 S.O2    1  LIG1        0.0648
      2 C          -0.8040   -3.2460    0.0000 C.ar    1  LIG1        0.1419
      3 C           0.0630   -3.7460    0.0000 C.ar    1  LIG1        0.1273
      4 N           1.0130   -3.4330    0.0000 N.ar    1  LIG1       -0.1888
      5 S           1.5920   -4.2420    0.0000 S.2     1  LIG1        0.1165
      6 N           1.0130   -5.0540    0.0000 N.ar    1  LIG1       -0.1901
      7 C           0.0630   -4.7420    0.0000 C.ar    1  LIG1        0.1102
      8 C          -0.8040   -5.2420    0.0000 C.ar    1  LIG1        0.0214
      9 C          -1.6710   -4.7420    0.0000 C.ar    1  LIG1        0.0030
     10 C          -1.6710   -3.7460    0.0000 C.ar    1  LIG1        0.0216
     11 N          -0.8040   -1.2500    0.0000 N.3     1  LIG1       -0.1555
     12 C           0.0630   -0.7500    0.0000 C.3     1  LIG1        0.0963
     13 C           0.0630    0.2460    0.0000 C.3     1  LIG1        0.0283
     14 C          -0.8040    0.7460    0.0000 C.3     1  LIG1        0.0799
     15 C          -0.8040    1.7460    0.0000 C.2     1  LIG1        0.2289
     16 N           0.0630    2.2500    0.0000 N.am    1  LIG1       -0.2589
     17 C           0.0630    3.2380    0.0000 C.ar    1  LIG1        0.0498
     18 C           0.9290    3.7380    0.0000 C.ar    1  LIG1       -0.0084
     19 C           1.7960    3.2420    0.0000 C.3     1  LIG1        0.0294
     20 C           1.8000    2.2500    0.0000 C.3     1  LIG1        0.0266
     21 C           0.9290    1.7420    0.0000 C.3     1  LIG1        0.0985
     22 C           0.9290    4.7420    0.0000 C.ar    1  LIG1       -0.0030
     23 C           0.0630    5.2420    0.0000 C.ar    1  LIG1       -0.0002
     24 C          -0.8080    4.7420    0.0000 C.ar    1  LIG1        0.0013
     25 C          -0.8080    3.7380    0.0000 C.ar    1  LIG1        0.0146
     26 O          -1.6710    2.2500    0.0000 O.2     1  LIG1       -0.2745
     27 C          -1.6710    0.2460    0.0000 C.3     1  LIG1        0.0283
     28 C          -1.6710   -0.7500    0.0000 C.3     1  LIG1        0.0963
     29 O          -1.8040   -2.2460    0.0000 O.2     1  LIG1       -0.1527
     30 O           0.1920   -2.2460    0.0000 O.2     1  LIG1       -0.1527
@<TRIPOS>BOND
     1     1     2    1
     2     1    11    1
     3     1    29    2
     4     1    30    2
     5     2     3   ar
     6     2    10   ar
     7     3     4   ar
     8     3     7   ar
     9     4     5   ar
    10     5     6   ar
    11     6     7   ar
    12     7     8   ar
    13     8     9   ar
    14     9    10   ar
    15    11    12    1
    16    11    28    1
    17    12    13    1
    18    13    14    1
    19    14    15    1
    20    14    27    1
    21    15    16   am
    22    15    26    2
    23    16    17    1
    24    16    21    1
    25    17    18   ar
    26    17    25   ar
    27    18    19    1
    28    18    22   ar
    29    19    20    1
    30    20    21    1
    31    22    23   ar
    32    23    24   ar
    33    24    25   ar
    34    27    28    1
