@<TRIPOS>MOLECULE
24034_ChemDiv_D021-0249
 23 26 0 0 0
SMALL
GASTEIGER
Energy = 0

@<TRIPOS>ATOM
      1 C          -0.0250    0.2790    0.0000 C.ar    1  LIG1        0.1576
      2 C          -0.0290    1.2790    0.0000 C.ar    1  LIG1        0.0919
      3 C          -0.8920    1.7630    0.0000 C.ar    1  LIG1        0.2687
      4 N          -1.7420    1.2630    0.0000 N.ar    1  LIG1       -0.2576
      5 C          -1.7380    0.2630    0.0000 C.ar    1  LIG1        0.1516
      6 N          -0.8790   -0.2210    0.0000 N.ar    1  LIG1       -0.2102
      7 C          -2.5920   -0.2380    0.0000 C.ar    1  LIG1        0.0376
      8 C          -3.4500    0.2460    0.0000 C.ar    1  LIG1        0.0046
      9 C          -3.4630    1.2460    0.0000 C.ar    1  LIG1        0.0192
     10 C          -2.6040    1.7460    0.0000 C.ar    1  LIG1        0.0844
     11 O          -0.9040    2.7710    0.0000 O.2     1  LIG1       -0.2665
     12 C           0.8380    1.7960    0.0000 C.ar    1  LIG1        0.0229
     13 C           1.7170    1.3080    0.0000 C.ar    1  LIG1        0.1251
     14 C           1.7170    0.2920    0.0000 C.ar    1  LIG1        0.2769
     15 N           0.8540   -0.2210    0.0000 N.ar    1  LIG1       -0.2373
     16 C           0.8630   -1.2210    0.0000 C.ar    1  LIG1        0.1828
     17 N           0.0630   -1.8130    0.0000 N.ar    1  LIG1       -0.2199
     18 C           0.3790   -2.7670    0.0000 C.ar    1  LIG1        0.1081
     19 C           1.3790   -2.7540    0.0000 C.ar    1  LIG1        0.0590
     20 S           1.6710   -1.8000    0.0000 S.2     1  LIG1       -0.0478
     21 O           2.6080   -0.2080    0.0000 O.2     1  LIG1       -0.2658
     22 C           2.5920    1.8080    0.0000 C.1     1  LIG1        0.1052
     23 N           3.4580    2.3210    0.0000 N.1     1  LIG1       -0.1907
@<TRIPOS>BOND
     1     1     2   ar
     2     1     6   ar
     3     1    15   ar
     4     2     3   ar
     5     2    12   ar
     6     3     4   ar
     7     3    11    2
     8     4     5   ar
     9     4    10   ar
    10     5     6   ar
    11     5     7   ar
    12     7     8   ar
    13     8     9   ar
    14     9    10   ar
    15    12    13   ar
    16    13    14   ar
    17    13    22    1
    18    14    15   ar
    19    14    21    2
    20    15    16    1
    21    16    17   ar
    22    16    20   ar
    23    17    18   ar
    24    18    19   ar
    25    19    20   ar
    26    22    23    3
