@<TRIPOS>MOLECULE
24030_ChemDiv_D234-0017
 29 32 0 0 0
SMALL
GASTEIGER
Energy = 0

@<TRIPOS>ATOM
      1 S           1.4960   -0.3170    0.0000 S.O2    1  LIG1       -0.0549
      2 C           1.7460    0.6540    0.0000 C.ar    1  LIG1        0.1236
      3 C           1.0420    1.3540    0.0000 C.ar    1  LIG1        0.0267
      4 C           1.3000    2.3170    0.0000 C.ar    1  LIG1        0.0360
      5 C           2.2670    2.5750    0.0000 C.ar    1  LIG1        0.0099
      6 C           2.9630    1.8630    0.0000 C.ar    1  LIG1        0.0387
      7 C           2.7040    0.9080    0.0000 C.ar    1  LIG1        0.1543
      8 O           3.4130    0.2130    0.0000 O.3     1  LIG1       -0.4702
      9 C           4.3670    0.4710    0.0000 C.3     1  LIG1        0.2525
     10 BR          0.5880    3.0250    0.0000 Br      1  LIG1       -0.0490
     11 N           1.1000   -1.2250    0.0000 N.pl3   1  LIG1       -0.5360
     12 C           0.1130   -1.3460    0.0000 C.ar    1  LIG1       -0.1161
     13 C          -0.4920   -0.5580    0.0000 C.ar    1  LIG1       -0.0180
     14 C          -1.4710   -0.6790    0.0000 C.ar    1  LIG1        0.0700
     15 C          -2.0580    0.1080    0.0000 C.ar    1  LIG1        0.3159
     16 N          -1.8000    1.0670    0.0000 N.ar    1  LIG1        0.0972
     17 C          -2.6540    1.5670    0.0000 C.ar    1  LIG1        0.3692
     18 N          -3.5130    1.0670    0.0000 N.ar    1  LIG1       -0.2404
     19 C          -3.2580    0.1080    0.0000 C.ar    1  LIG1        0.1619
     20 C          -4.3710    1.5670    0.0000 C.ar    1  LIG1        0.0859
     21 C          -4.3710    2.5580    0.0000 C.ar    1  LIG1        0.0194
     22 C          -3.5130    3.0580    0.0000 C.ar    1  LIG1        0.0096
     23 C          -2.6540    2.5580    0.0000 C.ar    1  LIG1        0.0965
     24 C          -1.8630   -1.5960    0.0000 C.ar    1  LIG1        0.0057
     25 C          -1.2580   -2.3880    0.0000 C.ar    1  LIG1       -0.0058
     26 C          -0.2750   -2.2670    0.0000 C.ar    1  LIG1       -0.0439
     27 C           0.3290   -3.0540    0.0000 C.3     1  LIG1        0.0291
     28 O           2.1920   -1.0210    0.0000 O.2     1  LIG1       -0.1841
     29 O           0.5290   -0.0580    0.0000 O.2     1  LIG1       -0.1841
@<TRIPOS>BOND
     1     1     2    1
     2     1    11    1
     3     1    28    2
     4     1    29    2
     5     2     3   ar
     6     2     7   ar
     7     3     4   ar
     8     4     5   ar
     9     4    10    1
    10     5     6   ar
    11     6     7   ar
    12     7     8    1
    13     8     9    1
    14    11    12    1
    15    12    13   ar
    16    12    26   ar
    17    13    14   ar
    18    14    15    1
    19    14    24   ar
    20    15    16   ar
    21    15    19   ar
    22    16    17   ar
    23    17    18   ar
    24    17    23   ar
    25    18    19   ar
    26    18    20   ar
    27    20    21   ar
    28    21    22   ar
    29    22    23   ar
    30    24    25   ar
    31    25    26   ar
    32    26    27    1
