@<TRIPOS>MOLECULE
24039_ChemDiv_0326-0488
 24 26 0 0 0
SMALL
GASTEIGER
Energy = 0

@<TRIPOS>ATOM
      1 C           0.3330    0.4040    0.0000 C.ar    1  LIG1        0.1443
      2 C           0.9040   -0.4250    0.0000 C.ar    1  LIG1        0.2954
      3 N           1.8540   -0.1080    0.0000 N.ar    1  LIG1       -0.2134
      4 N           1.8540    0.8830    0.0000 N.ar    1  LIG1       -0.2646
      5 C           0.9040    1.1710    0.0000 C.ar    1  LIG1        0.0746
      6 C           0.5830    2.1210    0.0000 C.3     1  LIG1        0.0532
      7 C           2.6380    1.4790    0.0000 C.3     1  LIG1        0.1518
      8 C           2.6960   -0.6080    0.0000 C.ar    1  LIG1        0.0841
      9 C           2.6960   -1.6040    0.0000 C.ar    1  LIG1        0.0192
     10 C           3.5710   -2.1170    0.0000 C.ar    1  LIG1        0.0015
     11 C           4.4330   -1.6040    0.0000 C.ar    1  LIG1        0.0001
     12 C           4.4330   -0.6080    0.0000 C.ar    1  LIG1        0.0015
     13 C           3.5710   -0.1080    0.0000 C.ar    1  LIG1        0.0192
     14 O           0.6000   -1.3790    0.0000 O.2     1  LIG1       -0.2637
     15 N          -0.6580    0.4290    0.0000 N.am    1  LIG1       -0.1694
     16 C          -1.1790   -0.4250    0.0000 C.2     1  LIG1        0.2692
     17 C          -2.1630   -0.3250    0.0000 C.ar    1  LIG1        0.0558
     18 C          -2.7750   -1.1210    0.0000 C.ar    1  LIG1        0.0104
     19 C          -3.7750   -0.9960    0.0000 C.ar    1  LIG1        0.0302
     20 I          -4.4380   -1.8210    0.0000 I       1  LIG1       -0.0425
     21 C          -4.1540   -0.0830    0.0000 C.ar    1  LIG1        0.0058
     22 C          -3.5540    0.7130    0.0000 C.ar    1  LIG1        0.0006
     23 C          -2.5580    0.5880    0.0000 C.ar    1  LIG1        0.0046
     24 O          -0.7670   -1.3790    0.0000 O.2     1  LIG1       -0.2680
@<TRIPOS>BOND
     1     1     2   ar
     2     1     5   ar
     3     1    15    1
     4     2     3   ar
     5     2    14    2
     6     3     4   ar
     7     3     8    1
     8     4     5   ar
     9     4     7    1
    10     5     6    1
    11     8     9   ar
    12     8    13   ar
    13     9    10   ar
    14    10    11   ar
    15    11    12   ar
    16    12    13   ar
    17    15    16   am
    18    16    17    1
    19    16    24    2
    20    17    18   ar
    21    17    23   ar
    22    18    19   ar
    23    19    20    1
    24    19    21   ar
    25    21    22   ar
    26    22    23   ar
