@<TRIPOS>MOLECULE
24037_ChemDiv_000A-0154
 33 36 0 0 0
SMALL
GASTEIGER
Energy = 0

@<TRIPOS>ATOM
      1 C          -3.0250    2.2960    0.0000 C.ar    1  LIG1        0.1441
      2 C          -2.9170    1.3040    0.0000 C.ar    1  LIG1        0.2953
      3 N          -3.8040    0.8960    0.0000 N.ar    1  LIG1       -0.2134
      4 N          -4.4540    1.6420    0.0000 N.ar    1  LIG1       -0.2646
      5 C          -3.9750    2.4830    0.0000 C.ar    1  LIG1        0.0746
      6 C          -4.4790    3.3130    0.0000 C.3     1  LIG1        0.0532
      7 C          -5.4420    1.6420    0.0000 C.3     1  LIG1        0.1518
      8 C          -4.0040   -0.0670    0.0000 C.ar    1  LIG1        0.0841
      9 C          -3.2460   -0.7080    0.0000 C.ar    1  LIG1        0.0192
     10 C          -3.4580   -1.6750    0.0000 C.ar    1  LIG1        0.0015
     11 C          -4.3830   -2.0000    0.0000 C.ar    1  LIG1        0.0001
     12 C          -5.1290   -1.3500    0.0000 C.ar    1  LIG1        0.0015
     13 C          -4.9250   -0.3710    0.0000 C.ar    1  LIG1        0.0192
     14 O          -2.0330    0.8130    0.0000 O.2     1  LIG1       -0.2637
     15 N          -2.3170    2.9670    0.0000 N.am    1  LIG1       -0.1719
     16 C          -1.4210    2.7080    0.0000 C.2     1  LIG1        0.2621
     17 C          -1.1210    1.7630    0.0000 C.3     1  LIG1        0.1609
     18 N          -0.1460    1.5500    0.0000 N.3     1  LIG1       -0.2548
     19 C           0.1670    0.6210    0.0000 C.3     1  LIG1        0.1362
     20 C           1.1460    0.4080    0.0000 C.3     1  LIG1        0.1568
     21 N           1.8080    1.1540    0.0000 N.4     1  LIG1        0.3829
     22 C           1.5040    2.0920    0.0000 C.3     1  LIG1        0.1568
     23 C           0.5250    2.2960    0.0000 C.3     1  LIG1        0.1362
     24 C           2.9380    0.9500    0.0000 C.3     1  LIG1        0.1662
     25 C           3.0790   -0.0830    0.0000 C.2     1  LIG1        0.0359
     26 C           4.1790   -0.4080    0.0000 C.2     1  LIG1        0.0013
     27 C           4.3420   -1.4790    0.0000 C.ar    1  LIG1       -0.0001
     28 C           3.5830   -2.0920    0.0000 C.ar    1  LIG1       -0.0000
     29 C           3.7460   -3.0750    0.0000 C.ar    1  LIG1       -0.0000
     30 C           4.6790   -3.3960    0.0000 C.ar    1  LIG1       -0.0000
     31 C           5.4380   -2.7630    0.0000 C.ar    1  LIG1       -0.0000
     32 C           5.2670   -1.8040    0.0000 C.ar    1  LIG1       -0.0000
     33 O          -0.6500    3.4000    0.0000 O.2     1  LIG1       -0.2715
@<TRIPOS>BOND
     1     1     2   ar
     2     1     5   ar
     3     1    15    1
     4     2     3   ar
     5     2    14    2
     6     3     4   ar
     7     3     8    1
     8     4     5   ar
     9     4     7    1
    10     5     6    1
    11     8     9   ar
    12     8    13   ar
    13     9    10   ar
    14    10    11   ar
    15    11    12   ar
    16    12    13   ar
    17    15    16   am
    18    16    17    1
    19    16    33    2
    20    17    18    1
    21    18    19    1
    22    18    23    1
    23    19    20    1
    24    20    21    1
    25    21    22    1
    26    21    24    1
    27    22    23    1
    28    24    25    1
    29    25    26    2
    30    26    27    1
    31    27    28   ar
    32    27    32   ar
    33    28    29   ar
    34    29    30   ar
    35    30    31   ar
    36    31    32   ar
