@<TRIPOS>MOLECULE
24032_ChemDiv_D234-0033
 30 33 0 0 0
SMALL
GASTEIGER
Energy = 0

@<TRIPOS>ATOM
      1 S           1.7580   -0.8710    0.0000 S.O2    1  LIG1       -0.0581
      2 C           2.0250    0.0920    0.0000 C.ar    1  LIG1        0.0850
      3 C           2.9790    0.3500    0.0000 C.ar    1  LIG1        0.0120
      4 C           3.2330    1.3080    0.0000 C.ar    1  LIG1       -0.0246
      5 C           2.5380    2.0170    0.0000 C.ar    1  LIG1       -0.0260
      6 C           1.5790    1.7580    0.0000 C.ar    1  LIG1       -0.0076
      7 C           1.3040    0.7960    0.0000 C.ar    1  LIG1       -0.0065
      8 C           0.3580    0.5380    0.0000 C.3     1  LIG1        0.0323
      9 C           2.7960    2.9790    0.0000 C.3     1  LIG1        0.0307
     10 C           4.2000    1.5670    0.0000 C.3     1  LIG1        0.0307
     11 N           1.2790   -1.7210    0.0000 N.pl3   1  LIG1       -0.5361
     12 C           0.2830   -1.8420    0.0000 C.ar    1  LIG1       -0.1161
     13 C          -0.3170   -1.0500    0.0000 C.ar    1  LIG1       -0.0180
     14 C          -1.2880   -1.1790    0.0000 C.ar    1  LIG1        0.0700
     15 C          -1.8830   -0.3960    0.0000 C.ar    1  LIG1        0.3159
     16 N          -1.6290    0.5710    0.0000 N.ar    1  LIG1        0.0972
     17 C          -2.4710    1.0670    0.0000 C.ar    1  LIG1        0.3689
     18 N          -3.3460    0.5710    0.0000 N.ar    1  LIG1       -0.2404
     19 C          -3.0960   -0.3960    0.0000 C.ar    1  LIG1        0.1619
     20 C          -4.2040    1.0670    0.0000 C.ar    1  LIG1        0.0856
     21 C          -4.2040    2.0580    0.0000 C.ar    1  LIG1        0.0152
     22 C          -3.3460    2.5630    0.0000 C.ar    1  LIG1       -0.0125
     23 C          -2.4710    2.0580    0.0000 C.ar    1  LIG1        0.0923
     24 C          -3.3500    3.5540    0.0000 C.3     1  LIG1        0.0313
     25 C          -1.6790   -2.0960    0.0000 C.ar    1  LIG1        0.0057
     26 C          -1.0880   -2.8880    0.0000 C.ar    1  LIG1       -0.0058
     27 C          -0.0960   -2.7580    0.0000 C.ar    1  LIG1       -0.0439
     28 C           0.5040   -3.5500    0.0000 C.3     1  LIG1        0.0291
     29 O           0.8040   -0.6040    0.0000 O.2     1  LIG1       -0.1842
     30 O           2.6170   -1.3670    0.0000 O.2     1  LIG1       -0.1842
@<TRIPOS>BOND
     1     1     2    1
     2     1    11    1
     3     1    29    2
     4     1    30    2
     5     2     3   ar
     6     2     7   ar
     7     3     4   ar
     8     4     5   ar
     9     4    10    1
    10     5     6   ar
    11     5     9    1
    12     6     7   ar
    13     7     8    1
    14    11    12    1
    15    12    13   ar
    16    12    27   ar
    17    13    14   ar
    18    14    15    1
    19    14    25   ar
    20    15    16   ar
    21    15    19   ar
    22    16    17   ar
    23    17    18   ar
    24    17    23   ar
    25    18    19   ar
    26    18    20   ar
    27    20    21   ar
    28    21    22   ar
    29    22    23   ar
    30    22    24    1
    31    25    26   ar
    32    26    27   ar
    33    27    28    1
