@<TRIPOS>MOLECULE
24031_ChemDiv_C361-2478
 36 40 0 0 0
SMALL
GASTEIGER
Energy = 0

@<TRIPOS>ATOM
      1 S          -1.6540   -2.2540    0.0000 S.O2    1  LIG1        0.0648
      2 C          -1.6540   -3.2580    0.0000 C.ar    1  LIG1        0.1419
      3 C          -0.7880   -3.7630    0.0000 C.ar    1  LIG1        0.1273
      4 N           0.1750   -3.4500    0.0000 N.ar    1  LIG1       -0.1888
      5 S           0.7580   -4.2670    0.0000 S.2     1  LIG1        0.1165
      6 N           0.1750   -5.0790    0.0000 N.ar    1  LIG1       -0.1901
      7 C          -0.7880   -4.7670    0.0000 C.ar    1  LIG1        0.1102
      8 C          -1.6540   -5.2710    0.0000 C.ar    1  LIG1        0.0214
      9 C          -2.5250   -4.7670    0.0000 C.ar    1  LIG1        0.0030
     10 C          -2.5250   -3.7630    0.0000 C.ar    1  LIG1        0.0216
     11 N          -1.6540   -1.2460    0.0000 N.3     1  LIG1       -0.1555
     12 C          -2.5250   -0.7460    0.0000 C.3     1  LIG1        0.0963
     13 C          -2.5250    0.2540    0.0000 C.3     1  LIG1        0.0283
     14 C          -1.6540    0.7580    0.0000 C.3     1  LIG1        0.0796
     15 C          -1.6540    1.7630    0.0000 C.2     1  LIG1        0.2255
     16 N          -0.7880    2.2670    0.0000 N.am    1  LIG1       -0.2751
     17 C          -0.7630    3.2630    0.0000 C.3     1  LIG1        0.1201
     18 C           0.0580    3.6960    0.0000 C.ar    1  LIG1       -0.0023
     19 C           0.9580    3.1790    0.0000 C.ar    1  LIG1       -0.0026
     20 C           1.8580    3.6920    0.0000 C.ar    1  LIG1       -0.0003
     21 C           1.8580    4.7460    0.0000 C.ar    1  LIG1       -0.0000
     22 C           0.9670    5.2710    0.0000 C.ar    1  LIG1       -0.0003
     23 C           0.0670    4.7540    0.0000 C.ar    1  LIG1       -0.0026
     24 C           0.0960    1.7830    0.0000 C.3     1  LIG1        0.0984
     25 C           0.0830    1.1000    0.0000 C.3     1  LIG1        0.0478
     26 C           0.8960    0.6250    0.0000 C.ar    1  LIG1       -0.0205
     27 C           1.7880    1.1460    0.0000 C.ar    1  LIG1       -0.0042
     28 C           2.6420    0.6710    0.0000 C.ar    1  LIG1       -0.0003
     29 C           2.6580   -0.3540    0.0000 C.ar    1  LIG1       -0.0000
     30 C           1.7670   -0.8670    0.0000 C.ar    1  LIG1       -0.0003
     31 C           0.8750   -0.3500    0.0000 C.ar    1  LIG1       -0.0042
     32 O          -2.5250    2.2670    0.0000 O.2     1  LIG1       -0.2749
     33 C          -0.7880    0.2540    0.0000 C.3     1  LIG1        0.0283
     34 C          -0.7880   -0.7460    0.0000 C.3     1  LIG1        0.0963
     35 O          -0.6500   -2.2540    0.0000 O.2     1  LIG1       -0.1527
     36 O          -2.6630   -2.2540    0.0000 O.2     1  LIG1       -0.1527
@<TRIPOS>BOND
     1     1     2    1
     2     1    11    1
     3     1    35    2
     4     1    36    2
     5     2     3   ar
     6     2    10   ar
     7     3     4   ar
     8     3     7   ar
     9     4     5   ar
    10     5     6   ar
    11     6     7   ar
    12     7     8   ar
    13     8     9   ar
    14     9    10   ar
    15    11    12    1
    16    11    34    1
    17    12    13    1
    18    13    14    1
    19    14    15    1
    20    14    33    1
    21    15    16   am
    22    15    32    2
    23    16    17    1
    24    16    24    1
    25    17    18    1
    26    18    19   ar
    27    18    23   ar
    28    19    20   ar
    29    20    21   ar
    30    21    22   ar
    31    22    23   ar
    32    24    25    1
    33    25    26    1
    34    26    27   ar
    35    26    31   ar
    36    27    28   ar
    37    28    29   ar
    38    29    30   ar
    39    30    31   ar
    40    33    34    1
