@<TRIPOS>MOLECULE
24038_ChemDiv_000A-0697
 22 24 0 0 0
SMALL
GASTEIGER
Energy = 0

@<TRIPOS>ATOM
      1 C          -1.8580    0.8330    0.0000 C.2     1  LIG1        0.3412
      2 C          -0.8830    0.5130    0.0000 C.ar    1  LIG1        0.0748
      3 C          -0.8830   -0.5080    0.0000 C.ar    1  LIG1        0.0241
      4 C          -1.8250   -0.7710    0.0000 C.3     1  LIG1        0.1971
      5 O          -2.4290   -0.0210    0.0000 O.3     1  LIG1       -0.4442
      6 C          -2.1290   -1.7210    0.0000 C.3     1  LIG1        0.0900
      7 C          -3.0960   -1.9460    0.0000 C.2     1  LIG1        0.0543
      8 O          -3.3790   -2.9420    0.0000 O.co2   1  LIG1       -0.5490
      9 O          -3.7040   -1.1830    0.0000 O.co2   1  LIG1       -0.5490
     10 C          -0.0170   -1.0330    0.0000 C.ar    1  LIG1        0.0056
     11 C           0.8580   -0.5080    0.0000 C.ar    1  LIG1        0.0748
     12 C           1.8330   -0.8210    0.0000 C.2     1  LIG1        0.3412
     13 O           2.4040    0.0540    0.0000 O.3     1  LIG1       -0.4442
     14 C           1.8040    0.7880    0.0000 C.3     1  LIG1        0.1971
     15 C           0.8580    0.5130    0.0000 C.ar    1  LIG1        0.0241
     16 C          -0.0170    0.9960    0.0000 C.ar    1  LIG1        0.0056
     17 C           2.1040    1.7460    0.0000 C.3     1  LIG1        0.0900
     18 C           3.0790    1.9710    0.0000 C.2     1  LIG1        0.0543
     19 O           3.3630    2.9460    0.0000 O.co2   1  LIG1       -0.5490
     20 O           3.7000    1.2080    0.0000 O.co2   1  LIG1       -0.5490
     21 O           2.1380   -1.7420    0.0000 O.2     1  LIG1       -0.2449
     22 O          -2.1580    1.7460    0.0000 O.2     1  LIG1       -0.2449
@<TRIPOS>BOND
     1     1     2    1
     2     1     5    1
     3     1    22    2
     4     2     3   ar
     5     2    16   ar
     6     3     4    1
     7     3    10   ar
     8     4     5    1
     9     4     6    1
    10     6     7    1
    11     7     8   ar
    12     7     9   ar
    13    10    11   ar
    14    11    12    1
    15    11    15   ar
    16    12    13    1
    17    12    21    2
    18    13    14    1
    19    14    15    1
    20    14    17    1
    21    15    16   ar
    22    17    18    1
    23    18    19   ar
    24    18    20   ar
