@<TRIPOS>MOLECULE
24042_ChemDiv_6216-0204
 17 18 0 0 0
SMALL
GASTEIGER
Energy = 0

@<TRIPOS>ATOM
      1 C          -0.2830   -1.9670    0.0000 C.2     1  LIG1        0.3412
      2 O           0.3080   -1.1670    0.0000 O.3     1  LIG1       -0.4441
      3 C          -0.2830   -0.3500    0.0000 C.3     1  LIG1        0.2008
      4 C           0.0210    0.6000    0.0000 C.3     1  LIG1        0.1350
      5 C           1.0000    0.8130    0.0000 C.2     1  LIG1        0.2454
      6 N           1.3130    1.7630    0.0000 N.am    1  LIG1       -0.2071
      7 C           2.2830    1.9790    0.0000 C.3     1  LIG1        0.0954
      8 C           2.5880    2.9290    0.0000 C.3     1  LIG1        0.0234
      9 C           2.9630    1.2500    0.0000 C.3     1  LIG1        0.0234
     10 O           1.6750    0.0710    0.0000 O.2     1  LIG1       -0.2732
     11 C          -1.2330   -0.6630    0.0000 C.ar    1  LIG1        0.0240
     12 C          -1.2330   -1.6630    0.0000 C.ar    1  LIG1        0.0750
     13 C          -2.0960   -2.1630    0.0000 C.ar    1  LIG1        0.0062
     14 C          -2.9670   -1.6630    0.0000 C.ar    1  LIG1        0.0002
     15 C          -2.9670   -0.6630    0.0000 C.ar    1  LIG1       -0.0002
     16 C          -2.0960   -0.1630    0.0000 C.ar    1  LIG1       -0.0006
     17 O           0.0210   -2.9250    0.0000 O.2     1  LIG1       -0.2449
@<TRIPOS>BOND
     1     1     2    1
     2     1    12    1
     3     1    17    2
     4     2     3    1
     5     3     4    1
     6     3    11    1
     7     4     5    1
     8     5     6   am
     9     5    10    2
    10     6     7    1
    11     7     8    1
    12     7     9    1
    13    11    12   ar
    14    11    16   ar
    15    12    13   ar
    16    13    14   ar
    17    14    15   ar
    18    15    16   ar
