@<TRIPOS>MOLECULE
24044_ChemDiv_000A-0702
 20 22 0 0 0
SMALL
GASTEIGER
Energy = 0

@<TRIPOS>ATOM
      1 C           0.4170    0.3040    0.0000 C.ar    1  LIG1        0.1677
      2 N           1.3710   -0.0210    0.0000 N.ar    1  LIG1       -0.2124
      3 N           1.9500    0.8000    0.0000 N.ar    1  LIG1       -0.1681
      4 C           1.3710    1.5960    0.0000 C.ar    1  LIG1        0.0820
      5 C           0.4170    1.2960    0.0000 C.ar    1  LIG1        0.0471
      6 C          -0.4580    1.7880    0.0000 C.ar    1  LIG1       -0.0170
      7 C          -1.3250    1.2960    0.0000 C.ar    1  LIG1        0.0319
      8 C          -1.3250    0.3040    0.0000 C.ar    1  LIG1        0.2762
      9 N          -0.4580   -0.2040    0.0000 N.ar    1  LIG1       -0.1890
     10 O          -2.2080   -0.1920    0.0000 O.3     1  LIG1       -0.2655
     11 C          -2.2080    1.7670    0.0000 C.3     1  LIG1        0.0309
     12 C          -3.0630    1.2420    0.0000 C.3     1  LIG1        0.0052
     13 C          -0.4580    2.7960    0.0000 C.3     1  LIG1        0.0310
     14 C           1.6710    2.5540    0.0000 C.3     1  LIG1        0.0540
     15 C           1.7040   -0.9420    0.0000 C.ar    1  LIG1        0.0844
     16 C           2.6960   -1.0920    0.0000 C.ar    1  LIG1        0.0192
     17 C           3.0580   -2.0250    0.0000 C.ar    1  LIG1        0.0015
     18 C           2.4250   -2.7920    0.0000 C.ar    1  LIG1        0.0001
     19 C           1.4380   -2.6460    0.0000 C.ar    1  LIG1        0.0015
     20 C           1.0750   -1.7080    0.0000 C.ar    1  LIG1        0.0192
@<TRIPOS>BOND
     1     1     2   ar
     2     1     5   ar
     3     1     9   ar
     4     2     3   ar
     5     2    15    1
     6     3     4   ar
     7     4     5   ar
     8     4    14    1
     9     5     6   ar
    10     6     7   ar
    11     6    13    1
    12     7     8   ar
    13     7    11    1
    14     8     9   ar
    15     8    10    1
    16    11    12    1
    17    15    16   ar
    18    15    20   ar
    19    16    17   ar
    20    17    18   ar
    21    18    19   ar
    22    19    20   ar
