@<TRIPOS>MOLECULE
24043_ChemDiv_0685-0195
 23 24 0 0 0
SMALL
GASTEIGER
Energy = 0

@<TRIPOS>ATOM
      1 C          -1.0130    0.5330    0.0000 C.ar    1  LIG1        0.1440
      2 C          -0.9790   -0.4250    0.0000 C.ar    1  LIG1        0.2953
      3 N          -1.9460   -0.7750    0.0000 N.ar    1  LIG1       -0.2134
      4 N          -2.5380    0.0040    0.0000 N.ar    1  LIG1       -0.2646
      5 C          -1.9830    0.8210    0.0000 C.ar    1  LIG1        0.0746
      6 C          -2.3380    1.7790    0.0000 C.3     1  LIG1        0.0532
      7 C          -3.5420   -0.0540    0.0000 C.3     1  LIG1        0.1518
      8 C          -2.2000   -1.7710    0.0000 C.ar    1  LIG1        0.0841
      9 C          -3.1580   -2.0540    0.0000 C.ar    1  LIG1        0.0192
     10 C          -3.4130   -3.0170    0.0000 C.ar    1  LIG1        0.0015
     11 C          -2.6920   -3.6960    0.0000 C.ar    1  LIG1        0.0001
     12 C          -1.7000   -3.3880    0.0000 C.ar    1  LIG1        0.0015
     13 C          -1.4790   -2.4500    0.0000 C.ar    1  LIG1        0.0192
     14 O          -0.1420   -1.0250    0.0000 O.2     1  LIG1       -0.2637
     15 N          -0.2960    1.2170    0.0000 N.am    1  LIG1       -0.1731
     16 C           0.6630    0.9380    0.0000 C.2     1  LIG1        0.2457
     17 O           0.9170   -0.0290    0.0000 O.2     1  LIG1       -0.2730
     18 C           1.3830    1.6250    0.0000 C.3     1  LIG1        0.0876
     19 C           2.3500    1.3460    0.0000 C.3     1  LIG1        0.0155
     20 C           3.0710    2.0290    0.0000 C.3     1  LIG1        0.0422
     21 C           2.8380    2.9830    0.0000 C.2     1  LIG1        0.0503
     22 O           1.8830    3.2750    0.0000 O.co2   1  LIG1       -0.5492
     23 O           3.5380    3.7000    0.0000 O.co2   1  LIG1       -0.5492
@<TRIPOS>BOND
     1     1     2   ar
     2     1     5   ar
     3     1    15    1
     4     2     3   ar
     5     2    14    2
     6     3     4   ar
     7     3     8    1
     8     4     5   ar
     9     4     7    1
    10     5     6    1
    11     8     9   ar
    12     8    13   ar
    13     9    10   ar
    14    10    11   ar
    15    11    12   ar
    16    12    13   ar
    17    15    16   am
    18    16    17    2
    19    16    18    1
    20    18    19    1
    21    19    20    1
    22    20    21    1
    23    21    22   ar
    24    21    23   ar
