@<TRIPOS>MOLECULE
24046_ChemDiv_1496-1038
 23 26 0 0 0
SMALL
GASTEIGER
Energy = 0

@<TRIPOS>ATOM
      1 N           1.1210    0.1790    0.0000 N.ar    1  LIG1       -0.0255
      2 C           0.8210    1.1290    0.0000 C.ar    1  LIG1        0.3475
      3 C          -0.1790    1.1290    0.0000 C.ar    1  LIG1        0.1228
      4 C          -0.4830    0.2080    0.0000 C.ar    1  LIG1        0.2214
      5 N           0.3080   -0.4000    0.0000 N.ar    1  LIG1        0.0298
      6 N          -1.4710    0.0000    0.0000 N.ar    1  LIG1       -0.2906
      7 C          -2.1420    0.7500    0.0000 C.ar    1  LIG1        0.0429
      8 C          -1.8250    1.6920    0.0000 C.ar    1  LIG1        0.0092
      9 C          -0.8420    1.8830    0.0000 C.ar    1  LIG1       -0.0101
     10 C          -0.5290    2.8460    0.0000 C.3     1  LIG1        0.0314
     11 C          -3.1290    0.5460    0.0000 C.3     1  LIG1        0.0504
     12 C          -1.7830   -0.9540    0.0000 C.ar    1  LIG1        0.0652
     13 C          -2.7580   -1.1630    0.0000 C.ar    1  LIG1        0.0176
     14 C          -3.0710   -2.1040    0.0000 C.ar    1  LIG1        0.0015
     15 C          -2.4000   -2.8420    0.0000 C.ar    1  LIG1        0.0001
     16 C          -1.4210   -2.6420    0.0000 C.ar    1  LIG1        0.0015
     17 C          -1.1130   -1.6880    0.0000 C.ar    1  LIG1        0.0176
     18 N           1.4920    1.8750    0.0000 N.ar    1  LIG1       -0.1871
     19 C           2.4710    1.6670    0.0000 C.ar    1  LIG1        0.0709
     20 C           2.7670    0.7040    0.0000 C.ar    1  LIG1        0.0822
     21 C           2.1040   -0.0290    0.0000 C.ar    1  LIG1        0.2380
     22 C           2.4250   -0.9880    0.0000 C.3     1  LIG1        0.1110
     23 C           3.1250    2.4250    0.0000 C.3     1  LIG1        0.0525
@<TRIPOS>BOND
     1     1     2   ar
     2     1     5   ar
     3     1    21   ar
     4     2     3   ar
     5     2    18   ar
     6     3     4   ar
     7     3     9   ar
     8     4     5   ar
     9     4     6   ar
    10     6     7   ar
    11     6    12    1
    12     7     8   ar
    13     7    11    1
    14     8     9   ar
    15     9    10    1
    16    12    13   ar
    17    12    17   ar
    18    13    14   ar
    19    14    15   ar
    20    15    16   ar
    21    16    17   ar
    22    18    19   ar
    23    19    20   ar
    24    19    23    1
    25    20    21   ar
    26    21    22    1
