@<TRIPOS>MOLECULE
24051_ChemDiv_C361-2540
 35 38 0 0 0
SMALL
GASTEIGER
Energy = 0

@<TRIPOS>ATOM
      1 S          -2.0880   -4.2580    0.0000 S.O2    1  LIG1        0.0648
      2 C          -2.0880   -5.2500    0.0000 C.ar    1  LIG1        0.1419
      3 C          -1.2210   -5.7500    0.0000 C.ar    1  LIG1        0.1273
      4 N          -0.2790   -5.4380    0.0000 N.ar    1  LIG1       -0.1888
      5 S           0.3080   -6.2460    0.0000 S.2     1  LIG1        0.1165
      6 N          -0.2790   -7.0580    0.0000 N.ar    1  LIG1       -0.1901
      7 C          -1.2210   -6.7500    0.0000 C.ar    1  LIG1        0.1102
      8 C          -2.0880   -7.2460    0.0000 C.ar    1  LIG1        0.0214
      9 C          -2.9540   -6.7500    0.0000 C.ar    1  LIG1        0.0030
     10 C          -2.9540   -5.7500    0.0000 C.ar    1  LIG1        0.0216
     11 N          -2.0880   -3.2580    0.0000 N.3     1  LIG1       -0.1555
     12 C          -1.2210   -2.7540    0.0000 C.3     1  LIG1        0.0963
     13 C          -1.2210   -1.7630    0.0000 C.3     1  LIG1        0.0283
     14 C          -2.0880   -1.2580    0.0000 C.3     1  LIG1        0.0811
     15 C          -2.0880   -0.2580    0.0000 C.2     1  LIG1        0.2410
     16 O          -2.9540    0.2380    0.0000 O.2     1  LIG1       -0.2734
     17 N          -1.2210    0.2380    0.0000 N.am    1  LIG1       -0.2051
     18 C          -1.2290    1.2290    0.0000 C.3     1  LIG1        0.1198
     19 C          -0.3630    1.7420    0.0000 C.3     1  LIG1        0.0499
     20 C          -0.3710    2.7420    0.0000 C.ar    1  LIG1       -0.0172
     21 C           0.4880    3.2460    0.0000 C.ar    1  LIG1        0.0358
     22 C           0.4790    4.2420    0.0000 C.ar    1  LIG1        0.1719
     23 C          -0.4040    4.7380    0.0000 C.ar    1  LIG1        0.1722
     24 C          -1.2630    4.2250    0.0000 C.ar    1  LIG1        0.0397
     25 C          -1.2460    3.2290    0.0000 C.ar    1  LIG1       -0.0009
     26 O          -0.4130    5.7330    0.0000 O.3     1  LIG1       -0.4724
     27 C           0.4580    6.2460    0.0000 C.3     1  LIG1        0.2057
     28 C           0.4420    7.2460    0.0000 C.3     1  LIG1        0.0512
     29 O           1.3420    4.7540    0.0000 O.3     1  LIG1       -0.4724
     30 C           2.2080    4.2580    0.0000 C.3     1  LIG1        0.2057
     31 C           3.0830    4.7710    0.0000 C.3     1  LIG1        0.0512
     32 C          -2.9540   -1.7630    0.0000 C.3     1  LIG1        0.0283
     33 C          -2.9540   -2.7540    0.0000 C.3     1  LIG1        0.0963
     34 O          -3.0880   -4.2580    0.0000 O.2     1  LIG1       -0.1527
     35 O          -1.0880   -4.2580    0.0000 O.2     1  LIG1       -0.1527
@<TRIPOS>BOND
     1     1     2    1
     2     1    11    1
     3     1    34    2
     4     1    35    2
     5     2     3   ar
     6     2    10   ar
     7     3     4   ar
     8     3     7   ar
     9     4     5   ar
    10     5     6   ar
    11     6     7   ar
    12     7     8   ar
    13     8     9   ar
    14     9    10   ar
    15    11    12    1
    16    11    33    1
    17    12    13    1
    18    13    14    1
    19    14    15    1
    20    14    32    1
    21    15    16    2
    22    15    17   am
    23    17    18    1
    24    18    19    1
    25    19    20    1
    26    20    21   ar
    27    20    25   ar
    28    21    22   ar
    29    22    23   ar
    30    22    29    1
    31    23    24   ar
    32    23    26    1
    33    24    25   ar
    34    26    27    1
    35    27    28    1
    36    29    30    1
    37    30    31    1
    38    32    33    1
