@<TRIPOS>MOLECULE
24054_ChemDiv_4104-0013
 38 43 0 0 0
SMALL
GASTEIGER
Energy = 0

@<TRIPOS>ATOM
      1 C          -2.3790   -0.5170    0.0000 C.3     1  LIG1        0.0705
      2 C          -1.5630   -0.5170    0.0000 C.2     1  LIG1        0.2409
      3 N          -1.0670   -1.3580    0.0000 N.am    1  LIG1       -0.1954
      4 C          -0.0540   -1.3580    0.0000 C.3     1  LIG1        0.1978
      5 C           0.4380   -0.5170    0.0000 C.2     1  LIG1        0.3378
      6 O           1.4130   -0.5170    0.0000 O.3     1  LIG1       -0.4387
      7 C           1.9290    0.3420    0.0000 C.3     1  LIG1        0.2766
      8 C           2.9000    0.3420    0.0000 C.2     1  LIG1        0.2170
      9 C           3.4380    1.2330    0.0000 C.ar    1  LIG1        0.0387
     10 C           2.9330    2.0880    0.0000 C.ar    1  LIG1        0.0061
     11 C           3.4380    2.9500    0.0000 C.ar    1  LIG1        0.0370
     12 C           4.4210    2.9500    0.0000 C.ar    1  LIG1        0.1387
     13 C           4.8830    2.0880    0.0000 C.ar    1  LIG1        0.0370
     14 C           4.4000    1.2330    0.0000 C.ar    1  LIG1        0.0061
     15 O           4.9170    3.7920    0.0000 O.3     1  LIG1       -0.4714
     16 C           4.4500    4.6630    0.0000 C.3     1  LIG1        0.2525
     17 O           3.4380   -0.5250    0.0000 O.2     1  LIG1       -0.2874
     18 O          -0.0790    0.3670    0.0000 O.2     1  LIG1       -0.2482
     19 C           0.4380   -2.2420    0.0000 C.3     1  LIG1        0.0611
     20 C          -0.0790   -3.0830    0.0000 C.ar    1  LIG1        0.0007
     21 C           0.3130   -3.9960    0.0000 C.ar    1  LIG1        0.0946
     22 N          -0.4920   -4.6630    0.0000 N.ar    1  LIG1       -0.2442
     23 C          -1.3000   -4.0580    0.0000 C.ar    1  LIG1        0.0810
     24 C          -1.0670   -3.1040    0.0000 C.ar    1  LIG1        0.0152
     25 C          -1.7830   -2.3790    0.0000 C.ar    1  LIG1        0.0012
     26 C          -2.8080   -2.6500    0.0000 C.ar    1  LIG1        0.0001
     27 C          -3.0710   -3.5880    0.0000 C.ar    1  LIG1        0.0015
     28 C          -2.3210   -4.3630    0.0000 C.ar    1  LIG1        0.0191
     29 O          -1.0670    0.3670    0.0000 O.2     1  LIG1       -0.2734
     30 C          -2.3790    0.3790    0.0000 C.3     1  LIG1        0.0087
     31 C          -3.2000    0.8630    0.0000 C.3     1  LIG1        0.0005
     32 C          -4.2330    0.4670    0.0000 C.3     1  LIG1        0.0000
     33 C          -4.2330   -0.5170    0.0000 C.3     1  LIG1        0.0005
     34 C          -3.2000   -0.8710    0.0000 C.3     1  LIG1        0.0087
     35 C          -4.9210   -1.3000    0.0000 C.3     1  LIG1        0.0000
     36 C          -3.9380   -0.9290    0.0000 C.3     1  LIG1        0.0005
     37 C          -3.0750   -1.3000    0.0000 C.3     1  LIG1        0.0087
     38 C          -3.9380    0.1210    0.0000 C.3     1  LIG1        0.0000
@<TRIPOS>BOND
     1     1     2    1
     2     1    30    1
     3     1    34    1
     4     1    37    1
     5     2     3   am
     6     2    29    2
     7     3     4    1
     8     4     5    1
     9     4    19    1
    10     5     6    1
    11     5    18    2
    12     6     7    1
    13     7     8    1
    14     8     9    1
    15     8    17    2
    16     9    10   ar
    17     9    14   ar
    18    10    11   ar
    19    11    12   ar
    20    12    13   ar
    21    12    15    1
    22    13    14   ar
    23    15    16    1
    24    19    20    1
    25    20    21   ar
    26    20    24   ar
    27    21    22   ar
    28    22    23   ar
    29    23    24   ar
    30    23    28   ar
    31    24    25   ar
    32    25    26   ar
    33    26    27   ar
    34    27    28   ar
    35    30    31    1
    36    31    32    1
    37    31    38    1
    38    32    33    1
    39    33    34    1
    40    33    35    1
    41    35    36    1
    42    36    37    1
    43    36    38    1
