@<TRIPOS>MOLECULE
24053_ChemDiv_C361-2557
 31 33 0 0 0
SMALL
GASTEIGER
Energy = 0

@<TRIPOS>ATOM
      1 S          -2.1000   -3.4920    0.0000 S.O2    1  LIG1        0.0648
      2 C          -2.1000   -4.4920    0.0000 C.ar    1  LIG1        0.1419
      3 C          -1.2380   -4.9920    0.0000 C.ar    1  LIG1        0.1273
      4 N          -0.2830   -4.6830    0.0000 N.ar    1  LIG1       -0.1888
      5 S           0.3040   -5.4880    0.0000 S.2     1  LIG1        0.1165
      6 N          -0.2830   -6.3000    0.0000 N.ar    1  LIG1       -0.1901
      7 C          -1.2380   -5.9960    0.0000 C.ar    1  LIG1        0.1102
      8 C          -2.1000   -6.4920    0.0000 C.ar    1  LIG1        0.0214
      9 C          -2.9710   -5.9960    0.0000 C.ar    1  LIG1        0.0030
     10 C          -2.9710   -4.9920    0.0000 C.ar    1  LIG1        0.0216
     11 N          -2.1000   -2.4880    0.0000 N.3     1  LIG1       -0.1555
     12 C          -2.9710   -1.9880    0.0000 C.3     1  LIG1        0.0963
     13 C          -2.9710   -0.9920    0.0000 C.3     1  LIG1        0.0283
     14 C          -2.1000   -0.4880    0.0000 C.3     1  LIG1        0.0811
     15 C          -2.1000    0.5170    0.0000 C.2     1  LIG1        0.2410
     16 O          -2.9710    1.0130    0.0000 O.2     1  LIG1       -0.2734
     17 N          -1.2380    1.0130    0.0000 N.am    1  LIG1       -0.2052
     18 C          -1.2380    2.0000    0.0000 C.3     1  LIG1        0.1213
     19 C          -0.3750    2.5080    0.0000 C.3     1  LIG1        0.0861
     20 C          -0.3670    3.5040    0.0000 C.3     1  LIG1        0.1404
     21 N           0.4960    4.0000    0.0000 N.4     1  LIG1        0.3773
     22 C           1.3670    3.5040    0.0000 C.3     1  LIG1        0.1385
     23 C           2.2290    4.0000    0.0000 C.3     1  LIG1        0.0627
     24 C           3.1000    3.5040    0.0000 C.3     1  LIG1        0.0063
     25 C           0.5040    4.9920    0.0000 C.3     1  LIG1        0.1385
     26 C          -0.3580    5.4880    0.0000 C.3     1  LIG1        0.0627
     27 C          -0.3580    6.4920    0.0000 C.3     1  LIG1        0.0063
     28 C          -1.2380   -0.9920    0.0000 C.3     1  LIG1        0.0283
     29 C          -1.2380   -1.9880    0.0000 C.3     1  LIG1        0.0963
     30 O          -3.1040   -3.4920    0.0000 O.2     1  LIG1       -0.1527
     31 O          -1.0960   -3.4920    0.0000 O.2     1  LIG1       -0.1527
@<TRIPOS>BOND
     1     1     2    1
     2     1    11    1
     3     1    30    2
     4     1    31    2
     5     2     3   ar
     6     2    10   ar
     7     3     4   ar
     8     3     7   ar
     9     4     5   ar
    10     5     6   ar
    11     6     7   ar
    12     7     8   ar
    13     8     9   ar
    14     9    10   ar
    15    11    12    1
    16    11    29    1
    17    12    13    1
    18    13    14    1
    19    14    15    1
    20    14    28    1
    21    15    16    2
    22    15    17   am
    23    17    18    1
    24    18    19    1
    25    19    20    1
    26    20    21    1
    27    21    22    1
    28    21    25    1
    29    22    23    1
    30    23    24    1
    31    25    26    1
    32    26    27    1
    33    28    29    1
