@<TRIPOS>MOLECULE
24055_ChemDiv_C361-2573
 30 33 0 0 0
SMALL
GASTEIGER
Energy = 0

@<TRIPOS>ATOM
      1 S          -1.2420   -1.2500    0.0000 S.O2    1  LIG1        0.0648
      2 C          -1.2420   -2.2500    0.0000 C.ar    1  LIG1        0.1419
      3 C          -0.3750   -2.7500    0.0000 C.ar    1  LIG1        0.1273
      4 N           0.5790   -2.4420    0.0000 N.ar    1  LIG1       -0.1888
      5 S           1.1630   -3.2500    0.0000 S.2     1  LIG1        0.1165
      6 N           0.5790   -4.0630    0.0000 N.ar    1  LIG1       -0.1901
      7 C          -0.3750   -3.7500    0.0000 C.ar    1  LIG1        0.1102
      8 C          -1.2420   -4.2500    0.0000 C.ar    1  LIG1        0.0214
      9 C          -2.1040   -3.7500    0.0000 C.ar    1  LIG1        0.0030
     10 C          -2.1040   -2.7500    0.0000 C.ar    1  LIG1        0.0216
     11 N          -1.2420   -0.2500    0.0000 N.3     1  LIG1       -0.1555
     12 C          -0.3750    0.2540    0.0000 C.3     1  LIG1        0.0963
     13 C          -0.3750    1.2460    0.0000 C.3     1  LIG1        0.0283
     14 C          -1.2420    1.7460    0.0000 C.3     1  LIG1        0.0799
     15 C          -1.2420    2.7540    0.0000 C.2     1  LIG1        0.2290
     16 N          -0.3750    3.2540    0.0000 N.am    1  LIG1       -0.2572
     17 C           0.4960    2.7580    0.0000 C.ar    1  LIG1        0.0496
     18 C           1.3630    3.2630    0.0000 C.ar    1  LIG1       -0.0082
     19 C           2.2380    2.7580    0.0000 C.ar    1  LIG1       -0.0033
     20 C           2.2330    1.7540    0.0000 C.ar    1  LIG1       -0.0045
     21 C           1.3710    1.2580    0.0000 C.ar    1  LIG1       -0.0206
     22 C           0.4960    1.7580    0.0000 C.ar    1  LIG1        0.0103
     23 C           1.3630    0.2540    0.0000 C.3     1  LIG1        0.0311
     24 C           1.3540    4.2500    0.0000 C.3     1  LIG1        0.0323
     25 C          -0.3750    4.2420    0.0000 C.3     1  LIG1        0.1200
     26 O          -2.1040    3.2540    0.0000 O.2     1  LIG1       -0.2745
     27 C          -2.1040    1.2460    0.0000 C.3     1  LIG1        0.0283
     28 C          -2.1040    0.2540    0.0000 C.3     1  LIG1        0.0963
     29 O          -2.2420   -1.2500    0.0000 O.2     1  LIG1       -0.1527
     30 O          -0.2420   -1.2500    0.0000 O.2     1  LIG1       -0.1527
@<TRIPOS>BOND
     1     1     2    1
     2     1    11    1
     3     1    29    2
     4     1    30    2
     5     2     3   ar
     6     2    10   ar
     7     3     4   ar
     8     3     7   ar
     9     4     5   ar
    10     5     6   ar
    11     6     7   ar
    12     7     8   ar
    13     8     9   ar
    14     9    10   ar
    15    11    12    1
    16    11    28    1
    17    12    13    1
    18    13    14    1
    19    14    15    1
    20    14    27    1
    21    15    16   am
    22    15    26    2
    23    16    17    1
    24    16    25    1
    25    17    18   ar
    26    17    22   ar
    27    18    19   ar
    28    18    24    1
    29    19    20   ar
    30    20    21   ar
    31    21    22   ar
    32    21    23    1
    33    27    28    1
