@<TRIPOS>MOLECULE
24068_ChemDiv_5735-0001
 21 24 0 0 0
SMALL
GASTEIGER
Energy = 0

@<TRIPOS>ATOM
      1 C          -0.8580    0.9630    0.0000 C.ar    1  LIG1        0.1648
      2 N          -1.7000    0.4750    0.0000 N.ar    1  LIG1       -0.2125
      3 N          -2.5460    0.9630    0.0000 N.ar    1  LIG1       -0.1681
      4 C          -2.5460    1.9290    0.0000 C.ar    1  LIG1        0.0823
      5 C          -0.8580    1.9290    0.0000 C.ar    1  LIG1        0.0511
      6 C          -0.0040    2.4080    0.0000 C.ar    1  LIG1        0.0058
      7 C           0.8420    1.9290    0.0000 C.ar    1  LIG1        0.0187
      8 C           0.8420    0.9630    0.0000 C.ar    1  LIG1        0.0830
      9 N          -0.0040    0.4750    0.0000 N.ar    1  LIG1       -0.2265
     10 C           1.6960    0.4750    0.0000 C.ar    1  LIG1        0.0200
     11 C           2.5420    0.9630    0.0000 C.ar    1  LIG1        0.0129
     12 C           2.5420    1.9290    0.0000 C.ar    1  LIG1        0.0578
     13 C           1.6960    2.4080    0.0000 C.ar    1  LIG1        0.0129
     14 CL          3.3790    2.3960    0.0000 Cl      1  LIG1       -0.0822
     15 C          -3.3830    2.3960    0.0000 C.3     1  LIG1        0.0540
     16 C          -1.7000   -0.4580    0.0000 C.ar    1  LIG1        0.0844
     17 C          -0.8830   -0.9210    0.0000 C.ar    1  LIG1        0.0192
     18 C          -0.8830   -1.9210    0.0000 C.ar    1  LIG1        0.0015
     19 C          -1.7000   -2.4040    0.0000 C.ar    1  LIG1        0.0001
     20 C          -2.5460   -1.9210    0.0000 C.ar    1  LIG1        0.0015
     21 C          -2.5460   -0.9210    0.0000 C.ar    1  LIG1        0.0192
@<TRIPOS>BOND
     1     1     2   ar
     2     1     5   ar
     3     1     9   ar
     4     2     3   ar
     5     2    16    1
     6     3     4   ar
     7     4     5   ar
     8     4    15    1
     9     5     6   ar
    10     6     7   ar
    11     7     8   ar
    12     7    13   ar
    13     8     9   ar
    14     8    10   ar
    15    10    11   ar
    16    11    12   ar
    17    12    13   ar
    18    12    14    1
    19    16    17   ar
    20    16    21   ar
    21    17    18   ar
    22    18    19   ar
    23    19    20   ar
    24    20    21   ar
