@<TRIPOS>MOLECULE
24060_ChemDiv_8014-1066
 23 25 0 0 0
SMALL
GASTEIGER
Energy = 0

@<TRIPOS>ATOM
      1 N          -2.2130   -0.8630    0.0000 N.ar    1  LIG1       -0.2500
      2 C          -1.4000   -0.3960    0.0000 C.ar    1  LIG1        0.0555
      3 C          -1.4000    0.5290    0.0000 C.ar    1  LIG1       -0.0054
      4 C          -3.0290    0.5290    0.0000 C.ar    1  LIG1        0.0145
      5 C          -3.0290   -0.3960    0.0000 C.ar    1  LIG1        0.0806
      6 C          -3.8460   -0.8630    0.0000 C.ar    1  LIG1        0.0188
      7 C          -4.6580   -0.3960    0.0000 C.ar    1  LIG1       -0.0027
      8 C          -4.6580    0.5290    0.0000 C.ar    1  LIG1       -0.0218
      9 C          -3.8460    0.9920    0.0000 C.ar    1  LIG1       -0.0030
     10 C          -5.5380    1.0170    0.0000 C.3     1  LIG1        0.0310
     11 C          -0.5420    1.0170    0.0000 C.3     1  LIG1        0.0511
     12 C           0.3290    0.5170    0.0000 C.3     1  LIG1        0.1215
     13 N           1.1420    1.0040    0.0000 N.am    1  LIG1       -0.1869
     14 C           2.0460    0.4750    0.0000 C.2     1  LIG1        0.3392
     15 N           2.9460    0.9920    0.0000 N.am    1  LIG1       -0.1890
     16 C           3.7880    0.4750    0.0000 C.3     1  LIG1        0.0969
     17 C           4.6750    0.9630    0.0000 C.3     1  LIG1        0.0217
     18 C           5.5330    0.4580    0.0000 C.3     1  LIG1        0.0018
     19 C           5.5170   -0.5380    0.0000 C.3     1  LIG1        0.0001
     20 C           4.6580   -1.0130    0.0000 C.3     1  LIG1        0.0018
     21 C           3.8040   -0.4790    0.0000 C.3     1  LIG1        0.0217
     22 O           2.0460   -0.5210    0.0000 O.2     1  LIG1       -0.2492
     23 C          -0.5290   -0.8920    0.0000 C.3     1  LIG1        0.0518
@<TRIPOS>BOND
     1     1     2   ar
     2     1     5   ar
     3     2     3   ar
     4     2    23    1
     5     3     4   ar
     6     3    11    1
     7     4     5   ar
     8     4     9   ar
     9     5     6   ar
    10     6     7   ar
    11     7     8   ar
    12     8     9   ar
    13     8    10    1
    14    11    12    1
    15    12    13    1
    16    13    14   am
    17    14    15   am
    18    14    22    2
    19    15    16    1
    20    16    17    1
    21    16    21    1
    22    17    18    1
    23    18    19    1
    24    19    20    1
    25    20    21    1
