@<TRIPOS>MOLECULE
24063_ChemDiv_C481-1131
 27 29 0 0 0
SMALL
GASTEIGER
Energy = 0

@<TRIPOS>ATOM
      1 C          -3.4420   -1.2920    0.0000 C.ar    1  LIG1        0.1432
      2 S          -2.9500   -0.4080    0.0000 S.O2    1  LIG1        0.0784
      3 O          -3.8250    0.0830    0.0000 O.2     1  LIG1       -0.1515
      4 O          -2.0790   -0.9080    0.0000 O.2     1  LIG1       -0.1515
      5 N          -2.4580    0.4670    0.0000 N.3     1  LIG1       -0.0777
      6 C          -1.4580    0.4750    0.0000 C.3     1  LIG1        0.1160
      7 C          -0.9670    1.3380    0.0000 C.3     1  LIG1        0.0304
      8 C           0.0380    1.3380    0.0000 C.3     1  LIG1        0.0884
      9 C           0.5380    2.2000    0.0000 C.2     1  LIG1        0.2417
     10 N           1.5290    2.2000    0.0000 N.am    1  LIG1       -0.2006
     11 C           2.0290    1.3380    0.0000 C.3     1  LIG1        0.1415
     12 C           3.0250    1.3380    0.0000 C.ar    1  LIG1       -0.0004
     13 C           3.5250    2.2000    0.0000 C.ar    1  LIG1       -0.0002
     14 C           4.5290    2.2000    0.0000 C.ar    1  LIG1        0.0294
     15 C           5.0290    1.3380    0.0000 C.ar    1  LIG1        0.1401
     16 F           6.0330    1.3380    0.0000 F       1  LIG1       -0.2042
     17 C           4.5290    0.4750    0.0000 C.ar    1  LIG1        0.0294
     18 C           3.5380    0.4750    0.0000 C.ar    1  LIG1       -0.0002
     19 O           0.0380    3.0710    0.0000 O.2     1  LIG1       -0.2733
     20 C          -4.4460   -1.3210    0.0000 C.ar    1  LIG1        0.1274
     21 N          -5.1420   -0.6040    0.0000 N.ar    1  LIG1       -0.1888
     22 S          -6.0330   -1.0380    0.0000 S.2     1  LIG1        0.1165
     23 N          -5.9040   -2.0290    0.0000 N.ar    1  LIG1       -0.1901
     24 C          -4.9130   -2.2040    0.0000 C.ar    1  LIG1        0.1102
     25 C          -4.3790   -3.0670    0.0000 C.ar    1  LIG1        0.0214
     26 C          -3.3880   -3.0250    0.0000 C.ar    1  LIG1        0.0030
     27 C          -2.9170   -2.1290    0.0000 C.ar    1  LIG1        0.0216
@<TRIPOS>BOND
     1     1     2    1
     2     1    20   ar
     3     1    27   ar
     4     2     3    2
     5     2     4    2
     6     2     5    1
     7     5     6    1
     8     6     7    1
     9     7     8    1
    10     8     9    1
    11     9    10   am
    12     9    19    2
    13    10    11    1
    14    11    12    1
    15    12    13   ar
    16    12    18   ar
    17    13    14   ar
    18    14    15   ar
    19    15    16    1
    20    15    17   ar
    21    17    18   ar
    22    20    21   ar
    23    20    24   ar
    24    21    22   ar
    25    22    23   ar
    26    23    24   ar
    27    24    25   ar
    28    25    26   ar
    29    26    27   ar
