@<TRIPOS>MOLECULE
24067_ChemDiv_1786-0219
 27 31 0 0 0
SMALL
GASTEIGER
Energy = 0

@<TRIPOS>ATOM
      1 C           0.4170    0.2500    0.0000 C.ar    1  LIG1        0.1440
      2 C          -0.3750    0.8420    0.0000 C.ar    1  LIG1        0.2953
      3 N          -0.0580    1.7920    0.0000 N.ar    1  LIG1       -0.2134
      4 N           0.9040    1.7960    0.0000 N.ar    1  LIG1       -0.2646
      5 C           1.2290    0.8460    0.0000 C.ar    1  LIG1        0.0746
      6 C           2.1790    0.5500    0.0000 C.3     1  LIG1        0.0532
      7 C           1.4540    2.6290    0.0000 C.3     1  LIG1        0.1518
      8 C          -0.6130    2.6080    0.0000 C.ar    1  LIG1        0.0841
      9 C          -1.6080    2.5330    0.0000 C.ar    1  LIG1        0.0192
     10 C          -2.1830    3.3540    0.0000 C.ar    1  LIG1        0.0015
     11 C          -1.7790    4.2670    0.0000 C.ar    1  LIG1        0.0001
     12 C          -0.7710    4.3420    0.0000 C.ar    1  LIG1        0.0015
     13 C          -0.1960    3.5170    0.0000 C.ar    1  LIG1        0.0192
     14 O          -1.3250    0.5290    0.0000 O.2     1  LIG1       -0.2637
     15 N           0.4130   -0.7420    0.0000 N.am    1  LIG1       -0.1731
     16 C          -0.4790   -1.2080    0.0000 C.2     1  LIG1        0.2448
     17 C          -0.4790   -2.1880    0.0000 C.3     1  LIG1        0.0708
     18 C          -1.4880   -2.6790    0.0000 C.3     1  LIG1        0.0087
     19 C          -1.4880   -3.5670    0.0000 C.3     1  LIG1        0.0005
     20 C          -2.1830   -4.3420    0.0000 C.3     1  LIG1        0.0000
     21 C          -1.3040   -4.0290    0.0000 C.3     1  LIG1        0.0005
     22 C          -1.3040   -3.0130    0.0000 C.3     1  LIG1        0.0087
     23 C          -0.3250   -4.3420    0.0000 C.3     1  LIG1        0.0000
     24 C           0.3580   -3.5670    0.0000 C.3     1  LIG1        0.0005
     25 C           0.3580   -2.7500    0.0000 C.3     1  LIG1        0.0087
     26 C          -0.4790   -3.9250    0.0000 C.3     1  LIG1        0.0000
     27 O          -1.3710   -0.6830    0.0000 O.2     1  LIG1       -0.2730
@<TRIPOS>BOND
     1     1     2   ar
     2     1     5   ar
     3     1    15    1
     4     2     3   ar
     5     2    14    2
     6     3     4   ar
     7     3     8    1
     8     4     5   ar
     9     4     7    1
    10     5     6    1
    11     8     9   ar
    12     8    13   ar
    13     9    10   ar
    14    10    11   ar
    15    11    12   ar
    16    12    13   ar
    17    15    16   am
    18    16    17    1
    19    16    27    2
    20    17    18    1
    21    17    22    1
    22    17    25    1
    23    18    19    1
    24    19    20    1
    25    19    26    1
    26    20    21    1
    27    21    22    1
    28    21    23    1
    29    23    24    1
    30    24    25    1
    31    24    26    1
