@<TRIPOS>MOLECULE
24069_ChemDiv_2974-2091
 29 31 0 0 0
SMALL
GASTEIGER
Energy = 0

@<TRIPOS>ATOM
      1 C          -1.5170    0.0380    0.0000 C.ar    1  LIG1        0.1443
      2 C          -1.4670   -0.9210    0.0000 C.ar    1  LIG1        0.2954
      3 N          -2.4500   -1.2710    0.0000 N.ar    1  LIG1       -0.2134
      4 N          -3.0210   -0.4960    0.0000 N.ar    1  LIG1       -0.2646
      5 C          -2.4750    0.3250    0.0000 C.ar    1  LIG1        0.0746
      6 C          -2.8210    1.2830    0.0000 C.3     1  LIG1        0.0532
      7 C          -4.0330   -0.5540    0.0000 C.3     1  LIG1        0.1518
      8 C          -2.7040   -2.2670    0.0000 C.ar    1  LIG1        0.0841
      9 C          -1.9830   -2.9460    0.0000 C.ar    1  LIG1        0.0192
     10 C          -2.1960   -3.8790    0.0000 C.ar    1  LIG1        0.0015
     11 C          -3.1790   -4.1920    0.0000 C.ar    1  LIG1        0.0001
     12 C          -3.9080   -3.5130    0.0000 C.ar    1  LIG1        0.0015
     13 C          -3.6460   -2.5500    0.0000 C.ar    1  LIG1        0.0192
     14 O          -0.6420   -1.5210    0.0000 O.2     1  LIG1       -0.2637
     15 N          -0.7960    0.7210    0.0000 N.am    1  LIG1       -0.1694
     16 C           0.1710    0.4420    0.0000 C.2     1  LIG1        0.2692
     17 C           0.8960    1.1420    0.0000 C.ar    1  LIG1        0.0565
     18 C           0.6420    2.0960    0.0000 C.ar    1  LIG1        0.0185
     19 C           1.3630    2.7960    0.0000 C.ar    1  LIG1        0.0024
     20 C           2.3500    2.5080    0.0000 C.ar    1  LIG1        0.0140
     21 C           3.0580    3.2080    0.0000 C.2     1  LIG1        0.0729
     22 O           2.8210    4.1920    0.0000 O.co2   1  LIG1       -0.5446
     23 O           4.0290    2.9290    0.0000 O.co2   1  LIG1       -0.5446
     24 C           2.5830    1.5500    0.0000 C.ar    1  LIG1        0.0013
     25 C           1.8630    0.8670    0.0000 C.ar    1  LIG1        0.0046
     26 C          -0.3170    2.3750    0.0000 C.2     1  LIG1        0.0730
     27 O          -1.0290    1.6880    0.0000 O.co2   1  LIG1       -0.5446
     28 O          -0.5630    3.3380    0.0000 O.co2   1  LIG1       -0.5446
     29 O           0.4080   -0.5250    0.0000 O.2     1  LIG1       -0.2680
@<TRIPOS>BOND
     1     1     2   ar
     2     1     5   ar
     3     1    15    1
     4     2     3   ar
     5     2    14    2
     6     3     4   ar
     7     3     8    1
     8     4     5   ar
     9     4     7    1
    10     5     6    1
    11     8     9   ar
    12     8    13   ar
    13     9    10   ar
    14    10    11   ar
    15    11    12   ar
    16    12    13   ar
    17    15    16   am
    18    16    17    1
    19    16    29    2
    20    17    18   ar
    21    17    25   ar
    22    18    19   ar
    23    18    26    1
    24    19    20   ar
    25    20    21    1
    26    20    24   ar
    27    21    22   ar
    28    21    23   ar
    29    24    25   ar
    30    26    27   ar
    31    26    28   ar
