@<TRIPOS>MOLECULE
24066_ChemDiv_5015-0016
 23 26 0 0 0
SMALL
GASTEIGER
Energy = 0

@<TRIPOS>ATOM
      1 C          -1.7750    0.5290    0.0000 C.ar    1  LIG1        0.1648
      2 N          -2.7040    0.1750    0.0000 N.ar    1  LIG1       -0.2125
      3 N          -3.3250    0.9540    0.0000 N.ar    1  LIG1       -0.1681
      4 C          -2.7790    1.7880    0.0000 C.ar    1  LIG1        0.0823
      5 C          -1.8080    1.5250    0.0000 C.ar    1  LIG1        0.0511
      6 C          -0.9710    2.0710    0.0000 C.ar    1  LIG1        0.0059
      7 C          -0.0920    1.6080    0.0000 C.ar    1  LIG1        0.0209
      8 C          -0.0330    0.6170    0.0000 C.ar    1  LIG1        0.0831
      9 N          -0.8830    0.0710    0.0000 N.ar    1  LIG1       -0.2265
     10 C           0.8500    0.1500    0.0000 C.ar    1  LIG1        0.0223
     11 C           1.6830    0.6960    0.0000 C.ar    1  LIG1        0.0384
     12 C           1.6380    1.7080    0.0000 C.ar    1  LIG1        0.1386
     13 C           0.7380    2.1540    0.0000 C.ar    1  LIG1        0.0384
     14 O           2.4710    2.2540    0.0000 O.3     1  LIG1       -0.4755
     15 C           3.3630    1.7880    0.0000 C.3     1  LIG1        0.2055
     16 C           4.1960    2.3330    0.0000 C.3     1  LIG1        0.0512
     17 C          -3.1290    2.7250    0.0000 C.3     1  LIG1        0.0540
     18 C          -2.9630   -0.7960    0.0000 C.ar    1  LIG1        0.0844
     19 C          -2.2580   -1.4920    0.0000 C.ar    1  LIG1        0.0192
     20 C          -2.5170   -2.4580    0.0000 C.ar    1  LIG1        0.0015
     21 C          -3.4920   -2.7210    0.0000 C.ar    1  LIG1        0.0001
     22 C          -4.2000   -2.0080    0.0000 C.ar    1  LIG1        0.0015
     23 C          -3.9330   -1.0460    0.0000 C.ar    1  LIG1        0.0192
@<TRIPOS>BOND
     1     1     2   ar
     2     1     5   ar
     3     1     9   ar
     4     2     3   ar
     5     2    18    1
     6     3     4   ar
     7     4     5   ar
     8     4    17    1
     9     5     6   ar
    10     6     7   ar
    11     7     8   ar
    12     7    13   ar
    13     8     9   ar
    14     8    10   ar
    15    10    11   ar
    16    11    12   ar
    17    12    13   ar
    18    12    14    1
    19    14    15    1
    20    15    16    1
    21    18    19   ar
    22    18    23   ar
    23    19    20   ar
    24    20    21   ar
    25    21    22   ar
    26    22    23   ar
