@<TRIPOS>MOLECULE
24073_ChemDiv_4048-1513
 25 27 0 0 0
SMALL
GASTEIGER
Energy = 0

@<TRIPOS>ATOM
      1 C           1.0210    0.9290    0.0000 C.ar    1  LIG1        0.1456
      2 C           1.3460   -0.0170    0.0000 C.ar    1  LIG1        0.2954
      3 N           2.3500    0.0000    0.0000 N.ar    1  LIG1       -0.2134
      4 N           2.6500    0.9460    0.0000 N.ar    1  LIG1       -0.2646
      5 C           1.8290    1.5250    0.0000 C.ar    1  LIG1        0.0746
      6 C           1.8080    2.5290    0.0000 C.3     1  LIG1        0.0532
      7 C           3.6000    1.2710    0.0000 C.3     1  LIG1        0.1518
      8 C           2.9500   -0.7960    0.0000 C.ar    1  LIG1        0.0841
      9 C           3.9420   -0.6830    0.0000 C.ar    1  LIG1        0.0192
     10 C           4.5500   -1.4830    0.0000 C.ar    1  LIG1        0.0015
     11 C           4.1540   -2.4000    0.0000 C.ar    1  LIG1        0.0001
     12 C           3.1580   -2.5250    0.0000 C.ar    1  LIG1        0.0015
     13 C           2.5580   -1.7170    0.0000 C.ar    1  LIG1        0.0192
     14 O           0.7710   -0.8290    0.0000 O.2     1  LIG1       -0.2637
     15 N           0.0670    1.2210    0.0000 N.am    1  LIG1       -0.1546
     16 C          -0.6630    0.5420    0.0000 C.2     1  LIG1        0.3479
     17 N          -1.6210    0.8380    0.0000 N.am    1  LIG1       -0.1607
     18 C          -2.3500    0.1580    0.0000 C.ar    1  LIG1        0.0750
     19 C          -3.3080    0.4500    0.0000 C.ar    1  LIG1        0.0175
     20 C          -4.0330   -0.2170    0.0000 C.ar    1  LIG1        0.0127
     21 C          -3.8170   -1.2000    0.0000 C.ar    1  LIG1        0.0578
     22 CL         -4.5540   -1.8830    0.0000 Cl      1  LIG1       -0.0822
     23 C          -2.8630   -1.4920    0.0000 C.ar    1  LIG1        0.0127
     24 C          -2.1250   -0.8130    0.0000 C.ar    1  LIG1        0.0175
     25 O          -0.4380   -0.4290    0.0000 O.2     1  LIG1       -0.2484
@<TRIPOS>BOND
     1     1     2   ar
     2     1     5   ar
     3     1    15    1
     4     2     3   ar
     5     2    14    2
     6     3     4   ar
     7     3     8    1
     8     4     5   ar
     9     4     7    1
    10     5     6    1
    11     8     9   ar
    12     8    13   ar
    13     9    10   ar
    14    10    11   ar
    15    11    12   ar
    16    12    13   ar
    17    15    16   am
    18    16    17   am
    19    16    25    2
    20    17    18    1
    21    18    19   ar
    22    18    24   ar
    23    19    20   ar
    24    20    21   ar
    25    21    22    1
    26    21    23   ar
    27    23    24   ar
