@<TRIPOS>MOLECULE
24079_ChemDiv_8012-3035
 34 36 0 0 0
SMALL
GASTEIGER
Energy = 0

@<TRIPOS>ATOM
      1 C           3.3580   -1.9210    0.0000 C.ar    1  LIG1        0.1440
      2 C           3.3580   -0.9290    0.0000 C.ar    1  LIG1        0.2953
      3 N           4.2330   -0.4630    0.0000 N.ar    1  LIG1       -0.2134
      4 N           5.0710   -0.9290    0.0000 N.ar    1  LIG1       -0.2646
      5 C           5.0710   -1.9210    0.0000 C.ar    1  LIG1        0.0746
      6 C           5.9210   -2.4170    0.0000 C.3     1  LIG1        0.0532
      7 C           5.9040   -0.4080    0.0000 C.3     1  LIG1        0.1518
      8 C           4.2330    0.4830    0.0000 C.ar    1  LIG1        0.0841
      9 C           5.0710    0.9540    0.0000 C.ar    1  LIG1        0.0192
     10 C           5.0710    1.9540    0.0000 C.ar    1  LIG1        0.0015
     11 C           4.2330    2.4210    0.0000 C.ar    1  LIG1        0.0001
     12 C           3.3830    1.9540    0.0000 C.ar    1  LIG1        0.0015
     13 C           3.3830    0.9540    0.0000 C.ar    1  LIG1        0.0192
     14 O           2.4960   -0.4250    0.0000 O.2     1  LIG1       -0.2637
     15 N           2.5880   -2.3880    0.0000 N.am    1  LIG1       -0.1724
     16 C           1.7380   -1.8750    0.0000 C.2     1  LIG1        0.2567
     17 O           1.7380   -0.9040    0.0000 O.2     1  LIG1       -0.2720
     18 C           0.8880   -2.3880    0.0000 C.3     1  LIG1        0.1450
     19 S           0.0420   -1.8750    0.0000 S.3     1  LIG1       -0.1208
     20 C          -0.8040   -2.3630    0.0000 C.3     1  LIG1        0.1450
     21 C          -1.6580   -1.8540    0.0000 C.2     1  LIG1        0.2566
     22 N          -2.5000   -2.3630    0.0000 N.am    1  LIG1       -0.1785
     23 C          -3.4080   -1.8540    0.0000 C.ar    1  LIG1        0.0736
     24 C          -4.2460   -2.3420    0.0000 C.ar    1  LIG1        0.0197
     25 C          -5.0790   -1.8540    0.0000 C.ar    1  LIG1        0.0382
     26 C          -5.0790   -0.8880    0.0000 C.ar    1  LIG1        0.1386
     27 C          -4.2460   -0.3880    0.0000 C.ar    1  LIG1        0.0382
     28 C          -3.4080   -0.8880    0.0000 C.ar    1  LIG1        0.0197
     29 O          -5.9250   -0.4080    0.0000 O.3     1  LIG1       -0.4755
     30 C          -5.9250    0.5580    0.0000 C.3     1  LIG1        0.2054
     31 C          -5.0790    1.0750    0.0000 C.3     1  LIG1        0.0473
     32 C          -4.2250    0.5830    0.0000 C.3     1  LIG1        0.0038
     33 C          -3.3000    1.0750    0.0000 C.3     1  LIG1        0.0001
     34 O          -1.6580   -0.8880    0.0000 O.2     1  LIG1       -0.2720
@<TRIPOS>BOND
     1     1     2   ar
     2     1     5   ar
     3     1    15    1
     4     2     3   ar
     5     2    14    2
     6     3     4   ar
     7     3     8    1
     8     4     5   ar
     9     4     7    1
    10     5     6    1
    11     8     9   ar
    12     8    13   ar
    13     9    10   ar
    14    10    11   ar
    15    11    12   ar
    16    12    13   ar
    17    15    16   am
    18    16    17    2
    19    16    18    1
    20    18    19    1
    21    19    20    1
    22    20    21    1
    23    21    22   am
    24    21    34    2
    25    22    23    1
    26    23    24   ar
    27    23    28   ar
    28    24    25   ar
    29    25    26   ar
    30    26    27   ar
    31    26    29    1
    32    27    28   ar
    33    29    30    1
    34    30    31    1
    35    31    32    1
    36    32    33    1
