@<TRIPOS>MOLECULE
24076_ChemDiv_C430-0532
 24 26 0 0 0
SMALL
GASTEIGER
Energy = 0

@<TRIPOS>ATOM
      1 C          -1.3210    0.7960    0.0000 C.ar    1  LIG1        0.1641
      2 N          -2.2710    0.4960    0.0000 N.ar    1  LIG1       -0.2125
      3 N          -2.8630    1.2960    0.0000 N.ar    1  LIG1       -0.1681
      4 C          -2.2710    2.1040    0.0000 C.ar    1  LIG1        0.0820
      5 C          -1.3210    1.7960    0.0000 C.ar    1  LIG1        0.0468
      6 C          -0.4580    2.3040    0.0000 C.ar    1  LIG1       -0.0205
      7 C           0.4080    1.8040    0.0000 C.ar    1  LIG1       -0.0120
      8 C           0.4080    0.7960    0.0000 C.ar    1  LIG1        0.0568
      9 N          -0.4580    0.2960    0.0000 N.ar    1  LIG1       -0.2312
     10 C           1.2750    0.2960    0.0000 C.3     1  LIG1        0.0518
     11 C           1.2750    2.3130    0.0000 C.3     1  LIG1        0.0331
     12 C           2.1380    1.8130    0.0000 C.3     1  LIG1        0.0464
     13 C           3.0000    2.3130    0.0000 C.2     1  LIG1        0.0507
     14 O           3.0000    3.3130    0.0000 O.co2   1  LIG1       -0.5492
     15 O           3.8750    1.8170    0.0000 O.co2   1  LIG1       -0.5492
     16 C          -0.4710    3.3040    0.0000 C.3     1  LIG1        0.0309
     17 C          -2.5790    3.0580    0.0000 C.3     1  LIG1        0.0540
     18 C          -2.5790   -0.4580    0.0000 C.ar    1  LIG1        0.0844
     19 C          -1.9130   -1.1960    0.0000 C.ar    1  LIG1        0.0189
     20 C          -2.2250   -2.1420    0.0000 C.ar    1  LIG1       -0.0027
     21 C          -3.2000   -2.3540    0.0000 C.ar    1  LIG1       -0.0218
     22 C          -3.8790   -1.6130    0.0000 C.ar    1  LIG1       -0.0027
     23 C          -3.5580   -0.6670    0.0000 C.ar    1  LIG1        0.0189
     24 C          -3.5130   -3.3080    0.0000 C.3     1  LIG1        0.0310
@<TRIPOS>BOND
     1     1     2   ar
     2     1     5   ar
     3     1     9   ar
     4     2     3   ar
     5     2    18    1
     6     3     4   ar
     7     4     5   ar
     8     4    17    1
     9     5     6   ar
    10     6     7   ar
    11     6    16    1
    12     7     8   ar
    13     7    11    1
    14     8     9   ar
    15     8    10    1
    16    11    12    1
    17    12    13    1
    18    13    14   ar
    19    13    15   ar
    20    18    19   ar
    21    18    23   ar
    22    19    20   ar
    23    20    21   ar
    24    21    22   ar
    25    21    24    1
    26    22    23   ar
