@<TRIPOS>MOLECULE
24078_ChemDiv_C430-0575
 27 29 0 0 0
SMALL
GASTEIGER
Energy = 0

@<TRIPOS>ATOM
      1 C          -1.7040    0.8000    0.0000 C.ar    1  LIG1        0.1641
      2 N          -2.6540    0.4920    0.0000 N.ar    1  LIG1       -0.2125
      3 N          -3.2420    1.2960    0.0000 N.ar    1  LIG1       -0.1681
      4 C          -2.6540    2.1080    0.0000 C.ar    1  LIG1        0.0820
      5 C          -1.7040    1.8040    0.0000 C.ar    1  LIG1        0.0468
      6 C          -0.8460    2.3040    0.0000 C.ar    1  LIG1       -0.0205
      7 C           0.0290    1.8040    0.0000 C.ar    1  LIG1       -0.0118
      8 C           0.0290    0.8000    0.0000 C.ar    1  LIG1        0.0568
      9 N          -0.8460    0.2960    0.0000 N.ar    1  LIG1       -0.2312
     10 C           0.9000    0.2960    0.0000 C.3     1  LIG1        0.0518
     11 C           0.8920    2.3080    0.0000 C.3     1  LIG1        0.0389
     12 C           1.7580    1.8080    0.0000 C.3     1  LIG1        0.1143
     13 C           2.6210    2.3170    0.0000 C.2     1  LIG1        0.3173
     14 O           2.6210    3.3130    0.0000 O.2     1  LIG1       -0.2501
     15 O           3.4960    1.8210    0.0000 O.3     1  LIG1       -0.4485
     16 C           4.3460    2.3210    0.0000 C.3     1  LIG1        0.2086
     17 C           5.2210    1.8330    0.0000 C.3     1  LIG1        0.0513
     18 C          -0.8460    3.3040    0.0000 C.3     1  LIG1        0.0309
     19 C          -2.9630    3.0630    0.0000 C.3     1  LIG1        0.0540
     20 C          -2.9630   -0.4580    0.0000 C.ar    1  LIG1        0.0841
     21 C          -3.9420   -0.6630    0.0000 C.ar    1  LIG1        0.0146
     22 C          -4.2420   -1.6130    0.0000 C.ar    1  LIG1       -0.0243
     23 C          -3.5790   -2.3540    0.0000 C.ar    1  LIG1       -0.0257
     24 C          -2.6000   -2.1420    0.0000 C.ar    1  LIG1       -0.0030
     25 C          -2.2920   -1.1920    0.0000 C.ar    1  LIG1        0.0189
     26 C          -3.8920   -3.3080    0.0000 C.3     1  LIG1        0.0307
     27 C          -5.2250   -1.8250    0.0000 C.3     1  LIG1        0.0307
@<TRIPOS>BOND
     1     1     2   ar
     2     1     5   ar
     3     1     9   ar
     4     2     3   ar
     5     2    20    1
     6     3     4   ar
     7     4     5   ar
     8     4    19    1
     9     5     6   ar
    10     6     7   ar
    11     6    18    1
    12     7     8   ar
    13     7    11    1
    14     8     9   ar
    15     8    10    1
    16    11    12    1
    17    12    13    1
    18    13    14    2
    19    13    15    1
    20    15    16    1
    21    16    17    1
    22    20    21   ar
    23    20    25   ar
    24    21    22   ar
    25    22    23   ar
    26    22    27    1
    27    23    24   ar
    28    23    26    1
    29    24    25   ar
