@<TRIPOS>MOLECULE
24071_ChemDiv_3043-0001
 28 31 0 0 0
SMALL
GASTEIGER
Energy = 0

@<TRIPOS>ATOM
      1 C           0.8420    0.2250    0.0000 C.ar    1  LIG1        0.1319
      2 N          -0.1380   -0.0330    0.0000 N.am    1  LIG1       -0.1952
      3 C          -0.7040   -0.8380    0.0000 C.2     1  LIG1        0.2591
      4 C          -1.6630   -0.5290    0.0000 C.ar    1  LIG1        0.0587
      5 C          -1.6630    0.4710    0.0000 C.ar    1  LIG1        0.0587
      6 C          -0.7040    0.7790    0.0000 C.2     1  LIG1        0.2591
      7 O          -0.3710    1.7380    0.0000 O.2     1  LIG1       -0.2691
      8 C          -2.5290    0.9670    0.0000 C.ar    1  LIG1        0.0047
      9 C          -3.3960    0.4710    0.0000 C.ar    1  LIG1        0.0013
     10 C          -3.3960   -0.5170    0.0000 C.ar    1  LIG1        0.0141
     11 C          -2.5290   -1.0250    0.0000 C.ar    1  LIG1        0.0058
     12 C          -4.2960   -1.0000    0.0000 C.2     1  LIG1        0.0729
     13 O          -4.3250   -2.0040    0.0000 O.co2   1  LIG1       -0.5446
     14 O          -5.1460   -0.4830    0.0000 O.co2   1  LIG1       -0.5446
     15 O          -0.3710   -1.7880    0.0000 O.2     1  LIG1       -0.2691
     16 C           1.5040   -0.5170    0.0000 C.ar    1  LIG1        0.2941
     17 N           2.4130   -0.1130    0.0000 N.ar    1  LIG1       -0.2134
     18 N           2.3080    0.8580    0.0000 N.ar    1  LIG1       -0.2646
     19 C           1.3460    1.0790    0.0000 C.ar    1  LIG1        0.0733
     20 C           0.9630    2.0080    0.0000 C.3     1  LIG1        0.0532
     21 C           3.0670    1.4960    0.0000 C.3     1  LIG1        0.1518
     22 C           3.3250   -0.5290    0.0000 C.ar    1  LIG1        0.0841
     23 C           3.4080   -1.5170    0.0000 C.ar    1  LIG1        0.0192
     24 C           4.3170   -1.9420    0.0000 C.ar    1  LIG1        0.0015
     25 C           5.1420   -1.3710    0.0000 C.ar    1  LIG1        0.0001
     26 C           5.0460   -0.3630    0.0000 C.ar    1  LIG1        0.0015
     27 C           4.1460    0.0540    0.0000 C.ar    1  LIG1        0.0192
     28 O           1.3210   -1.5170    0.0000 O.2     1  LIG1       -0.2638
@<TRIPOS>BOND
     1     1     2    1
     2     1    16   ar
     3     1    19   ar
     4     2     3   am
     5     2     6   am
     6     3     4    1
     7     3    15    2
     8     4     5   ar
     9     4    11   ar
    10     5     6    1
    11     5     8   ar
    12     6     7    2
    13     8     9   ar
    14     9    10   ar
    15    10    11   ar
    16    10    12    1
    17    12    13   ar
    18    12    14   ar
    19    16    17   ar
    20    16    28    2
    21    17    18   ar
    22    17    22    1
    23    18    19   ar
    24    18    21    1
    25    19    20    1
    26    22    23   ar
    27    22    27   ar
    28    23    24   ar
    29    24    25   ar
    30    25    26   ar
    31    26    27   ar
