@<TRIPOS>MOLECULE
24070_ChemDiv_6304-0098
 21 24 0 0 0
SMALL
GASTEIGER
Energy = 0

@<TRIPOS>ATOM
      1 C          -0.8880    0.4210    0.0000 C.ar    1  LIG1        0.1648
      2 N          -1.7040   -0.1630    0.0000 N.ar    1  LIG1       -0.2125
      3 N          -2.5040    0.4290    0.0000 N.ar    1  LIG1       -0.1681
      4 C          -2.1880    1.3790    0.0000 C.ar    1  LIG1        0.0823
      5 C          -1.1880    1.3790    0.0000 C.ar    1  LIG1        0.0511
      6 C          -0.5210    2.1130    0.0000 C.ar    1  LIG1        0.0058
      7 C           0.4580    1.8960    0.0000 C.ar    1  LIG1        0.0175
      8 C           0.7670    0.9460    0.0000 C.ar    1  LIG1        0.0829
      9 N           0.0920    0.2130    0.0000 N.ar    1  LIG1       -0.2265
     10 C           1.7330    0.7290    0.0000 C.ar    1  LIG1        0.0188
     11 C           2.4080    1.4710    0.0000 C.ar    1  LIG1       -0.0027
     12 C           2.1000    2.4290    0.0000 C.ar    1  LIG1       -0.0218
     13 C           1.1330    2.6380    0.0000 C.ar    1  LIG1       -0.0028
     14 C           2.7670    3.1710    0.0000 C.3     1  LIG1        0.0310
     15 C          -2.7710    2.2040    0.0000 C.3     1  LIG1        0.0540
     16 C          -1.7540   -1.1670    0.0000 C.ar    1  LIG1        0.0844
     17 C          -0.9040   -1.7000    0.0000 C.ar    1  LIG1        0.0192
     18 C          -0.9540   -2.7040    0.0000 C.ar    1  LIG1        0.0015
     19 C          -1.8250   -3.1670    0.0000 C.ar    1  LIG1        0.0001
     20 C          -2.6750   -2.6330    0.0000 C.ar    1  LIG1        0.0015
     21 C          -2.6380   -1.6210    0.0000 C.ar    1  LIG1        0.0192
@<TRIPOS>BOND
     1     1     2   ar
     2     1     5   ar
     3     1     9   ar
     4     2     3   ar
     5     2    16    1
     6     3     4   ar
     7     4     5   ar
     8     4    15    1
     9     5     6   ar
    10     6     7   ar
    11     7     8   ar
    12     7    13   ar
    13     8     9   ar
    14     8    10   ar
    15    10    11   ar
    16    11    12   ar
    17    12    13   ar
    18    12    14    1
    19    16    17   ar
    20    16    21   ar
    21    17    18   ar
    22    18    19   ar
    23    19    20   ar
    24    20    21   ar
