@<TRIPOS>MOLECULE
24085_ChemDiv_K666-0022
 21 23 0 0 0
SMALL
GASTEIGER
Energy = 0

@<TRIPOS>ATOM
      1 S          -0.5130    0.2210    0.0000 S.O2    1  LIG1        0.0783
      2 C           0.3000    0.8250    0.0000 C.ar    1  LIG1        0.1432
      3 C           0.2000    1.8170    0.0000 C.ar    1  LIG1        0.1274
      4 N          -0.6130    2.4040    0.0000 N.ar    1  LIG1       -0.1888
      5 S          -0.3040    3.3460    0.0000 S.2     1  LIG1        0.1165
      6 N           0.6880    3.3460    0.0000 N.ar    1  LIG1       -0.1901
      7 C           0.9880    2.3880    0.0000 C.ar    1  LIG1        0.1102
      8 C           1.9130    1.9830    0.0000 C.ar    1  LIG1        0.0214
      9 C           2.0130    0.9750    0.0000 C.ar    1  LIG1        0.0030
     10 C           1.2000    0.4040    0.0000 C.ar    1  LIG1        0.0216
     11 N          -1.3250   -0.3790    0.0000 N.3     1  LIG1       -0.0792
     12 C          -1.2040   -1.3500    0.0000 C.3     1  LIG1        0.0976
     13 C          -0.3040   -1.7500    0.0000 C.3     1  LIG1        0.0179
     14 C          -0.1830   -2.7420    0.0000 C.3     1  LIG1        0.0014
     15 C          -0.9920   -3.3420    0.0000 C.3     1  LIG1        0.0001
     16 C          -1.9040   -2.9210    0.0000 C.3     1  LIG1        0.0015
     17 C          -2.0170   -1.9290    0.0000 C.3     1  LIG1        0.0193
     18 C           0.7500   -3.1630    0.0000 C.3     1  LIG1        0.0000
     19 C           0.5080   -1.1580    0.0000 C.3     1  LIG1        0.0015
     20 O          -1.0960    1.0330    0.0000 O.2     1  LIG1       -0.1515
     21 O           0.0880   -0.5880    0.0000 O.2     1  LIG1       -0.1515
@<TRIPOS>BOND
     1     1     2    1
     2     1    11    1
     3     1    20    2
     4     1    21    2
     5     2     3   ar
     6     2    10   ar
     7     3     4   ar
     8     3     7   ar
     9     4     5   ar
    10     5     6   ar
    11     6     7   ar
    12     7     8   ar
    13     8     9   ar
    14     9    10   ar
    15    11    12    1
    16    12    13    1
    17    12    17    1
    18    13    14    1
    19    13    19    1
    20    14    15    1
    21    14    18    1
    22    15    16    1
    23    16    17    1
