@<TRIPOS>MOLECULE
24081_ChemDiv_C548-3537
 34 38 0 0 0
SMALL
GASTEIGER
Energy = 0

@<TRIPOS>ATOM
      1 S           3.7080    0.9210    0.0000 S.O2    1  LIG1        0.0784
      2 C           4.2130    1.8040    0.0000 C.ar    1  LIG1        0.1432
      3 C           3.7080    2.6670    0.0000 C.ar    1  LIG1        0.1274
      4 N           2.7210    2.8750    0.0000 N.ar    1  LIG1       -0.1888
      5 S           2.6040    3.8750    0.0000 S.2     1  LIG1        0.1165
      6 N           3.5290    4.2920    0.0000 N.ar    1  LIG1       -0.1901
      7 C           4.2130    3.5500    0.0000 C.ar    1  LIG1        0.1102
      8 C           5.2210    3.5500    0.0000 C.ar    1  LIG1        0.0214
      9 C           5.7250    2.6670    0.0000 C.ar    1  LIG1        0.0030
     10 C           5.2210    1.7960    0.0000 C.ar    1  LIG1        0.0216
     11 N           3.1920    0.0580    0.0000 N.3     1  LIG1       -0.0777
     12 C           2.1830    0.0710    0.0000 C.3     1  LIG1        0.1154
     13 C           1.6790   -0.8000    0.0000 C.3     1  LIG1        0.0194
     14 C           2.1750   -1.6750    0.0000 C.3     1  LIG1        0.0020
     15 C           1.6580   -2.5380    0.0000 C.3     1  LIG1        0.0091
     16 C           0.6500   -2.5250    0.0000 C.3     1  LIG1        0.0767
     17 C           0.1330   -3.3960    0.0000 C.2     1  LIG1        0.2254
     18 N          -0.8750   -3.3960    0.0000 N.am    1  LIG1       -0.2751
     19 C          -1.4210   -2.5790    0.0000 C.3     1  LIG1        0.1195
     20 C          -2.3460   -2.5460    0.0000 C.2     1  LIG1       -0.0089
     21 C          -2.8500   -3.4170    0.0000 C.2     1  LIG1       -0.0231
     22 C          -2.3750   -4.2580    0.0000 C.3     1  LIG1        0.0476
     23 C          -1.3790   -4.2710    0.0000 C.3     1  LIG1        0.0984
     24 C          -3.7540   -3.4080    0.0000 C.ar    1  LIG1       -0.0042
     25 C          -4.2380   -2.5170    0.0000 C.ar    1  LIG1       -0.0003
     26 C          -5.2250   -2.5670    0.0000 C.ar    1  LIG1       -0.0000
     27 C          -5.7290   -3.4380    0.0000 C.ar    1  LIG1       -0.0000
     28 C          -5.2580   -4.2710    0.0000 C.ar    1  LIG1       -0.0000
     29 C          -4.2580   -4.2920    0.0000 C.ar    1  LIG1       -0.0003
     30 O           0.6290   -4.2790    0.0000 O.2     1  LIG1       -0.2749
     31 C           0.1540   -1.6540    0.0000 C.3     1  LIG1        0.0091
     32 C           0.6710   -0.7790    0.0000 C.3     1  LIG1        0.0020
     33 O           4.5790    0.4290    0.0000 O.2     1  LIG1       -0.1515
     34 O           2.8330    1.4380    0.0000 O.2     1  LIG1       -0.1515
@<TRIPOS>BOND
     1     1     2    1
     2     1    11    1
     3     1    33    2
     4     1    34    2
     5     2     3   ar
     6     2    10   ar
     7     3     4   ar
     8     3     7   ar
     9     4     5   ar
    10     5     6   ar
    11     6     7   ar
    12     7     8   ar
    13     8     9   ar
    14     9    10   ar
    15    11    12    1
    16    12    13    1
    17    13    14    1
    18    13    32    1
    19    14    15    1
    20    15    16    1
    21    16    17    1
    22    16    31    1
    23    17    18   am
    24    17    30    2
    25    18    19    1
    26    18    23    1
    27    19    20    1
    28    20    21    2
    29    21    22    1
    30    21    24    1
    31    22    23    1
    32    24    25   ar
    33    24    29   ar
    34    25    26   ar
    35    26    27   ar
    36    27    28   ar
    37    28    29   ar
    38    31    32    1
