@<TRIPOS>MOLECULE
24083_ChemDiv_C548-3660
 33 35 0 0 0
SMALL
GASTEIGER
Energy = 0

@<TRIPOS>ATOM
      1 S           3.7790    2.6290    0.0000 S.O2    1  LIG1        0.0784
      2 C           4.2790    3.5040    0.0000 C.ar    1  LIG1        0.1432
      3 C           3.7790    4.3540    0.0000 C.ar    1  LIG1        0.1274
      4 N           2.8000    4.5630    0.0000 N.ar    1  LIG1       -0.1888
      5 S           2.6830    5.5540    0.0000 S.2     1  LIG1        0.1165
      6 N           3.6000    5.9710    0.0000 N.ar    1  LIG1       -0.1901
      7 C           4.2790    5.2290    0.0000 C.ar    1  LIG1        0.1102
      8 C           5.2750    5.2290    0.0000 C.ar    1  LIG1        0.0214
      9 C           5.7750    4.3540    0.0000 C.ar    1  LIG1        0.0030
     10 C           5.2750    3.4960    0.0000 C.ar    1  LIG1        0.0216
     11 N           3.2670    1.7790    0.0000 N.3     1  LIG1       -0.0777
     12 C           2.2670    1.7880    0.0000 C.3     1  LIG1        0.1154
     13 C           1.7670    0.9250    0.0000 C.3     1  LIG1        0.0194
     14 C           0.7670    0.9460    0.0000 C.3     1  LIG1        0.0020
     15 C           0.2580    0.0790    0.0000 C.3     1  LIG1        0.0092
     16 C           0.7460   -0.7830    0.0000 C.3     1  LIG1        0.0782
     17 C           0.2380   -1.6500    0.0000 C.2     1  LIG1        0.2409
     18 O           0.7250   -2.5210    0.0000 O.2     1  LIG1       -0.2734
     19 N          -0.7630   -1.6500    0.0000 N.am    1  LIG1       -0.2052
     20 C          -1.2630   -2.5130    0.0000 C.3     1  LIG1        0.1213
     21 C          -2.2710   -2.5130    0.0000 C.3     1  LIG1        0.0861
     22 C          -2.7710   -3.3750    0.0000 C.3     1  LIG1        0.1404
     23 N          -3.7830   -3.3750    0.0000 N.4     1  LIG1        0.3773
     24 C          -4.2830   -2.5130    0.0000 C.3     1  LIG1        0.1385
     25 C          -5.2790   -2.5130    0.0000 C.3     1  LIG1        0.0627
     26 C          -5.7790   -1.6500    0.0000 C.3     1  LIG1        0.0063
     27 C          -4.2830   -4.2420    0.0000 C.3     1  LIG1        0.1385
     28 C          -3.7830   -5.1040    0.0000 C.3     1  LIG1        0.0627
     29 C          -4.2830   -5.9710    0.0000 C.3     1  LIG1        0.0063
     30 C           1.7460   -0.7960    0.0000 C.3     1  LIG1        0.0092
     31 C           2.2580    0.0580    0.0000 C.3     1  LIG1        0.0020
     32 O           2.9130    3.1420    0.0000 O.2     1  LIG1       -0.1515
     33 O           4.6420    2.1420    0.0000 O.2     1  LIG1       -0.1515
@<TRIPOS>BOND
     1     1     2    1
     2     1    11    1
     3     1    32    2
     4     1    33    2
     5     2     3   ar
     6     2    10   ar
     7     3     4   ar
     8     3     7   ar
     9     4     5   ar
    10     5     6   ar
    11     6     7   ar
    12     7     8   ar
    13     8     9   ar
    14     9    10   ar
    15    11    12    1
    16    12    13    1
    17    13    14    1
    18    13    31    1
    19    14    15    1
    20    15    16    1
    21    16    17    1
    22    16    30    1
    23    17    18    2
    24    17    19   am
    25    19    20    1
    26    20    21    1
    27    21    22    1
    28    22    23    1
    29    23    24    1
    30    23    27    1
    31    24    25    1
    32    25    26    1
    33    27    28    1
    34    28    29    1
    35    30    31    1
