@<TRIPOS>MOLECULE
24091_ChemDiv_K893-0994
 23 24 0 0 0
SMALL
GASTEIGER
Energy = 0

@<TRIPOS>ATOM
      1 C           2.1380    2.0000    0.0000 C.ar    1  LIG1        0.1432
      2 S           1.3210    1.4710    0.0000 S.O2    1  LIG1        0.0784
      3 O           0.7880    2.2830    0.0000 O.2     1  LIG1       -0.1515
      4 O           1.8750    0.6080    0.0000 O.2     1  LIG1       -0.1515
      5 N           0.4540    0.9710    0.0000 N.3     1  LIG1       -0.0775
      6 C           0.4540   -0.0290    0.0000 C.3     1  LIG1        0.1216
      7 C          -0.4130   -0.5330    0.0000 C.3     1  LIG1        0.0835
      8 C          -0.4170   -1.5330    0.0000 C.3     1  LIG1        0.1401
      9 N          -1.2920   -2.0330    0.0000 N.4     1  LIG1        0.3772
     10 C          -2.1380   -1.5330    0.0000 C.3     1  LIG1        0.1385
     11 C          -3.0210   -2.0460    0.0000 C.3     1  LIG1        0.0627
     12 C          -3.8830   -1.5500    0.0000 C.3     1  LIG1        0.0063
     13 C          -1.2920   -3.0330    0.0000 C.3     1  LIG1        0.1385
     14 C          -0.4170   -3.5380    0.0000 C.3     1  LIG1        0.0627
     15 C          -0.4170   -4.5420    0.0000 C.3     1  LIG1        0.0063
     16 C           2.1040    2.9880    0.0000 C.ar    1  LIG1        0.1274
     17 N           1.3330    3.6250    0.0000 N.ar    1  LIG1       -0.1888
     18 S           1.7000    4.5420    0.0000 S.2     1  LIG1        0.1165
     19 N           2.7000    4.5000    0.0000 N.ar    1  LIG1       -0.1901
     20 C           2.9580    3.5500    0.0000 C.ar    1  LIG1        0.1102
     21 C           3.8500    3.1040    0.0000 C.ar    1  LIG1        0.0214
     22 C           3.8790    2.0750    0.0000 C.ar    1  LIG1        0.0030
     23 C           3.0630    1.5630    0.0000 C.ar    1  LIG1        0.0216
@<TRIPOS>BOND
     1     1     2    1
     2     1    16   ar
     3     1    23   ar
     4     2     3    2
     5     2     4    2
     6     2     5    1
     7     5     6    1
     8     6     7    1
     9     7     8    1
    10     8     9    1
    11     9    10    1
    12     9    13    1
    13    10    11    1
    14    11    12    1
    15    13    14    1
    16    14    15    1
    17    16    17   ar
    18    16    20   ar
    19    17    18   ar
    20    18    19   ar
    21    19    20   ar
    22    20    21   ar
    23    21    22   ar
    24    22    23   ar
