@<TRIPOS>MOLECULE
24093_ChemDiv_000A-0247
 26 28 0 0 0
SMALL
GASTEIGER
Energy = 0

@<TRIPOS>ATOM
      1 C           0.4670    1.3380    0.0000 C.ar    1  LIG1        0.0893
      2 C          -0.4000    0.8210    0.0000 C.ar    1  LIG1        0.0113
      3 C          -1.2670    1.3380    0.0000 C.ar    1  LIG1        0.0485
      4 C          -1.2670    2.3380    0.0000 C.ar    1  LIG1        0.0613
      5 N          -0.4000    2.8380    0.0000 N.ar    1  LIG1       -0.2537
      6 C           0.4670    2.3380    0.0000 C.ar    1  LIG1        0.0652
      7 C           1.3540    2.8380    0.0000 C.3     1  LIG1        0.0523
      8 C          -2.1130    2.8380    0.0000 C.3     1  LIG1        0.0463
      9 C          -2.9750    2.3380    0.0000 C.3     1  LIG1        0.0128
     10 C          -2.9750    1.3380    0.0000 C.3     1  LIG1        0.0695
     11 C          -2.1130    0.8210    0.0000 C.2     1  LIG1        0.1742
     12 O          -2.1130   -0.1750    0.0000 O.2     1  LIG1       -0.2913
     13 C          -3.9330    2.0790    0.0000 C.3     1  LIG1        0.0008
     14 C          -3.5170    3.1630    0.0000 C.3     1  LIG1        0.0008
     15 C          -0.4000   -0.1750    0.0000 C.ar    1  LIG1        0.0004
     16 C           0.4460   -0.6670    0.0000 C.ar    1  LIG1        0.0005
     17 C           0.4460   -1.6710    0.0000 C.ar    1  LIG1        0.0067
     18 C          -0.4000   -2.1670    0.0000 C.ar    1  LIG1        0.0346
     19 C          -1.2830   -1.6710    0.0000 C.ar    1  LIG1        0.0067
     20 C          -1.2830   -0.6670    0.0000 C.ar    1  LIG1        0.0005
     21 BR         -0.3790   -3.1580    0.0000 Br      1  LIG1       -0.0490
     22 C           1.3540    0.8210    0.0000 C.2     1  LIG1        0.3424
     23 O           1.3540   -0.1750    0.0000 O.2     1  LIG1       -0.2449
     24 O           2.2210    1.3380    0.0000 O.3     1  LIG1       -0.4454
     25 C           3.0830    0.8210    0.0000 C.3     1  LIG1        0.2089
     26 C           3.9290    1.3380    0.0000 C.3     1  LIG1        0.0513
@<TRIPOS>BOND
     1     1     2   ar
     2     1     6   ar
     3     1    22    1
     4     2     3   ar
     5     2    15    1
     6     3     4   ar
     7     3    11    1
     8     4     5   ar
     9     4     8    1
    10     5     6   ar
    11     6     7    1
    12     8     9    1
    13     9    10    1
    14     9    13    1
    15     9    14    1
    16    10    11    1
    17    11    12    2
    18    15    16   ar
    19    15    20   ar
    20    16    17   ar
    21    17    18   ar
    22    18    19   ar
    23    18    21    1
    24    19    20   ar
    25    22    23    2
    26    22    24    1
    27    24    25    1
    28    25    26    1
