@<TRIPOS>MOLECULE
24098_ChemDiv_C561-2000
 36 40 0 0 0
SMALL
GASTEIGER
Energy = 0

@<TRIPOS>ATOM
      1 C          -0.9420   -3.6670    0.0000 C.ar    1  LIG1        0.1641
      2 N          -1.8880   -3.9750    0.0000 N.ar    1  LIG1       -0.2125
      3 N          -2.4790   -3.1630    0.0000 N.ar    1  LIG1       -0.1681
      4 C          -1.8790   -2.3540    0.0000 C.ar    1  LIG1        0.0820
      5 C          -0.9420   -2.6630    0.0000 C.ar    1  LIG1        0.0468
      6 C          -0.0670   -2.1630    0.0000 C.ar    1  LIG1       -0.0205
      7 C           0.8000   -2.6630    0.0000 C.ar    1  LIG1       -0.0119
      8 C           0.7920   -3.6750    0.0000 C.ar    1  LIG1        0.0568
      9 N          -0.0790   -4.1710    0.0000 N.ar    1  LIG1       -0.2312
     10 C           1.6540   -4.1880    0.0000 C.3     1  LIG1        0.0518
     11 C           1.6670   -2.1630    0.0000 C.3     1  LIG1        0.0368
     12 C           1.6670   -1.1670    0.0000 C.3     1  LIG1        0.0900
     13 C           2.5330   -0.6540    0.0000 C.2     1  LIG1        0.2261
     14 N           2.5460    0.3460    0.0000 N.am    1  LIG1       -0.2760
     15 C           1.6750    0.8540    0.0000 C.3     1  LIG1        0.1148
     16 C           1.6880    1.8540    0.0000 C.3     1  LIG1        0.1123
     17 N           2.5630    2.3500    0.0000 N.pl3   1  LIG1       -0.3041
     18 C           2.5790    3.3460    0.0000 C.ar    1  LIG1        0.0481
     19 C           3.4500    3.8290    0.0000 C.ar    1  LIG1        0.0176
     20 C           3.4670    4.8210    0.0000 C.ar    1  LIG1        0.0382
     21 C           2.6080    5.3330    0.0000 C.ar    1  LIG1        0.1388
     22 C           1.7330    4.8380    0.0000 C.ar    1  LIG1        0.0382
     23 C           1.7290    3.8500    0.0000 C.ar    1  LIG1        0.0176
     24 O           2.6210    6.3290    0.0000 O.3     1  LIG1       -0.4714
     25 C           3.4830    6.8130    0.0000 C.3     1  LIG1        0.2525
     26 C           3.4250    1.8380    0.0000 C.3     1  LIG1        0.1123
     27 C           3.4210    0.8420    0.0000 C.3     1  LIG1        0.1148
     28 O           3.4210   -1.1540    0.0000 O.2     1  LIG1       -0.2749
     29 C          -0.0670   -1.1540    0.0000 C.3     1  LIG1        0.0309
     30 C          -2.1920   -1.4080    0.0000 C.3     1  LIG1        0.0540
     31 C          -2.1920   -4.9250    0.0000 C.ar    1  LIG1        0.0844
     32 C          -3.1710   -5.1210    0.0000 C.ar    1  LIG1        0.0192
     33 C          -3.4880   -6.0750    0.0000 C.ar    1  LIG1        0.0015
     34 C          -2.8170   -6.8130    0.0000 C.ar    1  LIG1        0.0001
     35 C          -1.8460   -6.6040    0.0000 C.ar    1  LIG1        0.0015
     36 C          -1.5330   -5.6630    0.0000 C.ar    1  LIG1        0.0192
@<TRIPOS>BOND
     1     1     2   ar
     2     1     5   ar
     3     1     9   ar
     4     2     3   ar
     5     2    31    1
     6     3     4   ar
     7     4     5   ar
     8     4    30    1
     9     5     6   ar
    10     6     7   ar
    11     6    29    1
    12     7     8   ar
    13     7    11    1
    14     8     9   ar
    15     8    10    1
    16    11    12    1
    17    12    13    1
    18    13    14   am
    19    13    28    2
    20    14    15    1
    21    14    27    1
    22    15    16    1
    23    16    17    1
    24    17    18    1
    25    17    26    1
    26    18    19   ar
    27    18    23   ar
    28    19    20   ar
    29    20    21   ar
    30    21    22   ar
    31    21    24    1
    32    22    23   ar
    33    24    25    1
    34    26    27    1
    35    31    32   ar
    36    31    36   ar
    37    32    33   ar
    38    33    34   ar
    39    34    35   ar
    40    35    36   ar
