@<TRIPOS>MOLECULE
24097_ChemDiv_8012-7300
 32 35 0 0 0
SMALL
GASTEIGER
Energy = 0

@<TRIPOS>ATOM
      1 C           1.8830   -0.0080    0.0000 C.ar    1  LIG1        0.1443
      2 C           3.3670    0.8460    0.0000 C.ar    1  LIG1        0.2954
      3 N           3.8710   -0.0080    0.0000 N.ar    1  LIG1       -0.2134
      4 N           3.3670   -0.8500    0.0000 N.ar    1  LIG1       -0.2646
      5 C           2.3830   -0.8500    0.0000 C.ar    1  LIG1        0.0746
      6 C           1.8960   -1.6960    0.0000 C.3     1  LIG1        0.0532
      7 C           3.8540   -1.6960    0.0000 C.3     1  LIG1        0.1518
      8 C           4.8540   -0.0080    0.0000 C.ar    1  LIG1        0.0841
      9 C           5.3380   -0.8500    0.0000 C.ar    1  LIG1        0.0192
     10 C           6.3330   -0.8500    0.0000 C.ar    1  LIG1        0.0015
     11 C           6.8380   -0.0080    0.0000 C.ar    1  LIG1        0.0001
     12 C           6.3330    0.8460    0.0000 C.ar    1  LIG1        0.0015
     13 C           5.3380    0.8460    0.0000 C.ar    1  LIG1        0.0192
     14 O           3.8540    1.7000    0.0000 O.2     1  LIG1       -0.2637
     15 N           0.9130   -0.0080    0.0000 N.am    1  LIG1       -0.1694
     16 C           0.4210   -0.8420    0.0000 C.2     1  LIG1        0.2692
     17 C          -0.5750   -0.8420    0.0000 C.ar    1  LIG1        0.0554
     18 C          -1.0830   -1.6960    0.0000 C.ar    1  LIG1        0.0044
     19 C          -2.0580   -1.6960    0.0000 C.ar    1  LIG1       -0.0005
     20 C          -2.5630   -0.8420    0.0000 C.ar    1  LIG1        0.0212
     21 C          -3.5630   -0.8420    0.0000 C.3     1  LIG1        0.2320
     22 O          -4.0170    0.0380    0.0000 O.3     1  LIG1       -0.4701
     23 C          -4.9250    0.0380    0.0000 C.ar    1  LIG1        0.1451
     24 C          -5.4000   -0.8250    0.0000 C.ar    1  LIG1        0.0685
     25 BR         -4.9250   -1.6710    0.0000 Br      1  LIG1       -0.0458
     26 C          -6.3330   -0.8250    0.0000 C.ar    1  LIG1        0.0097
     27 C          -6.8380    0.0040    0.0000 C.ar    1  LIG1        0.0007
     28 C          -6.3580    0.8580    0.0000 C.ar    1  LIG1        0.0031
     29 C          -5.4040    0.8580    0.0000 C.ar    1  LIG1        0.0374
     30 C          -2.0580    0.0170    0.0000 C.ar    1  LIG1       -0.0005
     31 C          -1.0580    0.0170    0.0000 C.ar    1  LIG1        0.0044
     32 O           0.9130   -1.6960    0.0000 O.2     1  LIG1       -0.2680
@<TRIPOS>BOND
     1     1     2   ar
     2     1     5   ar
     3     1    15    1
     4     2     3   ar
     5     2    14    2
     6     3     4   ar
     7     3     8    1
     8     4     5   ar
     9     4     7    1
    10     5     6    1
    11     8     9   ar
    12     8    13   ar
    13     9    10   ar
    14    10    11   ar
    15    11    12   ar
    16    12    13   ar
    17    15    16   am
    18    16    17    1
    19    16    32    2
    20    17    18   ar
    21    17    31   ar
    22    18    19   ar
    23    19    20   ar
    24    20    21    1
    25    20    30   ar
    26    21    22    1
    27    22    23    1
    28    23    24   ar
    29    23    29   ar
    30    24    25    1
    31    24    26   ar
    32    26    27   ar
    33    27    28   ar
    34    28    29   ar
    35    30    31   ar
