@<TRIPOS>MOLECULE
24095_ChemDiv_0879-0310
 27 29 0 0 0
SMALL
GASTEIGER
Energy = 0

@<TRIPOS>ATOM
      1 C          -0.3580   -1.2830    0.0000 C.ar    1  LIG1        0.0121
      2 C           0.4540   -1.7630    0.0000 C.ar    1  LIG1        0.0893
      3 C           0.4540   -2.7580    0.0000 C.ar    1  LIG1        0.0652
      4 N          -0.3580   -3.2130    0.0000 N.ar    1  LIG1       -0.2537
      5 C          -1.1670   -2.7330    0.0000 C.ar    1  LIG1        0.0613
      6 C          -1.1670   -1.7630    0.0000 C.ar    1  LIG1        0.0485
      7 C          -2.0170   -1.2830    0.0000 C.2     1  LIG1        0.1742
      8 C          -2.8250   -1.7630    0.0000 C.3     1  LIG1        0.0695
      9 C          -2.8250   -2.7580    0.0000 C.3     1  LIG1        0.0128
     10 C          -2.0170   -3.2130    0.0000 C.3     1  LIG1        0.0463
     11 C          -3.7960   -2.7580    0.0000 C.3     1  LIG1        0.0008
     12 C          -2.7960   -3.7210    0.0000 C.3     1  LIG1        0.0008
     13 O          -2.0420   -0.3210    0.0000 O.2     1  LIG1       -0.2913
     14 C           1.3000   -3.3080    0.0000 C.3     1  LIG1        0.0523
     15 C           1.2750   -1.2500    0.0000 C.2     1  LIG1        0.3424
     16 O           1.2750   -0.2920    0.0000 O.2     1  LIG1       -0.2449
     17 O           2.1500   -1.6790    0.0000 O.3     1  LIG1       -0.4454
     18 C           2.9380   -1.1500    0.0000 C.3     1  LIG1        0.2089
     19 C           3.7920   -1.5540    0.0000 C.3     1  LIG1        0.0513
     20 C          -0.3380    0.8420    0.0000 C.ar    1  LIG1        0.0110
     21 C           0.4710    1.3130    0.0000 C.ar    1  LIG1        0.0585
     22 C           0.4710    2.2630    0.0000 C.ar    1  LIG1        0.0228
     23 C          -0.3380    2.7630    0.0000 C.ar    1  LIG1        0.0585
     24 C          -1.1880    2.2630    0.0000 C.ar    1  LIG1        0.0114
     25 C          -1.1880    1.3130    0.0000 C.ar    1  LIG1        0.0017
     26 CL         -0.3380    3.7250    0.0000 Cl      1  LIG1       -0.0822
     27 CL          1.2750    0.8420    0.0000 Cl      1  LIG1       -0.0822
@<TRIPOS>BOND
     1     1     2   ar
     2     1     6   ar
     3     1    20    1
     4     2     3   ar
     5     2    15    1
     6     3     4   ar
     7     3    14    1
     8     4     5   ar
     9     5     6   ar
    10     5    10    1
    11     6     7    1
    12     7     8    1
    13     7    13    2
    14     8     9    1
    15     9    10    1
    16     9    11    1
    17     9    12    1
    18    15    16    2
    19    15    17    1
    20    17    18    1
    21    18    19    1
    22    20    21   ar
    23    20    25   ar
    24    21    22   ar
    25    21    27    1
    26    22    23   ar
    27    23    24   ar
    28    23    26    1
    29    24    25   ar
