@<TRIPOS>MOLECULE
24107_ChemDiv_8017-8487
 25 27 0 0 0
SMALL
GASTEIGER
Energy = 0

@<TRIPOS>ATOM
      1 C          -1.0250    0.9460    0.0000 C.ar    1  LIG1        0.1257
      2 C          -1.3380   -0.0040    0.0000 C.ar    1  LIG1        0.2937
      3 N          -2.3380   -0.0040    0.0000 N.ar    1  LIG1       -0.2134
      4 N          -2.6460    0.9460    0.0000 N.ar    1  LIG1       -0.2646
      5 C          -1.8420    1.5330    0.0000 C.ar    1  LIG1        0.0730
      6 C          -1.8420    2.5330    0.0000 C.3     1  LIG1        0.0532
      7 C          -3.5960    1.2500    0.0000 C.3     1  LIG1        0.1518
      8 C          -2.9250   -0.8130    0.0000 C.ar    1  LIG1        0.0841
      9 C          -3.9210   -0.7040    0.0000 C.ar    1  LIG1        0.0192
     10 C          -4.5080   -1.5130    0.0000 C.ar    1  LIG1        0.0015
     11 C          -4.1080   -2.4250    0.0000 C.ar    1  LIG1        0.0001
     12 C          -3.1080   -2.5290    0.0000 C.ar    1  LIG1        0.0015
     13 C          -2.5210   -1.7170    0.0000 C.ar    1  LIG1        0.0192
     14 O          -0.7500   -0.8170    0.0000 O.2     1  LIG1       -0.2638
     15 N          -0.0710    1.2080    0.0000 N.am    1  LIG1       -0.2484
     16 C           0.6500    0.5080    0.0000 C.2     1  LIG1        0.2529
     17 C           1.6130    0.7750    0.0000 C.ar    1  LIG1        0.0540
     18 C           2.3210    0.0710    0.0000 C.ar    1  LIG1        0.0059
     19 C           3.2880    0.3330    0.0000 C.ar    1  LIG1        0.0182
     20 C           3.5420    1.3000    0.0000 C.ar    1  LIG1        0.0891
     21 N           4.5040    1.5710    0.0000 N.pl3   1  LIG1       -0.1281
     22 C           2.8250    2.0080    0.0000 C.ar    1  LIG1        0.0182
     23 C           1.8630    1.7380    0.0000 C.ar    1  LIG1        0.0059
     24 O           0.4000   -0.4540    0.0000 O.2     1  LIG1       -0.2696
     25 C           0.1790    2.1830    0.0000 C.3     1  LIG1        0.1205
@<TRIPOS>BOND
     1     1     2   ar
     2     1     5   ar
     3     1    15    1
     4     2     3   ar
     5     2    14    2
     6     3     4   ar
     7     3     8    1
     8     4     5   ar
     9     4     7    1
    10     5     6    1
    11     8     9   ar
    12     8    13   ar
    13     9    10   ar
    14    10    11   ar
    15    11    12   ar
    16    12    13   ar
    17    15    16   am
    18    15    25    1
    19    16    17    1
    20    16    24    2
    21    17    18   ar
    22    17    23   ar
    23    18    19   ar
    24    19    20   ar
    25    20    21    1
    26    20    22   ar
    27    22    23   ar
