@<TRIPOS>MOLECULE
24104_ChemDiv_C561-2119
 37 41 0 0 0
SMALL
GASTEIGER
Energy = 0

@<TRIPOS>ATOM
      1 C          -0.8670   -1.5670    0.0000 C.ar    1  LIG1        0.1641
      2 N          -1.8130   -1.8710    0.0000 N.ar    1  LIG1       -0.2125
      3 N          -2.3920   -1.0540    0.0000 N.ar    1  LIG1       -0.1681
      4 C          -1.8130   -0.2670    0.0000 C.ar    1  LIG1        0.0820
      5 C          -0.8670   -0.5710    0.0000 C.ar    1  LIG1        0.0468
      6 C           0.0000   -0.0670    0.0000 C.ar    1  LIG1       -0.0205
      7 C           0.8630   -0.5710    0.0000 C.ar    1  LIG1       -0.0119
      8 C           0.8630   -1.5670    0.0000 C.ar    1  LIG1        0.0568
      9 N           0.0000   -2.0630    0.0000 N.ar    1  LIG1       -0.2312
     10 C           1.7380   -2.0630    0.0000 C.3     1  LIG1        0.0518
     11 C           1.7380   -0.0580    0.0000 C.3     1  LIG1        0.0368
     12 C           2.6210   -0.5710    0.0000 C.3     1  LIG1        0.0900
     13 C           3.4880   -0.0540    0.0000 C.2     1  LIG1        0.2261
     14 N           3.4880    0.9540    0.0000 N.am    1  LIG1       -0.2760
     15 C           2.6130    1.4580    0.0000 C.3     1  LIG1        0.1149
     16 C           2.6130    2.4670    0.0000 C.3     1  LIG1        0.1153
     17 N           3.4880    2.9750    0.0000 N.am    1  LIG1       -0.2701
     18 C           3.4960    3.9710    0.0000 C.2     1  LIG1        0.2839
     19 C           2.6250    4.4670    0.0000 C.ar    1  LIG1        0.1987
     20 O           1.7210    4.0580    0.0000 O.2     1  LIG1       -0.4458
     21 C           1.0580    4.8000    0.0000 C.ar    1  LIG1        0.1798
     22 C           1.5670    5.6580    0.0000 C.ar    1  LIG1        0.0440
     23 C           2.5380    5.4460    0.0000 C.ar    1  LIG1        0.0455
     24 O           4.3580    4.4670    0.0000 O.2     1  LIG1       -0.2666
     25 C           4.3630    2.4630    0.0000 C.3     1  LIG1        0.1153
     26 C           4.3630    1.4580    0.0000 C.3     1  LIG1        0.1149
     27 O           4.3630   -0.5540    0.0000 O.2     1  LIG1       -0.2749
     28 C           0.0000    0.9290    0.0000 C.3     1  LIG1        0.0309
     29 C          -2.1290    0.6830    0.0000 C.3     1  LIG1        0.0540
     30 C          -2.1130   -2.8040    0.0000 C.ar    1  LIG1        0.0841
     31 C          -3.0960   -3.0170    0.0000 C.ar    1  LIG1        0.0146
     32 C          -3.3960   -3.9630    0.0000 C.ar    1  LIG1       -0.0243
     33 C          -2.7380   -4.7080    0.0000 C.ar    1  LIG1       -0.0257
     34 C          -1.7540   -4.5080    0.0000 C.ar    1  LIG1       -0.0030
     35 C          -1.4500   -3.5540    0.0000 C.ar    1  LIG1        0.0189
     36 C          -3.0380   -5.6580    0.0000 C.3     1  LIG1        0.0307
     37 C          -4.3670   -4.1750    0.0000 C.3     1  LIG1        0.0307
@<TRIPOS>BOND
     1     1     2   ar
     2     1     5   ar
     3     1     9   ar
     4     2     3   ar
     5     2    30    1
     6     3     4   ar
     7     4     5   ar
     8     4    29    1
     9     5     6   ar
    10     6     7   ar
    11     6    28    1
    12     7     8   ar
    13     7    11    1
    14     8     9   ar
    15     8    10    1
    16    11    12    1
    17    12    13    1
    18    13    14   am
    19    13    27    2
    20    14    15    1
    21    14    26    1
    22    15    16    1
    23    16    17    1
    24    17    18   am
    25    17    25    1
    26    18    19    1
    27    18    24    2
    28    19    20   ar
    29    19    23   ar
    30    20    21   ar
    31    21    22   ar
    32    22    23   ar
    33    25    26    1
    34    30    31   ar
    35    30    35   ar
    36    31    32   ar
    37    32    33   ar
    38    32    37    1
    39    33    34   ar
    40    33    36    1
    41    34    35   ar
