@<TRIPOS>MOLECULE
24105_ChemDiv_8016-3075
 30 32 0 0 0
SMALL
GASTEIGER
Energy = 0

@<TRIPOS>ATOM
      1 C           1.8130    0.9170    0.0000 C.ar    1  LIG1        0.1443
      2 C           2.6210    1.5040    0.0000 C.ar    1  LIG1        0.2954
      3 N           3.4250    0.9170    0.0000 N.ar    1  LIG1       -0.2134
      4 N           3.1210   -0.0380    0.0000 N.ar    1  LIG1       -0.2646
      5 C           2.1130   -0.0380    0.0000 C.ar    1  LIG1        0.0746
      6 C           1.5250   -0.8460    0.0000 C.3     1  LIG1        0.0532
      7 C           3.7080   -0.8460    0.0000 C.3     1  LIG1        0.1518
      8 C           4.3750    1.2210    0.0000 C.ar    1  LIG1        0.0841
      9 C           5.1210    0.5540    0.0000 C.ar    1  LIG1        0.0192
     10 C           6.0710    0.8540    0.0000 C.ar    1  LIG1        0.0015
     11 C           6.2830    1.8420    0.0000 C.ar    1  LIG1        0.0001
     12 C           5.5330    2.5130    0.0000 C.ar    1  LIG1        0.0015
     13 C           4.5830    2.2000    0.0000 C.ar    1  LIG1        0.0192
     14 O           2.6130    2.5040    0.0000 O.2     1  LIG1       -0.2637
     15 N           0.8380    1.1790    0.0000 N.am    1  LIG1       -0.1693
     16 C           0.1250    0.4790    0.0000 C.2     1  LIG1        0.2721
     17 C          -0.8290    0.7420    0.0000 C.ar    1  LIG1        0.0893
     18 C          -1.5380    0.0420    0.0000 C.ar    1  LIG1        0.1429
     19 O          -1.2750   -0.9290    0.0000 O.3     1  LIG1       -0.4753
     20 C          -1.9880   -1.6330    0.0000 C.3     1  LIG1        0.2054
     21 C          -2.9540   -1.3670    0.0000 C.3     1  LIG1        0.0473
     22 C          -3.6630   -2.0710    0.0000 C.3     1  LIG1        0.0038
     23 C          -4.6250   -1.8080    0.0000 C.3     1  LIG1        0.0001
     24 C          -5.3380   -2.5080    0.0000 C.3     1  LIG1        0.0000
     25 C          -6.2830   -2.2460    0.0000 C.3     1  LIG1        0.0000
     26 C          -2.5000    0.2960    0.0000 C.ar    1  LIG1        0.0370
     27 C          -2.7540    1.2670    0.0000 C.ar    1  LIG1        0.0031
     28 C          -2.0420    1.9710    0.0000 C.ar    1  LIG1        0.0003
     29 C          -1.0750    1.7040    0.0000 C.ar    1  LIG1        0.0076
     30 O           0.3830   -0.4920    0.0000 O.2     1  LIG1       -0.2679
@<TRIPOS>BOND
     1     1     2   ar
     2     1     5   ar
     3     1    15    1
     4     2     3   ar
     5     2    14    2
     6     3     4   ar
     7     3     8    1
     8     4     5   ar
     9     4     7    1
    10     5     6    1
    11     8     9   ar
    12     8    13   ar
    13     9    10   ar
    14    10    11   ar
    15    11    12   ar
    16    12    13   ar
    17    15    16   am
    18    16    17    1
    19    16    30    2
    20    17    18   ar
    21    17    29   ar
    22    18    19    1
    23    18    26   ar
    24    19    20    1
    25    20    21    1
    26    21    22    1
    27    22    23    1
    28    23    24    1
    29    24    25    1
    30    26    27   ar
    31    27    28   ar
    32    28    29   ar
