@<TRIPOS>MOLECULE
24103_ChemDiv_8016-2687
 31 34 0 0 0
SMALL
GASTEIGER
Energy = 0

@<TRIPOS>ATOM
      1 C           0.2960    1.3000    0.0000 C.ar    1  LIG1        0.1443
      2 C           0.3960    2.2880    0.0000 C.ar    1  LIG1        0.2954
      3 N           1.3710    2.5130    0.0000 N.ar    1  LIG1       -0.2134
      4 N           1.8710    1.6380    0.0000 N.ar    1  LIG1       -0.2646
      5 C           1.2080    0.9000    0.0000 C.ar    1  LIG1        0.0746
      6 C           1.4210   -0.0920    0.0000 C.3     1  LIG1        0.0532
      7 C           2.8670    1.5380    0.0000 C.3     1  LIG1        0.1518
      8 C           1.7710    3.4130    0.0000 C.ar    1  LIG1        0.0841
      9 C           2.7670    3.5250    0.0000 C.ar    1  LIG1        0.0192
     10 C           3.1670    4.4210    0.0000 C.ar    1  LIG1        0.0015
     11 C           2.5710    5.2290    0.0000 C.ar    1  LIG1        0.0001
     12 C           1.5830    5.1170    0.0000 C.ar    1  LIG1        0.0015
     13 C           1.1920    4.2040    0.0000 C.ar    1  LIG1        0.0192
     14 O          -0.3580    2.9500    0.0000 O.2     1  LIG1       -0.2637
     15 N          -0.5710    0.7920    0.0000 N.am    1  LIG1       -0.1694
     16 C          -0.5710   -0.2130    0.0000 C.2     1  LIG1        0.2688
     17 C          -1.4330   -0.7250    0.0000 C.ar    1  LIG1        0.0514
     18 C          -1.4330   -1.7290    0.0000 C.ar    1  LIG1       -0.0174
     19 C          -0.5580   -2.2290    0.0000 C.3     1  LIG1        0.0312
     20 C          -0.5580   -3.2250    0.0000 C.3     1  LIG1        0.0310
     21 C           0.3080   -3.7290    0.0000 C.ar    1  LIG1       -0.0218
     22 C           0.3080   -4.7290    0.0000 C.ar    1  LIG1       -0.0043
     23 C           1.1710   -5.2290    0.0000 C.ar    1  LIG1       -0.0003
     24 C           2.0420   -4.7290    0.0000 C.ar    1  LIG1       -0.0000
     25 C           2.0330   -3.7130    0.0000 C.ar    1  LIG1       -0.0003
     26 C           1.1710   -3.2250    0.0000 C.ar    1  LIG1       -0.0043
     27 C          -2.2960   -2.2290    0.0000 C.ar    1  LIG1       -0.0041
     28 C          -3.1710   -1.7290    0.0000 C.ar    1  LIG1       -0.0003
     29 C          -3.1710   -0.7250    0.0000 C.ar    1  LIG1        0.0001
     30 C          -2.3080   -0.2170    0.0000 C.ar    1  LIG1        0.0043
     31 O           0.3080   -0.7170    0.0000 O.2     1  LIG1       -0.2680
@<TRIPOS>BOND
     1     1     2   ar
     2     1     5   ar
     3     1    15    1
     4     2     3   ar
     5     2    14    2
     6     3     4   ar
     7     3     8    1
     8     4     5   ar
     9     4     7    1
    10     5     6    1
    11     8     9   ar
    12     8    13   ar
    13     9    10   ar
    14    10    11   ar
    15    11    12   ar
    16    12    13   ar
    17    15    16   am
    18    16    17    1
    19    16    31    2
    20    17    18   ar
    21    17    30   ar
    22    18    19    1
    23    18    27   ar
    24    19    20    1
    25    20    21    1
    26    21    22   ar
    27    21    26   ar
    28    22    23   ar
    29    23    24   ar
    30    24    25   ar
    31    25    26   ar
    32    27    28   ar
    33    28    29   ar
    34    29    30   ar
