@<TRIPOS>MOLECULE
24102_ChemDiv_C561-2016
 32 34 0 0 0
SMALL
GASTEIGER
Energy = 0

@<TRIPOS>ATOM
      1 C          -2.2080   -1.6960    0.0000 C.ar    1  LIG1        0.1641
      2 N          -3.1630   -2.0080    0.0000 N.ar    1  LIG1       -0.2125
      3 N          -3.7420   -1.1960    0.0000 N.ar    1  LIG1       -0.1681
      4 C          -3.1460   -0.3920    0.0000 C.ar    1  LIG1        0.0820
      5 C          -2.2080   -0.7040    0.0000 C.ar    1  LIG1        0.0468
      6 C          -1.3330   -0.1960    0.0000 C.ar    1  LIG1       -0.0205
      7 C          -0.4630   -0.7040    0.0000 C.ar    1  LIG1       -0.0119
      8 C          -0.4710   -1.7080    0.0000 C.ar    1  LIG1        0.0568
      9 N          -1.3500   -2.2080    0.0000 N.ar    1  LIG1       -0.2312
     10 C           0.3920   -2.2250    0.0000 C.3     1  LIG1        0.0518
     11 C           0.4080   -0.2080    0.0000 C.3     1  LIG1        0.0368
     12 C           0.4080    0.8000    0.0000 C.3     1  LIG1        0.0915
     13 C           1.2790    1.3040    0.0000 C.2     1  LIG1        0.2419
     14 N           1.2830    2.3130    0.0000 N.am    1  LIG1       -0.2000
     15 C           2.1540    2.8040    0.0000 C.3     1  LIG1        0.1762
     16 C           2.1630    3.7960    0.0000 C.3     1  LIG1        0.2577
     17 O           3.0210    4.2920    0.0000 O.3     1  LIG1       -0.3292
     18 C           3.8830    3.7960    0.0000 C.3     1  LIG1        0.1449
     19 C           4.7460    4.2920    0.0000 C.3     1  LIG1        0.0347
     20 O           1.3000    4.2960    0.0000 O.3     1  LIG1       -0.3292
     21 C           1.3000    5.2960    0.0000 C.3     1  LIG1        0.1449
     22 C           0.4380    5.7920    0.0000 C.3     1  LIG1        0.0347
     23 O           2.1630    0.8040    0.0000 O.2     1  LIG1       -0.2733
     24 C          -1.3330    0.8000    0.0000 C.3     1  LIG1        0.0309
     25 C          -3.4540    0.5580    0.0000 C.3     1  LIG1        0.0540
     26 C          -3.4670   -2.9500    0.0000 C.ar    1  LIG1        0.0844
     27 C          -4.4380   -3.1540    0.0000 C.ar    1  LIG1        0.0189
     28 C          -4.7500   -4.1000    0.0000 C.ar    1  LIG1       -0.0027
     29 C          -4.0880   -4.8500    0.0000 C.ar    1  LIG1       -0.0218
     30 C          -3.1040   -4.6380    0.0000 C.ar    1  LIG1       -0.0027
     31 C          -2.8000   -3.6920    0.0000 C.ar    1  LIG1        0.0189
     32 C          -4.3920   -5.7920    0.0000 C.3     1  LIG1        0.0310
@<TRIPOS>BOND
     1     1     2   ar
     2     1     5   ar
     3     1     9   ar
     4     2     3   ar
     5     2    26    1
     6     3     4   ar
     7     4     5   ar
     8     4    25    1
     9     5     6   ar
    10     6     7   ar
    11     6    24    1
    12     7     8   ar
    13     7    11    1
    14     8     9   ar
    15     8    10    1
    16    11    12    1
    17    12    13    1
    18    13    14   am
    19    13    23    2
    20    14    15    1
    21    15    16    1
    22    16    17    1
    23    16    20    1
    24    17    18    1
    25    18    19    1
    26    20    21    1
    27    21    22    1
    28    26    27   ar
    29    26    31   ar
    30    27    28   ar
    31    28    29   ar
    32    29    30   ar
    33    29    32    1
    34    30    31   ar
