@<TRIPOS>MOLECULE
24108_ChemDiv_C561-2140
 36 40 0 0 0
SMALL
GASTEIGER
Energy = 0

@<TRIPOS>ATOM
      1 C          -0.8710   -1.7170    0.0000 C.ar    1  LIG1        0.1641
      2 N          -1.8080   -2.0170    0.0000 N.ar    1  LIG1       -0.2125
      3 N          -2.3920   -1.2080    0.0000 N.ar    1  LIG1       -0.1681
      4 C          -1.8080   -0.4080    0.0000 C.ar    1  LIG1        0.0820
      5 C          -0.8710   -0.7210    0.0000 C.ar    1  LIG1        0.0468
      6 C           0.0000   -0.2130    0.0000 C.ar    1  LIG1       -0.0205
      7 C           0.8630   -0.7210    0.0000 C.ar    1  LIG1       -0.0119
      8 C           0.8630   -1.7170    0.0000 C.ar    1  LIG1        0.0568
      9 N           0.0000   -2.2040    0.0000 N.ar    1  LIG1       -0.2312
     10 C           1.7380   -2.2040    0.0000 C.3     1  LIG1        0.0518
     11 C           1.7380   -0.2080    0.0000 C.3     1  LIG1        0.0368
     12 C           2.6170   -0.7210    0.0000 C.3     1  LIG1        0.0900
     13 C           3.4880   -0.1960    0.0000 C.2     1  LIG1        0.2260
     14 N           3.4880    0.8040    0.0000 N.am    1  LIG1       -0.2791
     15 C           2.6130    1.3000    0.0000 C.3     1  LIG1        0.0993
     16 C           2.6170    2.3250    0.0000 C.3     1  LIG1        0.0782
     17 C           3.4920    2.8210    0.0000 C.3     1  LIG1        0.0903
     18 N           3.5000    3.8170    0.0000 N.4     1  LIG1        0.3730
     19 C           4.3670    4.3080    0.0000 C.3     1  LIG1        0.1383
     20 C           4.3670    5.3040    0.0000 C.3     1  LIG1        0.0629
     21 C           3.5040    5.8040    0.0000 C.3     1  LIG1        0.0123
     22 C           2.6460    5.3130    0.0000 C.3     1  LIG1        0.0629
     23 C           2.6420    4.3080    0.0000 C.3     1  LIG1        0.1383
     24 C           4.3670    2.3130    0.0000 C.3     1  LIG1        0.0782
     25 C           4.3670    1.3130    0.0000 C.3     1  LIG1        0.0993
     26 O           4.3670   -0.7080    0.0000 O.2     1  LIG1       -0.2749
     27 C           0.0000    0.7830    0.0000 C.3     1  LIG1        0.0309
     28 C          -2.1210    0.5330    0.0000 C.3     1  LIG1        0.0540
     29 C          -2.1130   -2.9580    0.0000 C.ar    1  LIG1        0.0841
     30 C          -3.0920   -3.1630    0.0000 C.ar    1  LIG1        0.0146
     31 C          -3.3960   -4.1040    0.0000 C.ar    1  LIG1       -0.0243
     32 C          -2.7420   -4.8580    0.0000 C.ar    1  LIG1       -0.0257
     33 C          -1.7580   -4.6460    0.0000 C.ar    1  LIG1       -0.0030
     34 C          -1.4460   -3.6960    0.0000 C.ar    1  LIG1        0.0189
     35 C          -3.0420   -5.8040    0.0000 C.3     1  LIG1        0.0307
     36 C          -4.3710   -4.3170    0.0000 C.3     1  LIG1        0.0307
@<TRIPOS>BOND
     1     1     2   ar
     2     1     5   ar
     3     1     9   ar
     4     2     3   ar
     5     2    29    1
     6     3     4   ar
     7     4     5   ar
     8     4    28    1
     9     5     6   ar
    10     6     7   ar
    11     6    27    1
    12     7     8   ar
    13     7    11    1
    14     8     9   ar
    15     8    10    1
    16    11    12    1
    17    12    13    1
    18    13    14   am
    19    13    26    2
    20    14    15    1
    21    14    25    1
    22    15    16    1
    23    16    17    1
    24    17    18    1
    25    17    24    1
    26    18    19    1
    27    18    23    1
    28    19    20    1
    29    20    21    1
    30    21    22    1
    31    22    23    1
    32    24    25    1
    33    29    30   ar
    34    29    34   ar
    35    30    31   ar
    36    31    32   ar
    37    31    36    1
    38    32    33   ar
    39    32    35    1
    40    33    34   ar
