@<TRIPOS>MOLECULE
24109_ChemDiv_8018-0284
 32 34 0 0 0
SMALL
GASTEIGER
Energy = 0

@<TRIPOS>ATOM
      1 C          -1.5880    0.2960    0.0000 C.ar    1  LIG1        0.1443
      2 C          -1.9040   -0.6580    0.0000 C.ar    1  LIG1        0.2954
      3 N          -2.9000   -0.6580    0.0000 N.ar    1  LIG1       -0.2134
      4 N          -3.2080    0.2960    0.0000 N.ar    1  LIG1       -0.2646
      5 C          -2.4000    0.8880    0.0000 C.ar    1  LIG1        0.0746
      6 C          -2.4000    1.8920    0.0000 C.3     1  LIG1        0.0532
      7 C          -4.1580    0.6080    0.0000 C.3     1  LIG1        0.1518
      8 C          -3.4880   -1.4580    0.0000 C.ar    1  LIG1        0.0841
      9 C          -4.4830   -1.3580    0.0000 C.ar    1  LIG1        0.0192
     10 C          -5.0710   -2.1710    0.0000 C.ar    1  LIG1        0.0015
     11 C          -4.6580   -3.0830    0.0000 C.ar    1  LIG1        0.0001
     12 C          -3.6580   -3.1790    0.0000 C.ar    1  LIG1        0.0015
     13 C          -3.0830   -2.3710    0.0000 C.ar    1  LIG1        0.0192
     14 O          -1.3130   -1.4670    0.0000 O.2     1  LIG1       -0.2637
     15 N          -0.6380    0.6080    0.0000 N.am    1  LIG1       -0.1694
     16 C           0.1080   -0.0710    0.0000 C.2     1  LIG1        0.2694
     17 C           1.0580    0.2420    0.0000 C.ar    1  LIG1        0.0616
     18 C           1.2630    1.2170    0.0000 C.ar    1  LIG1        0.0448
     19 C           2.2080    1.5290    0.0000 C.ar    1  LIG1        0.1754
     20 C           2.9670    0.8670    0.0000 C.ar    1  LIG1        0.2059
     21 C           2.7580   -0.1170    0.0000 C.ar    1  LIG1        0.1754
     22 C           1.8080   -0.4330    0.0000 C.ar    1  LIG1        0.0448
     23 O           3.4960   -0.7830    0.0000 O.3     1  LIG1       -0.4723
     24 C           4.4460   -0.4710    0.0000 C.3     1  LIG1        0.2057
     25 C           4.6540    0.5080    0.0000 C.3     1  LIG1        0.0512
     26 O           3.9080    1.1790    0.0000 O.3     1  LIG1       -0.4695
     27 C           4.1170    2.1540    0.0000 C.3     1  LIG1        0.2058
     28 C           5.0670    2.4670    0.0000 C.3     1  LIG1        0.0512
     29 O           2.4130    2.5210    0.0000 O.3     1  LIG1       -0.4723
     30 C           1.6710    3.1830    0.0000 C.3     1  LIG1        0.2057
     31 C           0.7210    2.8710    0.0000 C.3     1  LIG1        0.0512
     32 O          -0.1000   -1.0460    0.0000 O.2     1  LIG1       -0.2680
@<TRIPOS>BOND
     1     1     2   ar
     2     1     5   ar
     3     1    15    1
     4     2     3   ar
     5     2    14    2
     6     3     4   ar
     7     3     8    1
     8     4     5   ar
     9     4     7    1
    10     5     6    1
    11     8     9   ar
    12     8    13   ar
    13     9    10   ar
    14    10    11   ar
    15    11    12   ar
    16    12    13   ar
    17    15    16   am
    18    16    17    1
    19    16    32    2
    20    17    18   ar
    21    17    22   ar
    22    18    19   ar
    23    19    20   ar
    24    19    29    1
    25    20    21   ar
    26    20    26    1
    27    21    22   ar
    28    21    23    1
    29    23    24    1
    30    24    25    1
    31    26    27    1
    32    27    28    1
    33    29    30    1
    34    30    31    1
