@<TRIPOS>MOLECULE
24106_ChemDiv_C561-2120
 37 41 0 0 0
SMALL
GASTEIGER
Energy = 0

@<TRIPOS>ATOM
      1 C          -2.5130   -0.7130    0.0000 C.ar    1  LIG1        0.1641
      2 N          -3.4580   -1.0170    0.0000 N.ar    1  LIG1       -0.2125
      3 N          -4.0330   -0.2000    0.0000 N.ar    1  LIG1       -0.1681
      4 C          -3.4580    0.5880    0.0000 C.ar    1  LIG1        0.0820
      5 C          -2.5130    0.2790    0.0000 C.ar    1  LIG1        0.0468
      6 C          -1.6500    0.7830    0.0000 C.ar    1  LIG1       -0.0205
      7 C          -0.7920    0.2790    0.0000 C.ar    1  LIG1       -0.0119
      8 C          -0.7920   -0.7130    0.0000 C.ar    1  LIG1        0.0568
      9 N          -1.6500   -1.2040    0.0000 N.ar    1  LIG1       -0.2312
     10 C           0.0830   -1.2040    0.0000 C.3     1  LIG1        0.0518
     11 C           0.0830    0.7920    0.0000 C.3     1  LIG1        0.0369
     12 C           0.9670    0.2790    0.0000 C.3     1  LIG1        0.0919
     13 C           1.8290    0.8000    0.0000 C.2     1  LIG1        0.2459
     14 N           1.8290    1.8040    0.0000 N.am    1  LIG1       -0.1790
     15 C           2.7040    2.3040    0.0000 C.ar    1  LIG1        0.0793
     16 C           2.7040    3.3080    0.0000 C.ar    1  LIG1        0.0532
     17 C           3.5790    3.8130    0.0000 C.ar    1  LIG1        0.0443
     18 C           4.4500    3.3080    0.0000 C.ar    1  LIG1        0.1766
     19 C           4.4500    2.3000    0.0000 C.ar    1  LIG1        0.1777
     20 C           3.5790    1.7920    0.0000 C.ar    1  LIG1        0.0569
     21 O           5.4170    1.9830    0.0000 O.3     1  LIG1       -0.4346
     22 C           6.0040    2.7960    0.0000 C.3     1  LIG1        0.4294
     23 O           5.4170    3.6170    0.0000 O.3     1  LIG1       -0.4346
     24 C           1.8460    3.8040    0.0000 C.2     1  LIG1        0.1748
     25 O           1.8460    4.7960    0.0000 O.2     1  LIG1       -0.2913
     26 C           0.9830    3.3080    0.0000 C.3     1  LIG1        0.0773
     27 O           2.7040    0.2960    0.0000 O.2     1  LIG1       -0.2730
     28 C          -1.6500    1.7790    0.0000 C.3     1  LIG1        0.0309
     29 C          -3.7750    1.5330    0.0000 C.3     1  LIG1        0.0540
     30 C          -3.7580   -1.9500    0.0000 C.ar    1  LIG1        0.0841
     31 C          -4.7380   -2.1580    0.0000 C.ar    1  LIG1        0.0146
     32 C          -5.0380   -3.1040    0.0000 C.ar    1  LIG1       -0.0243
     33 C          -4.3790   -3.8460    0.0000 C.ar    1  LIG1       -0.0257
     34 C          -3.4000   -3.6460    0.0000 C.ar    1  LIG1       -0.0030
     35 C          -3.0960   -2.6960    0.0000 C.ar    1  LIG1        0.0189
     36 C          -4.6830   -4.7960    0.0000 C.3     1  LIG1        0.0307
     37 C          -6.0040   -3.3130    0.0000 C.3     1  LIG1        0.0307
@<TRIPOS>BOND
     1     1     2   ar
     2     1     5   ar
     3     1     9   ar
     4     2     3   ar
     5     2    30    1
     6     3     4   ar
     7     4     5   ar
     8     4    29    1
     9     5     6   ar
    10     6     7   ar
    11     6    28    1
    12     7     8   ar
    13     7    11    1
    14     8     9   ar
    15     8    10    1
    16    11    12    1
    17    12    13    1
    18    13    14   am
    19    13    27    2
    20    14    15    1
    21    15    16   ar
    22    15    20   ar
    23    16    17   ar
    24    16    24    1
    25    17    18   ar
    26    18    19   ar
    27    18    23    1
    28    19    20   ar
    29    19    21    1
    30    21    22    1
    31    22    23    1
    32    24    25    2
    33    24    26    1
    34    30    31   ar
    35    30    35   ar
    36    31    32   ar
    37    32    33   ar
    38    32    37    1
    39    33    34   ar
    40    33    36    1
    41    34    35   ar
