@<TRIPOS>MOLECULE
24100_ChemDiv_C561-2003
 38 41 0 0 0
SMALL
GASTEIGER
Energy = 0

@<TRIPOS>ATOM
      1 C          -2.6460   -1.7000    0.0000 C.ar    1  LIG1        0.1641
      2 N          -3.5920   -2.0000    0.0000 N.ar    1  LIG1       -0.2125
      3 N          -4.1750   -1.1960    0.0000 N.ar    1  LIG1       -0.1681
      4 C          -3.5830   -0.3830    0.0000 C.ar    1  LIG1        0.0820
      5 C          -2.6460   -0.7000    0.0000 C.ar    1  LIG1        0.0468
      6 C          -1.7710   -0.1960    0.0000 C.ar    1  LIG1       -0.0205
      7 C          -0.9000   -0.7000    0.0000 C.ar    1  LIG1       -0.0119
      8 C          -0.9080   -1.7000    0.0000 C.ar    1  LIG1        0.0568
      9 N          -1.7750   -2.2080    0.0000 N.ar    1  LIG1       -0.2312
     10 C          -0.0460   -2.2130    0.0000 C.3     1  LIG1        0.0518
     11 C          -0.0330   -0.1960    0.0000 C.3     1  LIG1        0.0369
     12 C          -0.0330    0.8130    0.0000 C.3     1  LIG1        0.0919
     13 C           0.8380    1.3170    0.0000 C.2     1  LIG1        0.2459
     14 N           0.8460    2.3210    0.0000 N.am    1  LIG1       -0.1792
     15 C           1.7210    2.8130    0.0000 C.ar    1  LIG1        0.0738
     16 C           2.5790    2.3080    0.0000 C.ar    1  LIG1        0.0230
     17 C           3.4460    2.7920    0.0000 C.ar    1  LIG1        0.0771
     18 C           4.3040    2.2920    0.0000 C.2     1  LIG1        0.3414
     19 O           4.2920    1.2960    0.0000 O.2     1  LIG1       -0.2449
     20 O           5.1790    2.7750    0.0000 O.3     1  LIG1       -0.4413
     21 C           5.1830    3.7750    0.0000 C.3     1  LIG1        0.2560
     22 C           3.4540    3.7960    0.0000 C.ar    1  LIG1        0.0130
     23 C           2.5830    4.3000    0.0000 C.ar    1  LIG1        0.0771
     24 C           2.6000    5.2960    0.0000 C.2     1  LIG1        0.3414
     25 O           3.4580    5.7830    0.0000 O.2     1  LIG1       -0.2449
     26 O           1.7380    5.7960    0.0000 O.3     1  LIG1       -0.4413
     27 C           0.8710    5.3000    0.0000 C.3     1  LIG1        0.2560
     28 C           1.7210    3.8040    0.0000 C.ar    1  LIG1        0.0230
     29 O           1.7210    0.8170    0.0000 O.2     1  LIG1       -0.2730
     30 C          -1.7710    0.8170    0.0000 C.3     1  LIG1        0.0309
     31 C          -3.8880    0.5710    0.0000 C.3     1  LIG1        0.0540
     32 C          -3.8920   -2.9540    0.0000 C.ar    1  LIG1        0.0844
     33 C          -4.8710   -3.1500    0.0000 C.ar    1  LIG1        0.0189
     34 C          -5.1880   -4.1000    0.0000 C.ar    1  LIG1       -0.0027
     35 C          -4.5210   -4.8540    0.0000 C.ar    1  LIG1       -0.0218
     36 C          -3.5380   -4.6420    0.0000 C.ar    1  LIG1       -0.0027
     37 C          -3.2380   -3.6960    0.0000 C.ar    1  LIG1        0.0189
     38 C          -4.8250   -5.7960    0.0000 C.3     1  LIG1        0.0310
@<TRIPOS>BOND
     1     1     2   ar
     2     1     5   ar
     3     1     9   ar
     4     2     3   ar
     5     2    32    1
     6     3     4   ar
     7     4     5   ar
     8     4    31    1
     9     5     6   ar
    10     6     7   ar
    11     6    30    1
    12     7     8   ar
    13     7    11    1
    14     8     9   ar
    15     8    10    1
    16    11    12    1
    17    12    13    1
    18    13    14   am
    19    13    29    2
    20    14    15    1
    21    15    16   ar
    22    15    28   ar
    23    16    17   ar
    24    17    18    1
    25    17    22   ar
    26    18    19    2
    27    18    20    1
    28    20    21    1
    29    22    23   ar
    30    23    24    1
    31    23    28   ar
    32    24    25    2
    33    24    26    1
    34    26    27    1
    35    32    33   ar
    36    32    37   ar
    37    33    34   ar
    38    34    35   ar
    39    35    36   ar
    40    35    38    1
    41    36    37   ar
