@<TRIPOS>MOLECULE
24113_ChemDiv_000A-0275
 26 28 0 0 0
SMALL
GASTEIGER
Energy = 0

@<TRIPOS>ATOM
      1 C          -0.9380   -0.7960    0.0000 C.ar    1  LIG1        0.0741
      2 C          -0.0290   -1.1210    0.0000 C.2     1  LIG1        0.1805
      3 C           0.7500   -0.4750    0.0000 C.3     1  LIG1        0.0956
      4 C           1.7170   -0.8290    0.0000 C.ar    1  LIG1       -0.0112
      5 C           2.4920   -0.1880    0.0000 C.ar    1  LIG1        0.0362
      6 C           3.4170   -0.5710    0.0000 C.ar    1  LIG1        0.1719
      7 C           3.5790   -1.5380    0.0000 C.ar    1  LIG1        0.1722
      8 O           4.4580   -2.0460    0.0000 O.3     1  LIG1       -0.4723
      9 C           5.3960   -1.6630    0.0000 C.3     1  LIG1        0.2094
     10 C           5.6500   -0.6960    0.0000 C.3     1  LIG1        0.0946
     11 C           5.1040    0.1080    0.0000 C.3     1  LIG1        0.2094
     12 O           4.1040    0.1710    0.0000 O.3     1  LIG1       -0.4723
     13 C           2.8130   -2.1670    0.0000 C.ar    1  LIG1        0.0397
     14 C           1.8790   -1.8250    0.0000 C.ar    1  LIG1       -0.0005
     15 O           0.1670   -2.1210    0.0000 O.2     1  LIG1       -0.2909
     16 C          -1.6670   -1.4420    0.0000 C.ar    1  LIG1        0.2014
     17 C          -2.6080   -1.1210    0.0000 C.ar    1  LIG1        0.0790
     18 C          -2.7960   -0.1540    0.0000 C.ar    1  LIG1        0.1423
     19 O          -3.7790    0.2080    0.0000 O.3     1  LIG1       -0.4693
     20 C          -3.9580    1.2040    0.0000 C.3     1  LIG1        0.2469
     21 C          -4.8960    1.5080    0.0000 C.2     1  LIG1        0.0940
     22 O          -5.6540    0.8830    0.0000 O.co2   1  LIG1       -0.5454
     23 O          -5.1290    2.4750    0.0000 O.co2   1  LIG1       -0.5454
     24 C          -2.0670    0.4920    0.0000 C.ar    1  LIG1        0.0372
     25 C          -1.1250    0.1710    0.0000 C.ar    1  LIG1        0.0092
     26 O          -1.4790   -2.4710    0.0000 O.3     1  LIG1       -0.2864
@<TRIPOS>BOND
     1     1     2    1
     2     1    16   ar
     3     1    25   ar
     4     2     3    1
     5     2    15    2
     6     3     4    1
     7     4     5   ar
     8     4    14   ar
     9     5     6   ar
    10     6     7   ar
    11     6    12    1
    12     7     8    1
    13     7    13   ar
    14     8     9    1
    15     9    10    1
    16    10    11    1
    17    11    12    1
    18    13    14   ar
    19    16    17   ar
    20    16    26    1
    21    17    18   ar
    22    18    19    1
    23    18    24   ar
    24    19    20    1
    25    20    21    1
    26    21    22   ar
    27    21    23   ar
    28    24    25   ar
