@<TRIPOS>MOLECULE
24112_ChemDiv_C561-2379
 29 32 0 0 0
SMALL
GASTEIGER
Energy = 0

@<TRIPOS>ATOM
      1 C           0.2500    1.2710    0.0000 C.ar    1  LIG1        0.1646
      2 N           0.9960    1.9420    0.0000 N.ar    1  LIG1       -0.2125
      3 N           1.8580    1.4420    0.0000 N.ar    1  LIG1       -0.1681
      4 C           1.6540    0.4630    0.0000 C.ar    1  LIG1        0.0824
      5 C           0.6580    0.3580    0.0000 C.ar    1  LIG1        0.0555
      6 C           0.0710   -0.4540    0.0000 C.ar    1  LIG1        0.0607
      7 C           0.4750   -1.3670    0.0000 C.2     1  LIG1        0.2692
      8 N          -0.1130   -2.1750    0.0000 N.am    1  LIG1       -0.1753
      9 C           0.2960   -3.0920    0.0000 C.ar    1  LIG1        0.0781
     10 C          -0.2920   -3.9000    0.0000 C.ar    1  LIG1        0.0720
     11 C          -1.2880   -3.7960    0.0000 C.2     1  LIG1        0.2854
     12 O          -1.6920   -2.8790    0.0000 O.2     1  LIG1       -0.2666
     13 N          -1.8750   -4.6040    0.0000 N.am    1  LIG1       -0.0837
     14 C           0.1170   -4.8130    0.0000 C.ar    1  LIG1        0.0059
     15 C           1.1080   -4.9170    0.0000 C.ar    1  LIG1        0.0002
     16 C           1.6960   -4.1080    0.0000 C.ar    1  LIG1        0.0013
     17 C           1.2920   -3.1960    0.0000 C.ar    1  LIG1        0.0168
     18 O           1.4710   -1.4710    0.0000 O.2     1  LIG1       -0.2680
     19 C          -0.9250   -0.3500    0.0000 C.ar    1  LIG1        0.0195
     20 C          -1.3290    0.5670    0.0000 C.ar    1  LIG1        0.0612
     21 N          -0.7420    1.3790    0.0000 N.ar    1  LIG1       -0.2309
     22 C          -2.3250    0.6710    0.0000 C.3     1  LIG1        0.0521
     23 C           2.3210   -0.2830    0.0000 C.3     1  LIG1        0.0540
     24 C           0.8920    2.9380    0.0000 C.ar    1  LIG1        0.0844
     25 C           1.7000    3.5250    0.0000 C.ar    1  LIG1        0.0192
     26 C           1.5960    4.5080    0.0000 C.ar    1  LIG1        0.0015
     27 C           0.6790    4.9170    0.0000 C.ar    1  LIG1        0.0001
     28 C          -0.1290    4.3290    0.0000 C.ar    1  LIG1        0.0015
     29 C          -0.0250    3.3420    0.0000 C.ar    1  LIG1        0.0192
@<TRIPOS>BOND
     1     1     2   ar
     2     1     5   ar
     3     1    21   ar
     4     2     3   ar
     5     2    24    1
     6     3     4   ar
     7     4     5   ar
     8     4    23    1
     9     5     6   ar
    10     6     7    1
    11     6    19   ar
    12     7     8   am
    13     7    18    2
    14     8     9    1
    15     9    10   ar
    16     9    17   ar
    17    10    11    1
    18    10    14   ar
    19    11    12    2
    20    11    13   am
    21    14    15   ar
    22    15    16   ar
    23    16    17   ar
    24    19    20   ar
    25    20    21   ar
    26    20    22    1
    27    24    25   ar
    28    24    29   ar
    29    25    26   ar
    30    26    27   ar
    31    27    28   ar
    32    28    29   ar
