@<TRIPOS>MOLECULE
24116_ChemDiv_000A-0372
 19 21 0 0 0
SMALL
GASTEIGER
Energy = 0

@<TRIPOS>ATOM
      1 N          -1.7250   -0.9790    0.0000 N.ar    1  LIG1       -0.2628
      2 C          -0.8580   -0.4920    0.0000 C.ar    1  LIG1        0.1697
      3 C          -0.8580    0.5250    0.0000 C.ar    1  LIG1        0.1714
      4 C          -1.7250    1.0130    0.0000 C.ar    1  LIG1        0.2850
      5 N          -2.5960    0.5250    0.0000 N.ar    1  LIG1       -0.2454
      6 C          -2.5960   -0.4920    0.0000 C.ar    1  LIG1        0.3350
      7 O          -3.4630   -1.0170    0.0000 O.2     1  LIG1       -0.2461
      8 C          -3.4630    1.0130    0.0000 C.3     1  LIG1        0.1383
      9 O          -1.7250    1.9960    0.0000 O.2     1  LIG1       -0.2651
     10 N          -0.0170    1.0130    0.0000 N.ar    1  LIG1       -0.2360
     11 C           0.8540    0.5250    0.0000 C.ar    1  LIG1        0.0993
     12 C           0.8540   -0.4920    0.0000 C.ar    1  LIG1        0.1019
     13 N          -0.0170   -0.9790    0.0000 N.ar    1  LIG1       -0.2249
     14 C           1.7210   -0.9790    0.0000 C.ar    1  LIG1        0.0387
     15 C           2.5920   -0.4920    0.0000 C.ar    1  LIG1        0.0907
     16 N           3.4580   -1.0170    0.0000 N.pl3   1  LIG1       -0.1280
     17 C           2.5920    0.5250    0.0000 C.ar    1  LIG1        0.0197
     18 C           1.7210    1.0130    0.0000 C.ar    1  LIG1        0.0220
     19 C          -1.7250   -1.9920    0.0000 C.3     1  LIG1        0.1366
@<TRIPOS>BOND
     1     1     2   ar
     2     1     6   ar
     3     1    19    1
     4     2     3   ar
     5     2    13   ar
     6     3     4   ar
     7     3    10   ar
     8     4     5   ar
     9     4     9    2
    10     5     6   ar
    11     5     8    1
    12     6     7    2
    13    10    11   ar
    14    11    12   ar
    15    11    18   ar
    16    12    13   ar
    17    12    14   ar
    18    14    15   ar
    19    15    16    1
    20    15    17   ar
    21    17    18   ar
