@<TRIPOS>MOLECULE
24118_ChemDiv_1317-0162
 27 30 0 0 0
SMALL
GASTEIGER
Energy = 0

@<TRIPOS>ATOM
      1 N          -3.1420   -0.1380    0.0000 N.ar    1  LIG1       -0.2628
      2 C          -2.2670    0.3670    0.0000 C.ar    1  LIG1        0.1697
      3 C          -2.2670    1.3630    0.0000 C.ar    1  LIG1        0.1714
      4 C          -3.1420    1.8670    0.0000 C.ar    1  LIG1        0.2850
      5 N          -4.0040    1.3630    0.0000 N.ar    1  LIG1       -0.2454
      6 C          -4.0040    0.3670    0.0000 C.ar    1  LIG1        0.3350
      7 O          -4.9040   -0.1380    0.0000 O.2     1  LIG1       -0.2461
      8 C          -4.9040    1.8130    0.0000 C.3     1  LIG1        0.1383
      9 O          -3.1670    2.8630    0.0000 O.2     1  LIG1       -0.2651
     10 N          -1.4000    1.8670    0.0000 N.ar    1  LIG1       -0.2360
     11 C          -0.5540    1.3630    0.0000 C.ar    1  LIG1        0.0993
     12 C          -0.5540    0.3670    0.0000 C.ar    1  LIG1        0.1018
     13 N          -1.4000   -0.1380    0.0000 N.ar    1  LIG1       -0.2249
     14 C           0.3080   -0.1380    0.0000 C.ar    1  LIG1        0.0373
     15 C           1.1830    0.3920    0.0000 C.ar    1  LIG1        0.0753
     16 N           2.0830   -0.0080    0.0000 N.am    1  LIG1       -0.1754
     17 C           2.1830   -1.0000    0.0000 C.2     1  LIG1        0.2690
     18 O           1.3330   -1.5380    0.0000 O.2     1  LIG1       -0.2680
     19 C           3.0830   -1.4130    0.0000 C.ar    1  LIG1        0.0554
     20 C           3.9250   -0.8500    0.0000 C.ar    1  LIG1        0.0046
     21 C           4.8250   -1.3000    0.0000 C.ar    1  LIG1        0.0001
     22 C           4.9000   -2.2880    0.0000 C.ar    1  LIG1        0.0000
     23 C           4.0540   -2.8580    0.0000 C.ar    1  LIG1        0.0001
     24 C           3.1500   -2.4080    0.0000 C.ar    1  LIG1        0.0046
     25 C           1.1830    1.3250    0.0000 C.ar    1  LIG1        0.0183
     26 C           0.3080    1.8380    0.0000 C.ar    1  LIG1        0.0220
     27 C          -3.1670   -1.1630    0.0000 C.3     1  LIG1        0.1366
@<TRIPOS>BOND
     1     1     2   ar
     2     1     6   ar
     3     1    27    1
     4     2     3   ar
     5     2    13   ar
     6     3     4   ar
     7     3    10   ar
     8     4     5   ar
     9     4     9    2
    10     5     6   ar
    11     5     8    1
    12     6     7    2
    13    10    11   ar
    14    11    12   ar
    15    11    26   ar
    16    12    13   ar
    17    12    14   ar
    18    14    15   ar
    19    15    16    1
    20    15    25   ar
    21    16    17   am
    22    17    18    2
    23    17    19    1
    24    19    20   ar
    25    19    24   ar
    26    20    21   ar
    27    21    22   ar
    28    22    23   ar
    29    23    24   ar
    30    25    26   ar
