@<TRIPOS>MOLECULE
24125_ChemDiv_000A-0285
 28 31 0 0 0
SMALL
GASTEIGER
Energy = 0

@<TRIPOS>ATOM
      1 C          -0.8710    1.5250    0.0000 C.2     1  LIG1        0.0507
      2 C          -0.8710    2.5380    0.0000 C.2     1  LIG1        0.1216
      3 O          -0.0170    3.0500    0.0000 O.2     1  LIG1       -0.4624
      4 C           0.8290    2.5380    0.0000 C.2     1  LIG1        0.1216
      5 C           0.8290    1.5250    0.0000 C.2     1  LIG1        0.0507
      6 C          -0.0170    1.0380    0.0000 C.3     1  LIG1        0.0776
      7 C           0.0130    0.0420    0.0000 C.ar    1  LIG1       -0.0138
      8 C           0.8670   -0.4880    0.0000 C.ar    1  LIG1       -0.0005
      9 C           0.8290   -1.4830    0.0000 C.ar    1  LIG1        0.0366
     10 C           0.0130   -1.9790    0.0000 C.ar    1  LIG1        0.1387
     11 C          -0.8710   -1.4830    0.0000 C.ar    1  LIG1        0.0366
     12 C          -0.8710   -0.4880    0.0000 C.ar    1  LIG1       -0.0005
     13 O           0.0420   -2.9830    0.0000 O.3     1  LIG1       -0.4714
     14 C          -0.8080   -3.5040    0.0000 C.3     1  LIG1        0.2525
     15 C           1.7210    1.0380    0.0000 C.2     1  LIG1        0.1723
     16 C           2.5750    1.5250    0.0000 C.3     1  LIG1        0.0693
     17 C           2.5750    2.5380    0.0000 C.3     1  LIG1        0.0144
     18 C           1.7210    3.0500    0.0000 C.3     1  LIG1        0.0647
     19 C           3.1170    3.3540    0.0000 C.3     1  LIG1        0.0009
     20 C           3.5460    2.2580    0.0000 C.3     1  LIG1        0.0009
     21 O           1.7460    0.0420    0.0000 O.2     1  LIG1       -0.2916
     22 C          -1.7630    3.0500    0.0000 C.3     1  LIG1        0.0647
     23 C          -2.6040    2.5380    0.0000 C.3     1  LIG1        0.0144
     24 C          -2.6040    1.5250    0.0000 C.3     1  LIG1        0.0693
     25 C          -1.7630    1.0380    0.0000 C.2     1  LIG1        0.1723
     26 O          -1.7880    0.0420    0.0000 O.2     1  LIG1       -0.2916
     27 C          -2.8290    3.5080    0.0000 C.3     1  LIG1        0.0009
     28 C          -3.5500    2.8420    0.0000 C.3     1  LIG1        0.0009
@<TRIPOS>BOND
     1     1     2    2
     2     1     6    1
     3     1    25    1
     4     2     3    1
     5     2    22    1
     6     3     4    1
     7     4     5    2
     8     4    18    1
     9     5     6    1
    10     5    15    1
    11     6     7    1
    12     7     8   ar
    13     7    12   ar
    14     8     9   ar
    15     9    10   ar
    16    10    11   ar
    17    10    13    1
    18    11    12   ar
    19    13    14    1
    20    15    16    1
    21    15    21    2
    22    16    17    1
    23    17    18    1
    24    17    19    1
    25    17    20    1
    26    22    23    1
    27    23    24    1
    28    23    27    1
    29    23    28    1
    30    24    25    1
    31    25    26    2
