@<TRIPOS>MOLECULE
24128_ChemDiv_C248-0118
 26 28 0 0 0
SMALL
GASTEIGER
Energy = 0

@<TRIPOS>ATOM
      1 N          -3.8130    0.5210    0.0000 N.ar    1  LIG1       -0.2456
      2 C          -3.8130   -0.5630    0.0000 C.ar    1  LIG1        0.3317
      3 N          -2.8630   -1.0920    0.0000 N.ar    1  LIG1       -0.2905
      4 C          -1.9170   -0.5630    0.0000 C.ar    1  LIG1        0.1664
      5 C          -1.9170    0.5210    0.0000 C.ar    1  LIG1        0.1712
      6 C          -2.8630    1.0540    0.0000 C.ar    1  LIG1        0.2850
      7 O          -2.8630    2.0500    0.0000 O.2     1  LIG1       -0.2651
      8 N          -0.9630    1.0540    0.0000 N.ar    1  LIG1       -0.2361
      9 C          -0.0210    0.5210    0.0000 C.ar    1  LIG1        0.0983
     10 C          -0.0210   -0.5630    0.0000 C.ar    1  LIG1        0.0939
     11 N          -0.9630   -1.0920    0.0000 N.ar    1  LIG1       -0.2257
     12 C           0.9210   -1.0920    0.0000 C.ar    1  LIG1       -0.0126
     13 C           1.8710   -0.5630    0.0000 C.ar    1  LIG1        0.0399
     14 N           2.9790   -1.1330    0.0000 N.am    1  LIG1       -0.2846
     15 C           3.7130   -0.7460    0.0000 C.2     1  LIG1        0.2261
     16 O           3.7500   -0.0500    0.0000 O.2     1  LIG1       -0.2748
     17 C           4.3080   -1.0330    0.0000 C.3     1  LIG1        0.0854
     18 C           4.8290   -0.7880    0.0000 C.3     1  LIG1        0.0101
     19 C           1.8710    0.5210    0.0000 C.ar    1  LIG1       -0.0074
     20 C           0.9210    1.0540    0.0000 C.ar    1  LIG1        0.0176
     21 C           2.8380    0.9460    0.0000 C.3     1  LIG1        0.0324
     22 O          -4.6920   -1.0330    0.0000 O.2     1  LIG1       -0.2464
     23 C          -4.8330    1.1080    0.0000 C.3     1  LIG1        0.1383
     24 H          -2.8630   -1.9000    0.0000 H       1  LIG1        0.1719
     25 H           0.9380   -2.0460    0.0000 H       1  LIG1        0.0658
     26 H           2.9540   -1.7670    0.0000 H       1  LIG1        0.1548
@<TRIPOS>BOND
     1     1     2   ar
     2     1     6   ar
     3     1    23    1
     4     2     3   ar
     5     2    22    2
     6     3     4   ar
     7     3    24    1
     8     4     5   ar
     9     4    11   ar
    10     5     6   ar
    11     5     8   ar
    12     6     7    2
    13     8     9   ar
    14     9    10   ar
    15     9    20   ar
    16    10    11   ar
    17    10    12   ar
    18    12    13   ar
    19    12    25    1
    20    13    14    1
    21    13    19   ar
    22    14    15   am
    23    14    26    1
    24    15    16    2
    25    15    17    1
    26    17    18    1
    27    19    20   ar
    28    19    21    1
