@<TRIPOS>MOLECULE
24120_ChemDiv_1317-0163
 25 28 0 0 0
SMALL
GASTEIGER
Energy = 0

@<TRIPOS>ATOM
      1 N          -1.3170    0.0790    0.0000 N.ar    1  LIG1       -0.2418
      2 C          -1.3170   -0.9170    0.0000 C.ar    1  LIG1        0.3541
      3 N          -0.4540   -1.4250    0.0000 N.ar    1  LIG1       -0.1714
      4 C           0.4250   -0.9170    0.0000 C.ar    1  LIG1        0.1895
      5 C           0.4250    0.0790    0.0000 C.ar    1  LIG1        0.1731
      6 C          -0.4540    0.5830    0.0000 C.ar    1  LIG1        0.2853
      7 O          -0.4790    1.5790    0.0000 O.2     1  LIG1       -0.2651
      8 N           1.2920    0.5830    0.0000 N.ar    1  LIG1       -0.2360
      9 C           2.1380    0.0790    0.0000 C.ar    1  LIG1        0.0989
     10 C           2.1380   -0.9170    0.0000 C.ar    1  LIG1        0.1019
     11 N           1.2920   -1.4250    0.0000 N.ar    1  LIG1       -0.2235
     12 C           3.0000   -1.4250    0.0000 C.ar    1  LIG1        0.0384
     13 C           3.8750   -0.8920    0.0000 C.ar    1  LIG1        0.0867
     14 C           3.8750    0.0380    0.0000 C.ar    1  LIG1       -0.0035
     15 C           3.0000    0.5540    0.0000 C.ar    1  LIG1        0.0177
     16 C           4.7670    0.4580    0.0000 C.3     1  LIG1        0.0325
     17 N           4.7790   -1.2920    0.0000 N.pl3   1  LIG1       -0.1283
     18 O          -2.2170   -1.4250    0.0000 O.2     1  LIG1       -0.2443
     19 C          -2.2170    0.5290    0.0000 C.3     1  LIG1        0.1404
     20 C          -3.0420   -0.0170    0.0000 C.ar    1  LIG1        0.0006
     21 C          -3.0250   -1.0420    0.0000 C.ar    1  LIG1       -0.0024
     22 C          -3.8380   -1.5750    0.0000 C.ar    1  LIG1       -0.0003
     23 C          -4.7460   -1.1000    0.0000 C.ar    1  LIG1       -0.0000
     24 C          -4.7830   -0.0750    0.0000 C.ar    1  LIG1       -0.0003
     25 C          -3.9290    0.4540    0.0000 C.ar    1  LIG1       -0.0024
@<TRIPOS>BOND
     1     1     2   ar
     2     1     6   ar
     3     1    19    1
     4     2     3   ar
     5     2    18    2
     6     3     4   ar
     7     4     5   ar
     8     4    11   ar
     9     5     6   ar
    10     5     8   ar
    11     6     7    2
    12     8     9   ar
    13     9    10   ar
    14     9    15   ar
    15    10    11   ar
    16    10    12   ar
    17    12    13   ar
    18    13    14   ar
    19    13    17    1
    20    14    15   ar
    21    14    16    1
    22    19    20    1
    23    20    21   ar
    24    20    25   ar
    25    21    22   ar
    26    22    23   ar
    27    23    24   ar
    28    24    25   ar
