@<TRIPOS>MOLECULE
24126_ChemDiv_C248-0087
 30 32 0 0 0
SMALL
GASTEIGER
Energy = 0

@<TRIPOS>ATOM
      1 N          -4.9250   -1.0080    0.0000 N.ar    1  LIG1       -0.2628
      2 C          -4.0420   -0.5130    0.0000 C.ar    1  LIG1        0.1697
      3 C          -4.0420    0.5000    0.0000 C.ar    1  LIG1        0.1714
      4 C          -4.9250    1.0000    0.0000 C.ar    1  LIG1        0.2850
      5 N          -5.8170    0.5000    0.0000 N.ar    1  LIG1       -0.2454
      6 C          -5.8170   -0.5130    0.0000 C.ar    1  LIG1        0.3350
      7 O          -6.6330   -0.9540    0.0000 O.2     1  LIG1       -0.2461
      8 C          -6.7670    1.0540    0.0000 C.3     1  LIG1        0.1383
      9 O          -4.9250    1.9290    0.0000 O.2     1  LIG1       -0.2651
     10 N          -3.1540    1.0000    0.0000 N.ar    1  LIG1       -0.2361
     11 C          -2.2670    0.5000    0.0000 C.ar    1  LIG1        0.0983
     12 C          -2.2670   -0.5130    0.0000 C.ar    1  LIG1        0.0977
     13 N          -3.1540   -1.0080    0.0000 N.ar    1  LIG1       -0.2252
     14 C          -1.3880   -1.0080    0.0000 C.ar    1  LIG1        0.0102
     15 C          -0.4960   -0.5130    0.0000 C.ar    1  LIG1        0.0399
     16 N           0.5420   -1.0500    0.0000 N.am    1  LIG1       -0.2846
     17 C           1.5460   -0.6460    0.0000 C.2     1  LIG1        0.2261
     18 O           1.5830    0.5210    0.0000 O.2     1  LIG1       -0.2748
     19 C           2.5290   -1.1040    0.0000 C.3     1  LIG1        0.0854
     20 C           3.3880   -0.7040    0.0000 C.3     1  LIG1        0.0096
     21 C           4.2670   -1.1790    0.0000 C.3     1  LIG1        0.0005
     22 C           5.1380   -0.7790    0.0000 C.3     1  LIG1        0.0000
     23 C           6.0040   -1.2580    0.0000 C.3     1  LIG1        0.0000
     24 C           6.7670   -0.8580    0.0000 C.3     1  LIG1        0.0000
     25 C          -0.4960    0.5000    0.0000 C.ar    1  LIG1       -0.0302
     26 C          -1.3880    1.0000    0.0000 C.ar    1  LIG1        0.0135
     27 C          -1.3710   -1.9000    0.0000 C.3     1  LIG1        0.0339
     28 C          -4.9250   -1.7670    0.0000 C.3     1  LIG1        0.1366
     29 H           0.5170   -1.9250    0.0000 H       1  LIG1        0.1548
     30 H           0.4080    0.9000    0.0000 H       1  LIG1        0.0643
@<TRIPOS>BOND
     1     1     2   ar
     2     1     6   ar
     3     1    28    1
     4     2     3   ar
     5     2    13   ar
     6     3     4   ar
     7     3    10   ar
     8     4     5   ar
     9     4     9    2
    10     5     6   ar
    11     5     8    1
    12     6     7    2
    13    10    11   ar
    14    11    12   ar
    15    11    26   ar
    16    12    13   ar
    17    12    14   ar
    18    14    15   ar
    19    14    27    1
    20    15    16    1
    21    15    25   ar
    22    16    17   am
    23    16    29    1
    24    17    18    2
    25    17    19    1
    26    19    20    1
    27    20    21    1
    28    21    22    1
    29    22    23    1
    30    23    24    1
    31    25    26   ar
    32    25    30    1
