@<TRIPOS>MOLECULE
24132_ChemDiv_C561-2731
 32 36 0 0 0
SMALL
GASTEIGER
Energy = 0

@<TRIPOS>ATOM
      1 N          -0.4830   -2.1790    0.0000 N.ar    1  LIG1       -0.2117
      2 C          -1.2920   -1.5920    0.0000 C.ar    1  LIG1        0.1646
      3 C          -0.9830   -0.6380    0.0000 C.ar    1  LIG1        0.0555
      4 C           0.0170   -0.6380    0.0000 C.ar    1  LIG1        0.0824
      5 N           0.3250   -1.5920    0.0000 N.ar    1  LIG1       -0.1681
      6 C           0.6040    0.1710    0.0000 C.3     1  LIG1        0.0540
      7 C          -1.6540    0.1080    0.0000 C.ar    1  LIG1        0.0604
      8 C          -1.3420    1.0580    0.0000 C.2     1  LIG1        0.2650
      9 O          -2.0130    1.8040    0.0000 O.2     1  LIG1       -0.2684
     10 N          -0.3670    1.2670    0.0000 N.am    1  LIG1       -0.2013
     11 C          -0.0580    2.2170    0.0000 C.3     1  LIG1        0.1202
     12 C           0.9210    2.4250    0.0000 C.3     1  LIG1        0.0514
     13 C           1.2290    3.3790    0.0000 C.ar    1  LIG1        0.0002
     14 C           0.6420    4.1790    0.0000 C.ar    1  LIG1        0.0946
     15 N           1.2290    4.9880    0.0000 N.ar    1  LIG1       -0.2442
     16 C           2.1830    4.6790    0.0000 C.ar    1  LIG1        0.0810
     17 C           2.1830    3.6880    0.0000 C.ar    1  LIG1        0.0152
     18 C           3.0500    3.1880    0.0000 C.ar    1  LIG1        0.0012
     19 C           3.9130    3.6880    0.0000 C.ar    1  LIG1        0.0001
     20 C           3.9130    4.6790    0.0000 C.ar    1  LIG1        0.0015
     21 C           3.0500    5.1790    0.0000 C.ar    1  LIG1        0.0191
     22 C          -2.6290   -0.1040    0.0000 C.ar    1  LIG1        0.0195
     23 C          -2.9420   -1.0540    0.0000 C.ar    1  LIG1        0.0612
     24 N          -2.2710   -1.8000    0.0000 N.ar    1  LIG1       -0.2309
     25 C          -3.9170   -1.2630    0.0000 C.3     1  LIG1        0.0521
     26 C          -0.4830   -3.1790    0.0000 C.ar    1  LIG1        0.0949
     27 C           0.3830   -3.6790    0.0000 C.ar    1  LIG1        0.0753
     28 CL          1.2500   -3.1790    0.0000 Cl      1  LIG1       -0.0807
     29 C           0.3830   -4.6790    0.0000 C.ar    1  LIG1        0.0129
     30 C          -0.4830   -5.1790    0.0000 C.ar    1  LIG1        0.0010
     31 C          -1.3500   -4.6790    0.0000 C.ar    1  LIG1        0.0016
     32 C          -1.3500   -3.6790    0.0000 C.ar    1  LIG1        0.0201
@<TRIPOS>BOND
     1     1     2   ar
     2     1     5   ar
     3     1    26    1
     4     2     3   ar
     5     2    24   ar
     6     3     4   ar
     7     3     7   ar
     8     4     5   ar
     9     4     6    1
    10     7     8    1
    11     7    22   ar
    12     8     9    2
    13     8    10   am
    14    10    11    1
    15    11    12    1
    16    12    13    1
    17    13    14   ar
    18    13    17   ar
    19    14    15   ar
    20    15    16   ar
    21    16    17   ar
    22    16    21   ar
    23    17    18   ar
    24    18    19   ar
    25    19    20   ar
    26    20    21   ar
    27    22    23   ar
    28    23    24   ar
    29    23    25    1
    30    26    27   ar
    31    26    32   ar
    32    27    28    1
    33    27    29   ar
    34    29    30   ar
    35    30    31   ar
    36    31    32   ar
