@<TRIPOS>MOLECULE
24137_ChemDiv_6164-0113
 17 18 0 0 0
SMALL
GASTEIGER
Energy = 0

@<TRIPOS>ATOM
      1 C           3.0380    1.6460    0.0000 C.ar    1  LIG1        0.2006
      2 N           2.9420    0.6580    0.0000 N.ar    1  LIG1       -0.2215
      3 C           1.9670    0.4460    0.0000 C.ar    1  LIG1        0.0895
      4 C           1.4670    1.3080    0.0000 C.ar    1  LIG1        0.0528
      5 S           2.1420    2.0460    0.0000 S.2     1  LIG1       -0.0483
      6 C           0.4630    1.3080    0.0000 C.ar    1  LIG1        0.0450
      7 C          -0.0290    0.4460    0.0000 C.ar    1  LIG1        0.1395
      8 C           0.4630   -0.4250    0.0000 C.ar    1  LIG1        0.0385
      9 C           1.4670   -0.4250    0.0000 C.ar    1  LIG1        0.0228
     10 O          -1.0330    0.4460    0.0000 O.3     1  LIG1       -0.4690
     11 C          -1.5290   -0.4170    0.0000 C.3     1  LIG1        0.2658
     12 C          -2.5380   -0.4170    0.0000 C.3     1  LIG1        0.1574
     13 N          -3.0380   -1.2790    0.0000 N.4     1  LIG1        0.3135
     14 C          -3.5380   -2.1540    0.0000 C.3     1  LIG1        0.1711
     15 C          -2.1630   -1.7880    0.0000 C.3     1  LIG1        0.1711
     16 C          -3.9040   -0.7790    0.0000 C.3     1  LIG1        0.1711
     17 N           3.9000    2.1580    0.0000 N.pl3   1  LIG1       -0.0998
@<TRIPOS>BOND
     1     1     2   ar
     2     1     5   ar
     3     1    17    1
     4     2     3   ar
     5     3     4   ar
     6     3     9   ar
     7     4     5   ar
     8     4     6   ar
     9     6     7   ar
    10     7     8   ar
    11     7    10    1
    12     8     9   ar
    13    10    11    1
    14    11    12    1
    15    12    13    1
    16    13    14    1
    17    13    15    1
    18    13    16    1
