@<TRIPOS>MOLECULE
24135_ChemDiv_000A-0160
 20 21 0 0 0
SMALL
GASTEIGER
Energy = 0

@<TRIPOS>ATOM
      1 C           3.4790   -0.0330    0.0000 C.ar    1  LIG1        0.1631
      2 N           2.8830   -0.8630    0.0000 N.ar    1  LIG1       -0.2241
      3 C           1.9500   -0.5670    0.0000 C.ar    1  LIG1        0.0894
      4 C           1.9500    0.4500    0.0000 C.ar    1  LIG1        0.0527
      5 S           2.8830    0.7460    0.0000 S.2     1  LIG1       -0.0514
      6 C           1.1000    0.9540    0.0000 C.ar    1  LIG1        0.0450
      7 C           0.2170    0.4540    0.0000 C.ar    1  LIG1        0.1395
      8 C           0.2170   -0.5880    0.0000 C.ar    1  LIG1        0.0385
      9 C           1.1000   -1.0710    0.0000 C.ar    1  LIG1        0.0228
     10 O          -0.6580    0.9830    0.0000 O.3     1  LIG1       -0.4690
     11 C          -1.5420    0.5000    0.0000 C.3     1  LIG1        0.2675
     12 C          -2.3790    1.0250    0.0000 C.3     1  LIG1        0.1867
     13 N          -3.2750    0.5540    0.0000 N.4     1  LIG1        0.3802
     14 C          -3.3080   -0.4500    0.0000 C.3     1  LIG1        0.1389
     15 C          -2.4670   -0.9790    0.0000 C.3     1  LIG1        0.0688
     16 C          -4.1000    1.0750    0.0000 C.3     1  LIG1        0.1389
     17 C          -4.9880    0.6290    0.0000 C.3     1  LIG1        0.0688
     18 N           4.4790   -0.0170    0.0000 N.pl3   1  LIG1       -0.2846
     19 C           4.9830   -0.8630    0.0000 C.3     1  LIG1        0.1141
     20 C           4.9460    0.8630    0.0000 C.3     1  LIG1        0.1141
@<TRIPOS>BOND
     1     1     2   ar
     2     1     5   ar
     3     1    18    1
     4     2     3   ar
     5     3     4   ar
     6     3     9   ar
     7     4     5   ar
     8     4     6   ar
     9     6     7   ar
    10     7     8   ar
    11     7    10    1
    12     8     9   ar
    13    10    11    1
    14    11    12    1
    15    12    13    1
    16    13    14    1
    17    13    16    1
    18    14    15    1
    19    16    17    1
    20    18    19    1
    21    18    20    1
