@<TRIPOS>MOLECULE
24139_ChemDiv_000A-0161
 26 29 0 0 0
SMALL
GASTEIGER
Energy = 0

@<TRIPOS>ATOM
      1 N           2.1630    0.7670    0.0000 N.ar    1  LIG1       -0.1467
      2 C           1.2670    1.2420    0.0000 C.ar    1  LIG1        0.1029
      3 C           0.4170    0.7670    0.0000 C.ar    1  LIG1        0.0222
      4 C           0.4170   -0.2540    0.0000 C.ar    1  LIG1        0.0363
      5 C           1.2670   -0.7630    0.0000 C.ar    1  LIG1        0.1694
      6 N           2.1630   -0.2540    0.0000 N.ar    1  LIG1       -0.1314
      7 N           1.2670   -1.7460    0.0000 N.pl3   1  LIG1       -0.2125
      8 C           0.4170   -2.2580    0.0000 C.3     1  LIG1        0.1762
      9 C           0.4170   -3.2290    0.0000 C.3     1  LIG1        0.1626
     10 N          -0.4500   -3.7330    0.0000 N.4     1  LIG1        0.3826
     11 C          -0.4500   -4.7210    0.0000 C.3     1  LIG1        0.1714
     12 C          -1.2830   -5.2250    0.0000 C.3     1  LIG1        0.2047
     13 O          -2.1670   -4.7210    0.0000 O.3     1  LIG1       -0.3411
     14 C          -2.1670   -3.7330    0.0000 C.3     1  LIG1        0.2047
     15 C          -1.2830   -3.2290    0.0000 C.3     1  LIG1        0.1714
     16 C          -0.4500   -0.7630    0.0000 C.ar    1  LIG1        0.0029
     17 C          -1.3210   -0.2540    0.0000 C.ar    1  LIG1        0.0001
     18 C          -1.3210    0.7670    0.0000 C.ar    1  LIG1        0.0001
     19 C          -0.4500    1.2420    0.0000 C.ar    1  LIG1        0.0016
     20 C           1.2670    2.2420    0.0000 C.ar    1  LIG1        0.0195
     21 C           2.1330    2.7170    0.0000 C.ar    1  LIG1        0.0024
     22 C           2.1330    3.7380    0.0000 C.ar    1  LIG1        0.0114
     23 C           1.2670    4.2040    0.0000 C.ar    1  LIG1        0.0577
     24 C           0.3920    3.7040    0.0000 C.ar    1  LIG1        0.0114
     25 C           0.3920    2.7170    0.0000 C.ar    1  LIG1        0.0024
     26 CL          1.2880    5.2250    0.0000 Cl      1  LIG1       -0.0822
@<TRIPOS>BOND
     1     1     2   ar
     2     1     6   ar
     3     2     3   ar
     4     2    20    1
     5     3     4   ar
     6     3    19   ar
     7     4     5   ar
     8     4    16   ar
     9     5     6   ar
    10     5     7    1
    11     7     8    1
    12     8     9    1
    13     9    10    1
    14    10    11    1
    15    10    15    1
    16    11    12    1
    17    12    13    1
    18    13    14    1
    19    14    15    1
    20    16    17   ar
    21    17    18   ar
    22    18    19   ar
    23    20    21   ar
    24    20    25   ar
    25    21    22   ar
    26    22    23   ar
    27    23    24   ar
    28    23    26    1
    29    24    25   ar
