@<TRIPOS>MOLECULE
24130_ChemDiv_C561-2567
 31 34 0 0 0
SMALL
GASTEIGER
Energy = 0

@<TRIPOS>ATOM
      1 C           0.5210    1.9380    0.0000 C.ar    1  LIG1        0.1646
      2 N           1.2670    2.6040    0.0000 N.ar    1  LIG1       -0.2125
      3 N           2.1330    2.1040    0.0000 N.ar    1  LIG1       -0.1681
      4 C           1.9250    1.1290    0.0000 C.ar    1  LIG1        0.0824
      5 C           0.9290    1.0250    0.0000 C.ar    1  LIG1        0.0555
      6 C           0.3420    0.2130    0.0000 C.ar    1  LIG1        0.0589
      7 C           0.7500   -0.7040    0.0000 C.2     1  LIG1        0.2493
      8 N           0.1630   -1.5130    0.0000 N.am    1  LIG1       -0.2726
      9 C          -0.8330   -1.4080    0.0000 C.3     1  LIG1        0.1153
     10 C          -1.4210   -2.2170    0.0000 C.3     1  LIG1        0.1182
     11 N          -1.0170   -3.1290    0.0000 N.am    1  LIG1       -0.2425
     12 C          -1.6040   -3.9380    0.0000 C.2     1  LIG1        0.4050
     13 O          -2.5960   -3.8330    0.0000 O.2     1  LIG1       -0.2262
     14 O          -1.1960   -4.8540    0.0000 O.3     1  LIG1       -0.4345
     15 C          -1.7830   -5.6630    0.0000 C.3     1  LIG1        0.2102
     16 C          -1.3750   -6.5750    0.0000 C.3     1  LIG1        0.0513
     17 C          -0.0210   -3.2330    0.0000 C.3     1  LIG1        0.1182
     18 C           0.5670   -2.4250    0.0000 C.3     1  LIG1        0.1153
     19 O           1.7420   -0.8080    0.0000 O.2     1  LIG1       -0.2699
     20 C          -0.6540    0.3210    0.0000 C.ar    1  LIG1        0.0194
     21 C          -1.0580    1.2330    0.0000 C.ar    1  LIG1        0.0612
     22 N          -0.4710    2.0420    0.0000 N.ar    1  LIG1       -0.2309
     23 C          -2.0540    1.3380    0.0000 C.3     1  LIG1        0.0521
     24 C           2.5920    0.3830    0.0000 C.3     1  LIG1        0.0540
     25 C           1.1630    3.6000    0.0000 C.ar    1  LIG1        0.0844
     26 C           1.9710    4.1790    0.0000 C.ar    1  LIG1        0.0189
     27 C           1.8670    5.1750    0.0000 C.ar    1  LIG1       -0.0027
     28 C           0.9540    5.5790    0.0000 C.ar    1  LIG1       -0.0218
     29 C           0.1420    4.9920    0.0000 C.ar    1  LIG1       -0.0027
     30 C           0.2460    4.0000    0.0000 C.ar    1  LIG1        0.0189
     31 C           0.8460    6.5750    0.0000 C.3     1  LIG1        0.0310
@<TRIPOS>BOND
     1     1     2   ar
     2     1     5   ar
     3     1    22   ar
     4     2     3   ar
     5     2    25    1
     6     3     4   ar
     7     4     5   ar
     8     4    24    1
     9     5     6   ar
    10     6     7    1
    11     6    20   ar
    12     7     8   am
    13     7    19    2
    14     8     9    1
    15     8    18    1
    16     9    10    1
    17    10    11    1
    18    11    12   am
    19    11    17    1
    20    12    13    2
    21    12    14    1
    22    14    15    1
    23    15    16    1
    24    17    18    1
    25    20    21   ar
    26    21    22   ar
    27    21    23    1
    28    25    26   ar
    29    25    30   ar
    30    26    27   ar
    31    27    28   ar
    32    28    29   ar
    33    28    31    1
    34    29    30   ar
