@<TRIPOS>MOLECULE
24136_ChemDiv_C561-3061
 34 38 0 0 0
SMALL
GASTEIGER
Energy = 0

@<TRIPOS>ATOM
      1 C          -2.1580   -1.0920    0.0000 C.ar    1  LIG1        0.1646
      2 N          -1.3500   -1.6790    0.0000 N.ar    1  LIG1       -0.2125
      3 N          -0.5420   -1.0920    0.0000 N.ar    1  LIG1       -0.1681
      4 C          -0.8500   -0.1380    0.0000 C.ar    1  LIG1        0.0824
      5 C          -1.8500   -0.1380    0.0000 C.ar    1  LIG1        0.0555
      6 C          -2.5170    0.6080    0.0000 C.ar    1  LIG1        0.0604
      7 C          -2.2080    1.5580    0.0000 C.2     1  LIG1        0.2650
      8 O          -2.8790    2.3040    0.0000 O.2     1  LIG1       -0.2684
      9 N          -1.2330    1.7670    0.0000 N.am    1  LIG1       -0.2013
     10 C          -0.9210    2.7170    0.0000 C.3     1  LIG1        0.1202
     11 C           0.0540    2.9250    0.0000 C.3     1  LIG1        0.0514
     12 C           0.3670    3.8750    0.0000 C.ar    1  LIG1        0.0003
     13 C           1.3170    4.1790    0.0000 C.ar    1  LIG1        0.0182
     14 C           1.3170    5.1790    0.0000 C.ar    1  LIG1        0.0812
     15 N           0.3670    5.4880    0.0000 N.ar    1  LIG1       -0.2442
     16 C          -0.2250    4.6790    0.0000 C.ar    1  LIG1        0.0946
     17 C           2.1830    5.6790    0.0000 C.ar    1  LIG1        0.0222
     18 C           3.0460    5.1790    0.0000 C.ar    1  LIG1        0.0384
     19 C           3.0460    4.1790    0.0000 C.ar    1  LIG1        0.1388
     20 C           2.1830    3.6880    0.0000 C.ar    1  LIG1        0.0381
     21 O           3.9130    3.6880    0.0000 O.3     1  LIG1       -0.4714
     22 C           4.7790    4.1790    0.0000 C.3     1  LIG1        0.2525
     23 C          -3.4960    0.4000    0.0000 C.ar    1  LIG1        0.0195
     24 C          -3.8040   -0.5540    0.0000 C.ar    1  LIG1        0.0612
     25 N          -3.1380   -1.3000    0.0000 N.ar    1  LIG1       -0.2309
     26 C          -4.7830   -0.7630    0.0000 C.3     1  LIG1        0.0521
     27 C          -0.2630    0.6750    0.0000 C.3     1  LIG1        0.0540
     28 C          -1.3500   -2.6790    0.0000 C.ar    1  LIG1        0.0844
     29 C          -0.4830   -3.1790    0.0000 C.ar    1  LIG1        0.0189
     30 C          -0.4830   -4.1790    0.0000 C.ar    1  LIG1       -0.0027
     31 C          -1.3500   -4.6790    0.0000 C.ar    1  LIG1       -0.0218
     32 C          -2.2170   -4.1790    0.0000 C.ar    1  LIG1       -0.0027
     33 C          -2.2170   -3.1790    0.0000 C.ar    1  LIG1        0.0189
     34 C          -1.3500   -5.6790    0.0000 C.3     1  LIG1        0.0310
@<TRIPOS>BOND
     1     1     2   ar
     2     1     5   ar
     3     1    25   ar
     4     2     3   ar
     5     2    28    1
     6     3     4   ar
     7     4     5   ar
     8     4    27    1
     9     5     6   ar
    10     6     7    1
    11     6    23   ar
    12     7     8    2
    13     7     9   am
    14     9    10    1
    15    10    11    1
    16    11    12    1
    17    12    13   ar
    18    12    16   ar
    19    13    14   ar
    20    13    20   ar
    21    14    15   ar
    22    14    17   ar
    23    15    16   ar
    24    17    18   ar
    25    18    19   ar
    26    19    20   ar
    27    19    21    1
    28    21    22    1
    29    23    24   ar
    30    24    25   ar
    31    24    26    1
    32    28    29   ar
    33    28    33   ar
    34    29    30   ar
    35    30    31   ar
    36    31    32   ar
    37    31    34    1
    38    32    33   ar
