@<TRIPOS>MOLECULE
24138_ChemDiv_C561-3087
 38 42 0 0 0
SMALL
GASTEIGER
Energy = 0

@<TRIPOS>ATOM
      1 C           1.0880    4.0040    0.0000 C.ar    1  LIG1        0.1646
      2 N           1.8330    4.6710    0.0000 N.ar    1  LIG1       -0.2125
      3 N           2.6960    4.1710    0.0000 N.ar    1  LIG1       -0.1681
      4 C           2.4920    3.2040    0.0000 C.ar    1  LIG1        0.0824
      5 C           1.4960    3.1000    0.0000 C.ar    1  LIG1        0.0555
      6 C           0.9080    2.2880    0.0000 C.ar    1  LIG1        0.0604
      7 C           1.3130    1.3750    0.0000 C.2     1  LIG1        0.2650
      8 N           0.7250    0.5670    0.0000 N.am    1  LIG1       -0.2017
      9 C           1.1330   -0.3500    0.0000 C.3     1  LIG1        0.1158
     10 C           0.5460   -1.1580    0.0000 C.3     1  LIG1        0.0336
     11 C           0.9500   -2.0750    0.0000 C.3     1  LIG1        0.0647
     12 C           0.3630   -2.8830    0.0000 C.3     1  LIG1        0.1386
     13 N          -0.6290   -2.7790    0.0000 N.4     1  LIG1        0.3775
     14 C          -1.2170   -3.5880    0.0000 C.3     1  LIG1        0.1433
     15 C          -0.8130   -4.5000    0.0000 C.3     1  LIG1        0.0890
     16 C          -1.4000   -5.3080    0.0000 C.ar    1  LIG1       -0.0160
     17 C          -2.3960   -5.2040    0.0000 C.ar    1  LIG1       -0.0009
     18 C          -2.9830   -6.0130    0.0000 C.ar    1  LIG1        0.0366
     19 C          -2.5750   -6.9290    0.0000 C.ar    1  LIG1        0.1387
     20 C          -1.5790   -7.0330    0.0000 C.ar    1  LIG1        0.0366
     21 C          -0.9920   -6.2250    0.0000 C.ar    1  LIG1       -0.0009
     22 O          -3.1630   -7.7380    0.0000 O.3     1  LIG1       -0.4714
     23 C          -2.7540   -8.6500    0.0000 C.3     1  LIG1        0.2525
     24 C          -1.0380   -1.8670    0.0000 C.3     1  LIG1        0.1386
     25 C          -0.4500   -1.0540    0.0000 C.3     1  LIG1        0.0647
     26 O           2.3080    1.2710    0.0000 O.2     1  LIG1       -0.2684
     27 C          -0.0880    2.3920    0.0000 C.ar    1  LIG1        0.0195
     28 C          -0.4960    3.3080    0.0000 C.ar    1  LIG1        0.0612
     29 N           0.0960    4.1080    0.0000 N.ar    1  LIG1       -0.2309
     30 C          -1.4880    3.4130    0.0000 C.3     1  LIG1        0.0521
     31 C           3.1580    2.4580    0.0000 C.3     1  LIG1        0.0540
     32 C           1.7290    5.6670    0.0000 C.ar    1  LIG1        0.0844
     33 C           0.8130    6.0750    0.0000 C.ar    1  LIG1        0.0189
     34 C           0.7080    7.0670    0.0000 C.ar    1  LIG1       -0.0027
     35 C           1.5170    7.6540    0.0000 C.ar    1  LIG1       -0.0218
     36 C           2.4330    7.2500    0.0000 C.ar    1  LIG1       -0.0027
     37 C           2.5380    6.2540    0.0000 C.ar    1  LIG1        0.0189
     38 C           1.4130    8.6500    0.0000 C.3     1  LIG1        0.0310
@<TRIPOS>BOND
     1     1     2   ar
     2     1     5   ar
     3     1    29   ar
     4     2     3   ar
     5     2    32    1
     6     3     4   ar
     7     4     5   ar
     8     4    31    1
     9     5     6   ar
    10     6     7    1
    11     6    27   ar
    12     7     8   am
    13     7    26    2
    14     8     9    1
    15     9    10    1
    16    10    11    1
    17    10    25    1
    18    11    12    1
    19    12    13    1
    20    13    14    1
    21    13    24    1
    22    14    15    1
    23    15    16    1
    24    16    17   ar
    25    16    21   ar
    26    17    18   ar
    27    18    19   ar
    28    19    20   ar
    29    19    22    1
    30    20    21   ar
    31    22    23    1
    32    24    25    1
    33    27    28   ar
    34    28    29   ar
    35    28    30    1
    36    32    33   ar
    37    32    37   ar
    38    33    34   ar
    39    34    35   ar
    40    35    36   ar
    41    35    38    1
    42    36    37   ar
