@<TRIPOS>MOLECULE
24133_ChemDiv_K978-1571
 30 32 0 0 0
SMALL
GASTEIGER
Energy = 0

@<TRIPOS>ATOM
      1 C           2.2630   -0.5500    0.0000 C.ar    1  LIG1        0.1440
      2 C           2.8540    0.2540    0.0000 C.ar    1  LIG1        0.2953
      3 N           3.8040   -0.0790    0.0000 N.ar    1  LIG1       -0.2134
      4 N           3.7790   -1.0630    0.0000 N.ar    1  LIG1       -0.2646
      5 C           2.8170   -1.3500    0.0000 C.ar    1  LIG1        0.0746
      6 C           2.4750   -2.2920    0.0000 C.3     1  LIG1        0.0532
      7 C           4.5750   -1.6830    0.0000 C.3     1  LIG1        0.1518
      8 C           4.5960    0.6500    0.0000 C.ar    1  LIG1        0.0841
      9 C           5.5630    0.4040    0.0000 C.ar    1  LIG1        0.0192
     10 C           6.2500    1.1330    0.0000 C.ar    1  LIG1        0.0015
     11 C           5.9710    2.0670    0.0000 C.ar    1  LIG1        0.0001
     12 C           5.0040    2.2960    0.0000 C.ar    1  LIG1        0.0015
     13 C           4.3210    1.5830    0.0000 C.ar    1  LIG1        0.0192
     14 O           2.5500    1.2250    0.0000 O.2     1  LIG1       -0.2637
     15 N           1.2580   -0.5500    0.0000 N.am    1  LIG1       -0.1731
     16 C           0.7580    0.3170    0.0000 C.2     1  LIG1        0.2475
     17 C          -0.2500    0.3170    0.0000 C.3     1  LIG1        0.1129
     18 C          -0.7500   -0.5500    0.0000 C.3     1  LIG1        0.1655
     19 S          -1.7540   -0.5500    0.0000 S.O2    1  LIG1        0.0092
     20 C          -2.7540   -0.5500    0.0000 C.ar    1  LIG1        0.1059
     21 C          -3.2540    0.3170    0.0000 C.ar    1  LIG1        0.0215
     22 C          -4.2540    0.3170    0.0000 C.ar    1  LIG1        0.0382
     23 C          -4.7540   -0.5500    0.0000 C.ar    1  LIG1        0.1388
     24 C          -4.2540   -1.4130    0.0000 C.ar    1  LIG1        0.0382
     25 C          -3.2540   -1.4130    0.0000 C.ar    1  LIG1        0.0215
     26 O          -5.7540   -0.5500    0.0000 O.3     1  LIG1       -0.4714
     27 C          -6.2500   -1.4130    0.0000 C.3     1  LIG1        0.2525
     28 O          -1.7540    0.4500    0.0000 O.2     1  LIG1       -0.1686
     29 O          -1.7420   -1.5500    0.0000 O.2     1  LIG1       -0.1686
     30 O           1.2580    1.1830    0.0000 O.2     1  LIG1       -0.2729
@<TRIPOS>BOND
     1     1     2   ar
     2     1     5   ar
     3     1    15    1
     4     2     3   ar
     5     2    14    2
     6     3     4   ar
     7     3     8    1
     8     4     5   ar
     9     4     7    1
    10     5     6    1
    11     8     9   ar
    12     8    13   ar
    13     9    10   ar
    14    10    11   ar
    15    11    12   ar
    16    12    13   ar
    17    15    16   am
    18    16    17    1
    19    16    30    2
    20    17    18    1
    21    18    19    1
    22    19    20    1
    23    19    28    2
    24    19    29    2
    25    20    21   ar
    26    20    25   ar
    27    21    22   ar
    28    22    23   ar
    29    23    24   ar
    30    23    26    1
    31    24    25   ar
    32    26    27    1
