@<TRIPOS>MOLECULE
24144_ChemDiv_C919-0021
 32 35 0 0 0
SMALL
GASTEIGER
Energy = 0

@<TRIPOS>ATOM
      1 C           1.9170   -1.7580    0.0000 C.ar    1  LIG1        0.1641
      2 N           2.2250   -2.7080    0.0000 N.ar    1  LIG1       -0.2125
      3 N           1.4170   -3.2920    0.0000 N.ar    1  LIG1       -0.1681
      4 C           0.6040   -2.7080    0.0000 C.ar    1  LIG1        0.0820
      5 C           0.9170   -1.7580    0.0000 C.ar    1  LIG1        0.0468
      6 C           0.4170   -0.8880    0.0000 C.ar    1  LIG1       -0.0205
      7 C           0.9170   -0.0250    0.0000 C.ar    1  LIG1       -0.0119
      8 C           1.9170   -0.0250    0.0000 C.ar    1  LIG1        0.0568
      9 N           2.4170   -0.8880    0.0000 N.ar    1  LIG1       -0.2312
     10 C           2.4170    0.8380    0.0000 C.3     1  LIG1        0.0518
     11 C           0.4170    0.8380    0.0000 C.3     1  LIG1        0.0369
     12 C          -0.5830    0.8380    0.0000 C.3     1  LIG1        0.0919
     13 C          -1.0830    1.7040    0.0000 C.2     1  LIG1        0.2459
     14 N          -2.0830    1.7040    0.0000 N.am    1  LIG1       -0.1791
     15 C          -2.5830    2.5750    0.0000 C.ar    1  LIG1        0.0778
     16 C          -3.5790    2.5750    0.0000 C.ar    1  LIG1        0.0720
     17 C          -4.0790    1.7040    0.0000 C.2     1  LIG1        0.2854
     18 O          -5.0790    1.7040    0.0000 O.2     1  LIG1       -0.2666
     19 N          -3.5790    0.8380    0.0000 N.am    1  LIG1       -0.0837
     20 C          -4.0790    3.4330    0.0000 C.ar    1  LIG1        0.0059
     21 C          -3.5790    4.3040    0.0000 C.ar    1  LIG1        0.0002
     22 C          -2.5830    4.3040    0.0000 C.ar    1  LIG1        0.0013
     23 C          -2.0830    3.4330    0.0000 C.ar    1  LIG1        0.0167
     24 O          -0.5830    2.5750    0.0000 O.2     1  LIG1       -0.2730
     25 C          -0.5830   -0.8880    0.0000 C.3     1  LIG1        0.0309
     26 C          -0.3460   -3.0210    0.0000 C.3     1  LIG1        0.0540
     27 C           3.1750   -3.0210    0.0000 C.ar    1  LIG1        0.0844
     28 C           3.3750   -3.9920    0.0000 C.ar    1  LIG1        0.0192
     29 C           4.3250   -4.3040    0.0000 C.ar    1  LIG1        0.0015
     30 C           5.0750   -3.6330    0.0000 C.ar    1  LIG1        0.0001
     31 C           4.8630   -2.6580    0.0000 C.ar    1  LIG1        0.0015
     32 C           3.9130   -2.3500    0.0000 C.ar    1  LIG1        0.0192
@<TRIPOS>BOND
     1     1     2   ar
     2     1     5   ar
     3     1     9   ar
     4     2     3   ar
     5     2    27    1
     6     3     4   ar
     7     4     5   ar
     8     4    26    1
     9     5     6   ar
    10     6     7   ar
    11     6    25    1
    12     7     8   ar
    13     7    11    1
    14     8     9   ar
    15     8    10    1
    16    11    12    1
    17    12    13    1
    18    13    14   am
    19    13    24    2
    20    14    15    1
    21    15    16   ar
    22    15    23   ar
    23    16    17    1
    24    16    20   ar
    25    17    18    2
    26    17    19   am
    27    20    21   ar
    28    21    22   ar
    29    22    23   ar
    30    27    28   ar
    31    27    32   ar
    32    28    29   ar
    33    29    30   ar
    34    30    31   ar
    35    31    32   ar
