@<TRIPOS>MOLECULE
24148_ChemDiv_C248-0238
 35 39 0 0 0
SMALL
GASTEIGER
Energy = 0

@<TRIPOS>ATOM
      1 N          -3.4670    0.8630    0.0000 N.ar    1  LIG1       -0.2495
      2 C          -3.4670   -0.1250    0.0000 C.ar    1  LIG1        0.3316
      3 N          -2.6040   -0.6170    0.0000 N.ar    1  LIG1       -0.2905
      4 C          -1.7290   -0.1250    0.0000 C.ar    1  LIG1        0.1664
      5 C          -1.7290    0.8630    0.0000 C.ar    1  LIG1        0.1712
      6 C          -2.6040    1.3540    0.0000 C.ar    1  LIG1        0.2848
      7 O          -2.6040    2.2880    0.0000 O.2     1  LIG1       -0.2651
      8 N          -0.8580    1.3540    0.0000 N.ar    1  LIG1       -0.2361
      9 C           0.0170    0.8630    0.0000 C.ar    1  LIG1        0.0983
     10 C           0.0170   -0.1250    0.0000 C.ar    1  LIG1        0.0939
     11 N          -0.8580   -0.6170    0.0000 N.ar    1  LIG1       -0.2257
     12 C           0.8830   -0.6170    0.0000 C.ar    1  LIG1       -0.0126
     13 C           1.7460   -0.1250    0.0000 C.ar    1  LIG1        0.0402
     14 N           2.7710   -0.6500    0.0000 N.am    1  LIG1       -0.2811
     15 C           3.9210   -0.1500    0.0000 C.2     1  LIG1        0.2495
     16 O           3.9580    0.9630    0.0000 O.2     1  LIG1       -0.2698
     17 C           4.8630   -0.6500    0.0000 C.ar    1  LIG1        0.0537
     18 C           5.7710   -0.1500    0.0000 C.ar    1  LIG1        0.0045
     19 C           6.6750   -0.7080    0.0000 C.ar    1  LIG1        0.0001
     20 C           6.6420   -1.7790    0.0000 C.ar    1  LIG1        0.0000
     21 C           5.7040   -2.2830    0.0000 C.ar    1  LIG1        0.0001
     22 C           4.8210   -1.7250    0.0000 C.ar    1  LIG1        0.0045
     23 C           1.7460    0.8630    0.0000 C.ar    1  LIG1       -0.0074
     24 C           0.8830    1.3540    0.0000 C.ar    1  LIG1        0.0176
     25 C           2.6420    1.2580    0.0000 C.3     1  LIG1        0.0324
     26 O          -4.2790   -0.5630    0.0000 O.2     1  LIG1       -0.2464
     27 C          -4.2630    1.4500    0.0000 C.3     1  LIG1        0.0928
     28 C          -4.8920    0.6750    0.0000 C.3     1  LIG1        0.0228
     29 C          -5.9080    0.9830    0.0000 C.3     1  LIG1        0.0019
     30 C          -6.6750    0.6750    0.0000 C.3     1  LIG1        0.0001
     31 C          -6.0290    1.4500    0.0000 C.3     1  LIG1        0.0019
     32 C          -5.0290    1.0750    0.0000 C.3     1  LIG1        0.0228
     33 H          -2.6040   -1.3500    0.0000 H       1  LIG1        0.1719
     34 H           0.8670   -1.5000    0.0000 H       1  LIG1        0.0658
     35 H           2.7420   -1.5210    0.0000 H       1  LIG1        0.1551
@<TRIPOS>BOND
     1     1     2   ar
     2     1     6   ar
     3     1    27    1
     4     2     3   ar
     5     2    26    2
     6     3     4   ar
     7     3    33    1
     8     4     5   ar
     9     4    11   ar
    10     5     6   ar
    11     5     8   ar
    12     6     7    2
    13     8     9   ar
    14     9    10   ar
    15     9    24   ar
    16    10    11   ar
    17    10    12   ar
    18    12    13   ar
    19    12    34    1
    20    13    14    1
    21    13    23   ar
    22    14    15   am
    23    14    35    1
    24    15    16    2
    25    15    17    1
    26    17    18   ar
    27    17    22   ar
    28    18    19   ar
    29    19    20   ar
    30    20    21   ar
    31    21    22   ar
    32    23    24   ar
    33    23    25    1
    34    27    28    1
    35    27    32    1
    36    28    29    1
    37    29    30    1
    38    30    31    1
    39    31    32    1
