@<TRIPOS>MOLECULE
24143_ChemDiv_3281-0915
 24 26 0 0 0
SMALL
GASTEIGER
Energy = 0

@<TRIPOS>ATOM
      1 N          -0.4540   -1.5000    0.0000 N.ar    1  LIG1       -0.2071
      2 N          -0.4540   -0.5000    0.0000 N.ar    1  LIG1       -0.1664
      3 C          -1.3290    0.0040    0.0000 C.ar    1  LIG1        0.1011
      4 C          -2.1920   -0.5000    0.0000 C.ar    1  LIG1        0.0240
      5 C          -2.1920   -1.5000    0.0000 C.ar    1  LIG1        0.0591
      6 C          -1.3290   -2.0040    0.0000 C.ar    1  LIG1        0.2768
      7 O          -1.3290   -3.0080    0.0000 O.2     1  LIG1       -0.2655
      8 C          -3.0540   -2.0040    0.0000 C.ar    1  LIG1        0.0048
      9 C          -3.9170   -1.5000    0.0000 C.ar    1  LIG1        0.0002
     10 C          -3.9170   -0.5000    0.0000 C.ar    1  LIG1        0.0001
     11 C          -3.0540    0.0040    0.0000 C.ar    1  LIG1        0.0017
     12 C          -1.3290    1.0080    0.0000 C.ar    1  LIG1        0.0193
     13 C          -0.4710    1.5130    0.0000 C.ar    1  LIG1        0.0016
     14 C          -0.4710    2.5130    0.0000 C.ar    1  LIG1        0.0000
     15 C          -1.3290    3.0130    0.0000 C.ar    1  LIG1        0.0000
     16 C          -2.1920    2.5130    0.0000 C.ar    1  LIG1        0.0000
     17 C          -2.1920    1.5130    0.0000 C.ar    1  LIG1        0.0016
     18 C           0.4420   -2.0210    0.0000 C.3     1  LIG1        0.2168
     19 C           1.3040   -1.5210    0.0000 C.2     1  LIG1        0.2664
     20 O           1.3040   -0.5170    0.0000 O.2     1  LIG1       -0.2712
     21 N           2.1630   -2.0210    0.0000 N.am    1  LIG1       -0.2009
     22 C           3.0170   -1.5290    0.0000 C.3     1  LIG1        0.1506
     23 C           3.8880   -2.0210    0.0000 C.3     1  LIG1        0.2054
     24 O           3.9130   -2.9960    0.0000 O.3     1  LIG1       -0.2184
@<TRIPOS>BOND
     1     1     2   ar
     2     1     6   ar
     3     1    18    1
     4     2     3   ar
     5     3     4   ar
     6     3    12    1
     7     4     5   ar
     8     4    11   ar
     9     5     6   ar
    10     5     8   ar
    11     6     7    2
    12     8     9   ar
    13     9    10   ar
    14    10    11   ar
    15    12    13   ar
    16    12    17   ar
    17    13    14   ar
    18    14    15   ar
    19    15    16   ar
    20    16    17   ar
    21    18    19    1
    22    19    20    2
    23    19    21   am
    24    21    22    1
    25    22    23    1
    26    23    24    1
