@<TRIPOS>MOLECULE
24146_ChemDiv_C248-0193
 35 37 0 0 0
SMALL
GASTEIGER
Energy = 0

@<TRIPOS>ATOM
      1 N          -3.6540    0.4920    0.0000 N.ar    1  LIG1       -0.2476
      2 C          -3.6540   -0.5170    0.0000 C.ar    1  LIG1        0.3316
      3 N          -2.7750   -1.0210    0.0000 N.ar    1  LIG1       -0.2905
      4 C          -1.8790   -0.5170    0.0000 C.ar    1  LIG1        0.1664
      5 C          -1.8790    0.4920    0.0000 C.ar    1  LIG1        0.1712
      6 C          -2.7750    0.9960    0.0000 C.ar    1  LIG1        0.2849
      7 O          -2.7750    1.9420    0.0000 O.2     1  LIG1       -0.2651
      8 N          -0.9960    0.9960    0.0000 N.ar    1  LIG1       -0.2361
      9 C          -0.1040    0.4920    0.0000 C.ar    1  LIG1        0.0981
     10 C          -0.1040   -0.5170    0.0000 C.ar    1  LIG1        0.0939
     11 N          -0.9960   -1.0210    0.0000 N.ar    1  LIG1       -0.2257
     12 C           0.7830   -1.0210    0.0000 C.ar    1  LIG1       -0.0129
     13 C           1.6630   -0.5170    0.0000 C.ar    1  LIG1        0.0361
     14 N           2.7080   -1.0500    0.0000 N.am    1  LIG1       -0.2849
     15 C           3.7080   -0.6500    0.0000 C.2     1  LIG1        0.2261
     16 O           3.7500    0.5080    0.0000 O.2     1  LIG1       -0.2748
     17 C           4.6960   -1.1080    0.0000 C.3     1  LIG1        0.0854
     18 C           5.5670   -0.7040    0.0000 C.3     1  LIG1        0.0096
     19 C           6.4380   -1.1920    0.0000 C.3     1  LIG1        0.0005
     20 C           7.3040   -0.7920    0.0000 C.3     1  LIG1        0.0000
     21 C           8.1830   -1.2670    0.0000 C.3     1  LIG1        0.0000
     22 C           8.9420   -0.8670    0.0000 C.3     1  LIG1        0.0000
     23 C           1.6630    0.4920    0.0000 C.ar    1  LIG1       -0.0305
     24 C           0.7830    0.9960    0.0000 C.ar    1  LIG1        0.0135
     25 O          -4.4830   -0.9630    0.0000 O.2     1  LIG1       -0.2464
     26 C          -4.6170    1.0460    0.0000 C.3     1  LIG1        0.1136
     27 C          -5.5380    0.5670    0.0000 C.3     1  LIG1        0.0247
     28 C          -6.3670    1.0710    0.0000 C.3     1  LIG1        0.0020
     29 C          -7.2290    0.6420    0.0000 C.3     1  LIG1        0.0001
     30 C          -8.0080    1.1460    0.0000 C.3     1  LIG1        0.0000
     31 C          -8.9420    0.7080    0.0000 C.3     1  LIG1        0.0000
     32 H          -2.7750   -1.7670    0.0000 H       1  LIG1        0.1719
     33 H           0.7630   -1.9210    0.0000 H       1  LIG1        0.0658
     34 H           2.6750   -1.9380    0.0000 H       1  LIG1        0.1548
     35 H           2.5750    0.8920    0.0000 H       1  LIG1        0.0643
@<TRIPOS>BOND
     1     1     2   ar
     2     1     6   ar
     3     1    26    1
     4     2     3   ar
     5     2    25    2
     6     3     4   ar
     7     3    32    1
     8     4     5   ar
     9     4    11   ar
    10     5     6   ar
    11     5     8   ar
    12     6     7    2
    13     8     9   ar
    14     9    10   ar
    15     9    24   ar
    16    10    11   ar
    17    10    12   ar
    18    12    13   ar
    19    12    33    1
    20    13    14    1
    21    13    23   ar
    22    14    15   am
    23    14    34    1
    24    15    16    2
    25    15    17    1
    26    17    18    1
    27    18    19    1
    28    19    20    1
    29    20    21    1
    30    21    22    1
    31    23    24   ar
    32    23    35    1
    33    26    27    1
    34    27    28    1
    35    28    29    1
    36    29    30    1
    37    30    31    1
