@<TRIPOS>MOLECULE
24142_ChemDiv_C561-3096
 32 36 0 0 0
SMALL
GASTEIGER
Energy = 0

@<TRIPOS>ATOM
      1 C           0.2960    1.7080    0.0000 C.ar    1  LIG1        0.1646
      2 N          -0.2040    0.8420    0.0000 N.ar    1  LIG1       -0.2125
      3 N           0.4630    0.0960    0.0000 N.ar    1  LIG1       -0.1681
      4 C           1.3750    0.5040    0.0000 C.ar    1  LIG1        0.0824
      5 C           1.2710    1.5000    0.0000 C.ar    1  LIG1        0.0555
      6 C           1.9420    2.2420    0.0000 C.ar    1  LIG1        0.0589
      7 C           2.9210    2.0330    0.0000 C.2     1  LIG1        0.2492
      8 N           3.2290    1.0830    0.0000 N.am    1  LIG1       -0.2757
      9 C           2.6420    0.2750    0.0000 C.3     1  LIG1        0.0980
     10 C           3.2290   -0.5380    0.0000 C.3     1  LIG1        0.0439
     11 C           2.9210   -1.4920    0.0000 C.ar    1  LIG1       -0.0208
     12 C           1.9420   -1.7000    0.0000 C.ar    1  LIG1       -0.0045
     13 C           1.6330   -2.6500    0.0000 C.ar    1  LIG1       -0.0046
     14 C           2.3000   -3.3920    0.0000 C.ar    1  LIG1       -0.0219
     15 C           3.2790   -3.1830    0.0000 C.ar    1  LIG1       -0.0046
     16 C           3.5880   -2.2330    0.0000 C.ar    1  LIG1       -0.0045
     17 C           1.9920   -4.3420    0.0000 C.3     1  LIG1        0.0310
     18 C           4.1790   -0.2290    0.0000 C.3     1  LIG1        0.0276
     19 C           4.1790    0.7750    0.0000 C.3     1  LIG1        0.0941
     20 O           3.5880    2.7750    0.0000 O.2     1  LIG1       -0.2699
     21 C           1.6330    3.1920    0.0000 C.ar    1  LIG1        0.0194
     22 C           0.6540    3.4000    0.0000 C.ar    1  LIG1        0.0612
     23 N          -0.0170    2.6580    0.0000 N.ar    1  LIG1       -0.2309
     24 C           0.3460    4.3420    0.0000 C.3     1  LIG1        0.0521
     25 C           2.2420    0.0000    0.0000 C.3     1  LIG1        0.0540
     26 C          -1.2000    0.7380    0.0000 C.ar    1  LIG1        0.0844
     27 C          -1.7880    1.5460    0.0000 C.ar    1  LIG1        0.0189
     28 C          -2.7830    1.4420    0.0000 C.ar    1  LIG1       -0.0027
     29 C          -3.1880    0.5250    0.0000 C.ar    1  LIG1       -0.0218
     30 C          -2.6000   -0.2880    0.0000 C.ar    1  LIG1       -0.0027
     31 C          -1.6080   -0.1830    0.0000 C.ar    1  LIG1        0.0189
     32 C          -4.1830    0.4210    0.0000 C.3     1  LIG1        0.0310
@<TRIPOS>BOND
     1     1     2   ar
     2     1     5   ar
     3     1    23   ar
     4     2     3   ar
     5     2    26    1
     6     3     4   ar
     7     4     5   ar
     8     4    25    1
     9     5     6   ar
    10     6     7    1
    11     6    21   ar
    12     7     8   am
    13     7    20    2
    14     8     9    1
    15     8    19    1
    16     9    10    1
    17    10    11    1
    18    10    18    1
    19    11    12   ar
    20    11    16   ar
    21    12    13   ar
    22    13    14   ar
    23    14    15   ar
    24    14    17    1
    25    15    16   ar
    26    18    19    1
    27    21    22   ar
    28    22    23   ar
    29    22    24    1
    30    26    27   ar
    31    26    31   ar
    32    27    28   ar
    33    28    29   ar
    34    29    30   ar
    35    29    32    1
    36    30    31   ar
