@<TRIPOS>MOLECULE
24147_ChemDiv_2039-0580
 35 38 0 0 0
SMALL
GASTEIGER
Energy = 0

@<TRIPOS>ATOM
      1 C          -0.8540    2.3290    0.0000 C.2     1  LIG1        0.0507
      2 C           0.0170    1.8170    0.0000 C.3     1  LIG1        0.0777
      3 C           0.8830    2.3290    0.0000 C.2     1  LIG1        0.0507
      4 C           0.8830    3.3130    0.0000 C.2     1  LIG1        0.1216
      5 O           0.0170    3.8170    0.0000 O.2     1  LIG1       -0.4624
      6 C          -0.8540    3.3130    0.0000 C.2     1  LIG1        0.1216
      7 C          -1.7210    3.8170    0.0000 C.3     1  LIG1        0.0647
      8 C          -2.5880    3.3130    0.0000 C.3     1  LIG1        0.0144
      9 C          -2.5880    2.3290    0.0000 C.3     1  LIG1        0.0693
     10 C          -1.7210    1.8170    0.0000 C.2     1  LIG1        0.1723
     11 O          -1.7210    0.8290    0.0000 O.2     1  LIG1       -0.2916
     12 C          -3.4500    3.8170    0.0000 C.3     1  LIG1        0.0009
     13 C          -3.4500    2.8170    0.0000 C.3     1  LIG1        0.0009
     14 C           1.7500    3.8170    0.0000 C.3     1  LIG1        0.0647
     15 C           2.6170    3.3130    0.0000 C.3     1  LIG1        0.0144
     16 C           2.6170    2.3290    0.0000 C.3     1  LIG1        0.0693
     17 C           1.7500    1.8170    0.0000 C.2     1  LIG1        0.1723
     18 O           1.7500    0.8290    0.0000 O.2     1  LIG1       -0.2916
     19 C           3.4710    3.8170    0.0000 C.3     1  LIG1        0.0009
     20 C           2.1080    4.1750    0.0000 C.3     1  LIG1        0.0009
     21 C           0.0170    0.8290    0.0000 C.ar    1  LIG1       -0.0107
     22 C           0.8830    0.3250    0.0000 C.ar    1  LIG1        0.0364
     23 C           0.8830   -0.6750    0.0000 C.ar    1  LIG1        0.1721
     24 C           0.0170   -1.1880    0.0000 C.ar    1  LIG1        0.1730
     25 O           0.0170   -2.1750    0.0000 O.3     1  LIG1       -0.4607
     26 C          -0.8540   -2.6790    0.0000 C.3     1  LIG1        0.3142
     27 C          -0.8710   -3.6790    0.0000 C.2     1  LIG1        0.3620
     28 O           0.0000   -4.1750    0.0000 O.2     1  LIG1       -0.2459
     29 O          -1.7380   -4.1750    0.0000 O.3     1  LIG1       -0.4459
     30 C          -2.5880   -3.6630    0.0000 C.3     1  LIG1        0.2087
     31 C          -3.4750   -4.1750    0.0000 C.3     1  LIG1        0.0513
     32 C          -0.8540   -0.6750    0.0000 C.ar    1  LIG1        0.0398
     33 C          -0.8540    0.3250    0.0000 C.ar    1  LIG1       -0.0003
     34 O           1.7500   -1.1880    0.0000 O.3     1  LIG1       -0.4684
     35 C           1.7500   -2.1920    0.0000 C.3     1  LIG1        0.2526
@<TRIPOS>BOND
     1     1     2    1
     2     1     6    2
     3     1    10    1
     4     2     3    1
     5     2    21    1
     6     3     4    2
     7     3    17    1
     8     4     5    1
     9     4    14    1
    10     5     6    1
    11     6     7    1
    12     7     8    1
    13     8     9    1
    14     8    12    1
    15     8    13    1
    16     9    10    1
    17    10    11    2
    18    14    15    1
    19    15    16    1
    20    15    19    1
    21    15    20    1
    22    16    17    1
    23    17    18    2
    24    21    22   ar
    25    21    33   ar
    26    22    23   ar
    27    23    24   ar
    28    23    34    1
    29    24    25    1
    30    24    32   ar
    31    25    26    1
    32    26    27    1
    33    27    28    2
    34    27    29    1
    35    29    30    1
    36    30    31    1
    37    32    33   ar
    38    34    35    1
