@<TRIPOS>MOLECULE
24141_ChemDiv_0479-0678
 24 27 0 0 0
SMALL
GASTEIGER
Energy = 0

@<TRIPOS>ATOM
      1 C          -1.0380   -0.2250    0.0000 C.ar    1  LIG1        0.1537
      2 N          -0.1630   -0.7290    0.0000 N.ar    1  LIG1       -0.1329
      3 N           0.6830   -0.2250    0.0000 N.ar    1  LIG1       -0.1468
      4 C           0.6580    0.7460    0.0000 C.ar    1  LIG1        0.1029
      5 C          -0.1630    1.2330    0.0000 C.ar    1  LIG1        0.0221
      6 C          -1.0380    0.7460    0.0000 C.ar    1  LIG1        0.0349
      7 C          -1.8960    1.1960    0.0000 C.ar    1  LIG1        0.0029
      8 C          -1.9170    2.2330    0.0000 C.ar    1  LIG1        0.0001
      9 C          -1.0380    2.7710    0.0000 C.ar    1  LIG1        0.0001
     10 C          -0.1960    2.2330    0.0000 C.ar    1  LIG1        0.0016
     11 C           1.5330    1.2580    0.0000 C.ar    1  LIG1        0.0195
     12 C           1.5330    2.2630    0.0000 C.ar    1  LIG1        0.0024
     13 C           2.4000    2.7540    0.0000 C.ar    1  LIG1        0.0114
     14 C           3.2630    2.2630    0.0000 C.ar    1  LIG1        0.0577
     15 C           3.3080    1.2330    0.0000 C.ar    1  LIG1        0.0114
     16 C           2.3830    0.7580    0.0000 C.ar    1  LIG1        0.0024
     17 CL          4.1250    2.7750    0.0000 Cl      1  LIG1       -0.0822
     18 N          -1.8960   -0.7290    0.0000 N.pl3   1  LIG1       -0.2809
     19 C          -2.8580   -0.4420    0.0000 C.3     1  LIG1        0.1555
     20 C          -3.5960   -1.1000    0.0000 C.3     1  LIG1        0.1608
     21 N          -3.3710   -2.0960    0.0000 N.4     1  LIG1        0.3847
     22 C          -2.4250   -2.3710    0.0000 C.3     1  LIG1        0.1608
     23 C          -1.6830   -1.7130    0.0000 C.3     1  LIG1        0.1555
     24 C          -4.1290   -2.7710    0.0000 C.3     1  LIG1        0.2024
@<TRIPOS>BOND
     1     1     2   ar
     2     1     6   ar
     3     1    18    1
     4     2     3   ar
     5     3     4   ar
     6     4     5   ar
     7     4    11    1
     8     5     6   ar
     9     5    10   ar
    10     6     7   ar
    11     7     8   ar
    12     8     9   ar
    13     9    10   ar
    14    11    12   ar
    15    11    16   ar
    16    12    13   ar
    17    13    14   ar
    18    14    15   ar
    19    14    17    1
    20    15    16   ar
    21    18    19    1
    22    18    23    1
    23    19    20    1
    24    20    21    1
    25    21    22    1
    26    21    24    1
    27    22    23    1
