@<TRIPOS>MOLECULE
24140_ChemDiv_C561-3092
 32 36 0 0 0
SMALL
GASTEIGER
Energy = 0

@<TRIPOS>ATOM
      1 C           1.4250    0.2670    0.0000 C.ar    1  LIG1        0.1646
      2 N           2.1710    0.9380    0.0000 N.ar    1  LIG1       -0.2125
      3 N           3.0380    0.4330    0.0000 N.ar    1  LIG1       -0.1681
      4 C           2.8290   -0.5420    0.0000 C.ar    1  LIG1        0.0824
      5 C           1.8330   -0.6500    0.0000 C.ar    1  LIG1        0.0555
      6 C           1.2460   -1.4630    0.0000 C.ar    1  LIG1        0.0589
      7 C           1.6540   -2.3750    0.0000 C.2     1  LIG1        0.2492
      8 N           1.0630   -3.1830    0.0000 N.am    1  LIG1       -0.2757
      9 C           0.0710   -3.0790    0.0000 C.3     1  LIG1        0.0980
     10 C          -0.5170   -3.8880    0.0000 C.3     1  LIG1        0.0422
     11 C          -1.5130   -3.7830    0.0000 C.ar    1  LIG1       -0.0208
     12 C          -2.1000   -4.5920    0.0000 C.ar    1  LIG1       -0.0042
     13 C          -3.0960   -4.4880    0.0000 C.ar    1  LIG1       -0.0003
     14 C          -3.5000   -3.5750    0.0000 C.ar    1  LIG1       -0.0000
     15 C          -2.9130   -2.7670    0.0000 C.ar    1  LIG1       -0.0003
     16 C          -1.9210   -2.8710    0.0000 C.ar    1  LIG1       -0.0042
     17 C          -0.1130   -4.8000    0.0000 C.3     1  LIG1        0.0078
     18 C           0.8830   -4.9040    0.0000 C.3     1  LIG1        0.0219
     19 C           1.4710   -4.0960    0.0000 C.3     1  LIG1        0.0937
     20 O           2.6460   -2.4790    0.0000 O.2     1  LIG1       -0.2699
     21 C           0.2500   -1.3540    0.0000 C.ar    1  LIG1        0.0194
     22 C          -0.1540   -0.4420    0.0000 C.ar    1  LIG1        0.0612
     23 N           0.4330    0.3710    0.0000 N.ar    1  LIG1       -0.2309
     24 C          -1.1500   -0.3380    0.0000 C.3     1  LIG1        0.0521
     25 C           3.4960   -1.2920    0.0000 C.3     1  LIG1        0.0540
     26 C           2.0670    1.9290    0.0000 C.ar    1  LIG1        0.0844
     27 C           2.8750    2.5170    0.0000 C.ar    1  LIG1        0.0189
     28 C           2.7710    3.5130    0.0000 C.ar    1  LIG1       -0.0027
     29 C           1.8540    3.9210    0.0000 C.ar    1  LIG1       -0.0218
     30 C           1.0460    3.3330    0.0000 C.ar    1  LIG1       -0.0027
     31 C           1.1500    2.3380    0.0000 C.ar    1  LIG1        0.0189
     32 C           1.7500    4.9040    0.0000 C.3     1  LIG1        0.0310
@<TRIPOS>BOND
     1     1     2   ar
     2     1     5   ar
     3     1    23   ar
     4     2     3   ar
     5     2    26    1
     6     3     4   ar
     7     4     5   ar
     8     4    25    1
     9     5     6   ar
    10     6     7    1
    11     6    21   ar
    12     7     8   am
    13     7    20    2
    14     8     9    1
    15     8    19    1
    16     9    10    1
    17    10    11    1
    18    10    17    1
    19    11    12   ar
    20    11    16   ar
    21    12    13   ar
    22    13    14   ar
    23    14    15   ar
    24    15    16   ar
    25    17    18    1
    26    18    19    1
    27    21    22   ar
    28    22    23   ar
    29    22    24    1
    30    26    27   ar
    31    26    31   ar
    32    27    28   ar
    33    28    29   ar
    34    29    30   ar
    35    29    32    1
    36    30    31   ar
