@<TRIPOS>MOLECULE
24158_ChemDiv_000A-0410
 30 33 0 0 0
SMALL
GASTEIGER
Energy = 0

@<TRIPOS>ATOM
      1 C           0.6710    1.2000    0.0000 C.ar    1  LIG1        0.1136
      2 C          -0.2000    0.7080    0.0000 C.ar    1  LIG1        0.1544
      3 O           0.0130   -0.3000    0.0000 O.2     1  LIG1       -0.4531
      4 C           0.9540   -0.3710    0.0000 C.ar    1  LIG1        0.1488
      5 C           1.3830    0.5040    0.0000 C.ar    1  LIG1        0.0470
      6 C           2.3920    0.5790    0.0000 C.ar    1  LIG1        0.0441
      7 C           2.9750   -0.2460    0.0000 C.ar    1  LIG1        0.1830
      8 C           2.5250   -1.1580    0.0000 C.ar    1  LIG1        0.1858
      9 C           1.5040   -1.2290    0.0000 C.ar    1  LIG1        0.0782
     10 O           3.0920   -1.9790    0.0000 O.3     1  LIG1       -0.4208
     11 C           4.1000   -1.9080    0.0000 C.2     1  LIG1        0.3221
     12 O           4.6540   -1.0130    0.0000 O.2     1  LIG1       -0.2497
     13 C           4.6000   -2.7130    0.0000 C.3     1  LIG1        0.1216
     14 O           3.9580   -0.1710    0.0000 O.3     1  LIG1       -0.4210
     15 C           4.3880    0.7210    0.0000 C.2     1  LIG1        0.3221
     16 O           3.9040    1.6500    0.0000 O.2     1  LIG1       -0.2497
     17 C           5.3420    0.7710    0.0000 C.3     1  LIG1        0.1216
     18 C          -1.0670    1.2000    0.0000 C.ar    1  LIG1        0.0696
     19 C          -1.0670    2.2000    0.0000 C.ar    1  LIG1        0.1547
     20 O          -0.2000    2.7000    0.0000 O.2     1  LIG1       -0.4208
     21 C           0.6710    2.2080    0.0000 C.ar    1  LIG1        0.3488
     22 O           1.5290    2.7170    0.0000 O.2     1  LIG1       -0.2444
     23 C          -1.9380    2.7000    0.0000 C.ar    1  LIG1        0.0753
     24 C          -2.8040    2.2000    0.0000 C.ar    1  LIG1        0.1515
     25 O          -3.6710    2.7000    0.0000 O.3     1  LIG1       -0.4240
     26 C          -4.5420    2.2080    0.0000 C.2     1  LIG1        0.3220
     27 O          -4.5420    1.1830    0.0000 O.2     1  LIG1       -0.2497
     28 C          -5.3460    2.7170    0.0000 C.3     1  LIG1        0.1216
     29 C          -2.8040    1.2000    0.0000 C.ar    1  LIG1        0.0379
     30 C          -1.9380    0.7000    0.0000 C.ar    1  LIG1        0.0092
@<TRIPOS>BOND
     1     1     2   ar
     2     1     5   ar
     3     1    21   ar
     4     2     3   ar
     5     2    18   ar
     6     3     4   ar
     7     4     5   ar
     8     4     9   ar
     9     5     6   ar
    10     6     7   ar
    11     7     8   ar
    12     7    14    1
    13     8     9   ar
    14     8    10    1
    15    10    11    1
    16    11    12    2
    17    11    13    1
    18    14    15    1
    19    15    16    2
    20    15    17    1
    21    18    19   ar
    22    18    30   ar
    23    19    20   ar
    24    19    23   ar
    25    20    21   ar
    26    21    22    2
    27    23    24   ar
    28    24    25    1
    29    24    29   ar
    30    25    26    1
    31    26    27    2
    32    26    28    1
    33    29    30   ar
