@<TRIPOS>MOLECULE
24150_ChemDiv_C248-0274
 31 34 0 0 0
SMALL
GASTEIGER
Energy = 0

@<TRIPOS>ATOM
      1 N          -2.6080    0.0830    0.0000 N.ar    1  LIG1       -0.2495
      2 C          -2.6080   -0.9830    0.0000 C.ar    1  LIG1        0.3316
      3 N          -1.6790   -1.5170    0.0000 N.ar    1  LIG1       -0.2905
      4 C          -0.7330   -0.9830    0.0000 C.ar    1  LIG1        0.1664
      5 C          -0.7330    0.0830    0.0000 C.ar    1  LIG1        0.1712
      6 C          -1.6790    0.6170    0.0000 C.ar    1  LIG1        0.2848
      7 O          -1.6790    1.6210    0.0000 O.2     1  LIG1       -0.2651
      8 N           0.2000    0.6170    0.0000 N.ar    1  LIG1       -0.2361
      9 C           1.1460    0.0830    0.0000 C.ar    1  LIG1        0.0983
     10 C           1.1460   -0.9830    0.0000 C.ar    1  LIG1        0.0939
     11 N           0.2000   -1.5170    0.0000 N.ar    1  LIG1       -0.2257
     12 C           2.0830   -1.5170    0.0000 C.ar    1  LIG1       -0.0126
     13 C           3.0130   -0.9830    0.0000 C.ar    1  LIG1        0.0399
     14 N           4.1210   -1.5460    0.0000 N.am    1  LIG1       -0.2846
     15 C           4.8460   -1.1710    0.0000 C.2     1  LIG1        0.2266
     16 O           4.8750   -0.4830    0.0000 O.2     1  LIG1       -0.2748
     17 C           5.4210   -1.4540    0.0000 C.3     1  LIG1        0.0949
     18 C           3.0130    0.0830    0.0000 C.ar    1  LIG1       -0.0074
     19 C           2.0830    0.6170    0.0000 C.ar    1  LIG1        0.0176
     20 C           3.9790    0.5080    0.0000 C.3     1  LIG1        0.0324
     21 O          -3.4880   -1.4540    0.0000 O.2     1  LIG1       -0.2464
     22 C          -3.5790    0.5670    0.0000 C.3     1  LIG1        0.0928
     23 C          -3.1750    1.3750    0.0000 C.3     1  LIG1        0.0228
     24 C          -3.5790    2.2330    0.0000 C.3     1  LIG1        0.0019
     25 C          -4.5500    2.4670    0.0000 C.3     1  LIG1        0.0001
     26 C          -5.4250    1.9040    0.0000 C.3     1  LIG1        0.0001
     27 C          -5.4250    0.9130    0.0000 C.3     1  LIG1        0.0019
     28 C          -4.5500    0.3710    0.0000 C.3     1  LIG1        0.0228
     29 H          -1.6790   -2.3040    0.0000 H       1  LIG1        0.1719
     30 H           2.0630   -2.4630    0.0000 H       1  LIG1        0.0658
     31 H           4.0880   -2.1830    0.0000 H       1  LIG1        0.1548
@<TRIPOS>BOND
     1     1     2   ar
     2     1     6   ar
     3     1    22    1
     4     2     3   ar
     5     2    21    2
     6     3     4   ar
     7     3    29    1
     8     4     5   ar
     9     4    11   ar
    10     5     6   ar
    11     5     8   ar
    12     6     7    2
    13     8     9   ar
    14     9    10   ar
    15     9    19   ar
    16    10    11   ar
    17    10    12   ar
    18    12    13   ar
    19    12    30    1
    20    13    14    1
    21    13    18   ar
    22    14    15   am
    23    14    31    1
    24    15    16    2
    25    15    17    1
    26    18    19   ar
    27    18    20    1
    28    22    23    1
    29    22    28    1
    30    23    24    1
    31    24    25    1
    32    25    26    1
    33    26    27    1
    34    27    28    1
