@<TRIPOS>MOLECULE
24163_ChemDiv_3993-1906
 23 26 0 0 0
SMALL
GASTEIGER
Energy = 0

@<TRIPOS>ATOM
      1 C           0.8580    0.4960    0.0000 C.ar    1  LIG1        0.1534
      2 N           1.7000    0.0250    0.0000 N.ar    1  LIG1       -0.1329
      3 N           1.7000   -1.0130    0.0000 N.ar    1  LIG1       -0.1468
      4 C           0.8580   -1.5170    0.0000 C.ar    1  LIG1        0.1029
      5 C          -0.0170   -1.0130    0.0000 C.ar    1  LIG1        0.0221
      6 C          -0.0170   -0.0040    0.0000 C.ar    1  LIG1        0.0349
      7 C          -0.8630    0.4960    0.0000 C.ar    1  LIG1        0.0029
      8 C          -1.7040    0.0250    0.0000 C.ar    1  LIG1        0.0001
      9 C          -1.7040   -1.0130    0.0000 C.ar    1  LIG1        0.0001
     10 C          -0.8630   -1.5170    0.0000 C.ar    1  LIG1        0.0016
     11 C           0.8580   -2.5080    0.0000 C.ar    1  LIG1        0.0194
     12 C          -0.0170   -3.0130    0.0000 C.ar    1  LIG1        0.0016
     13 C          -0.0170   -4.0330    0.0000 C.ar    1  LIG1        0.0000
     14 C           0.8580   -4.5250    0.0000 C.ar    1  LIG1        0.0000
     15 C           1.7000   -4.0330    0.0000 C.ar    1  LIG1        0.0000
     16 C           1.7000   -3.0130    0.0000 C.ar    1  LIG1        0.0016
     17 N           0.8580    1.4960    0.0000 N.pl3   1  LIG1       -0.2919
     18 C           1.7000    2.0000    0.0000 C.3     1  LIG1        0.0922
     19 C           1.7000    3.0170    0.0000 C.3     1  LIG1        0.0215
     20 C           0.8580    3.5080    0.0000 C.3     1  LIG1        0.0034
     21 C          -0.0170    3.0170    0.0000 C.3     1  LIG1        0.0215
     22 C          -0.0170    2.0000    0.0000 C.3     1  LIG1        0.0922
     23 C           0.8580    4.5250    0.0000 C.3     1  LIG1        0.0001
@<TRIPOS>BOND
     1     1     2   ar
     2     1     6   ar
     3     1    17    1
     4     2     3   ar
     5     3     4   ar
     6     4     5   ar
     7     4    11    1
     8     5     6   ar
     9     5    10   ar
    10     6     7   ar
    11     7     8   ar
    12     8     9   ar
    13     9    10   ar
    14    11    12   ar
    15    11    16   ar
    16    12    13   ar
    17    13    14   ar
    18    14    15   ar
    19    15    16   ar
    20    17    18    1
    21    17    22    1
    22    18    19    1
    23    19    20    1
    24    20    21    1
    25    20    23    1
    26    21    22    1
