@<TRIPOS>MOLECULE
24165_ChemDiv_4112-0378
 22 24 0 0 0
SMALL
GASTEIGER
Energy = 0

@<TRIPOS>ATOM
      1 N           1.2880   -0.5000    0.0000 N.ar    1  LIG1       -0.1467
      2 C           0.4210   -1.0330    0.0000 C.ar    1  LIG1        0.1029
      3 C          -0.4500   -0.5000    0.0000 C.ar    1  LIG1        0.0222
      4 C          -0.4500    0.4830    0.0000 C.ar    1  LIG1        0.0363
      5 C           0.4210    0.9750    0.0000 C.ar    1  LIG1        0.1692
      6 N           1.2880    0.4830    0.0000 N.ar    1  LIG1       -0.1314
      7 N           0.4210    1.9960    0.0000 N.pl3   1  LIG1       -0.2188
      8 C           1.2880    2.4920    0.0000 C.3     1  LIG1        0.1166
      9 C           1.2880    3.4750    0.0000 C.3     1  LIG1        0.0589
     10 C           2.1670    3.9750    0.0000 C.3     1  LIG1        0.1839
     11 O           2.1670    4.9960    0.0000 O.3     1  LIG1       -0.2204
     12 C          -1.3040    0.9750    0.0000 C.ar    1  LIG1        0.0029
     13 C          -2.1710    0.4830    0.0000 C.ar    1  LIG1        0.0001
     14 C          -2.1710   -0.5000    0.0000 C.ar    1  LIG1        0.0001
     15 C          -1.3040   -1.0330    0.0000 C.ar    1  LIG1        0.0016
     16 C           0.4210   -2.0040    0.0000 C.ar    1  LIG1        0.0194
     17 C          -0.4500   -2.5250    0.0000 C.ar    1  LIG1        0.0012
     18 C          -0.4500   -3.5080    0.0000 C.ar    1  LIG1       -0.0042
     19 C           0.4210   -4.0130    0.0000 C.ar    1  LIG1       -0.0218
     20 C           1.2880   -3.5080    0.0000 C.ar    1  LIG1       -0.0042
     21 C           1.2880   -2.5000    0.0000 C.ar    1  LIG1        0.0012
     22 C           0.4210   -4.9960    0.0000 C.3     1  LIG1        0.0310
@<TRIPOS>BOND
     1     1     2   ar
     2     1     6   ar
     3     2     3   ar
     4     2    16    1
     5     3     4   ar
     6     3    15   ar
     7     4     5   ar
     8     4    12   ar
     9     5     6   ar
    10     5     7    1
    11     7     8    1
    12     8     9    1
    13     9    10    1
    14    10    11    1
    15    12    13   ar
    16    13    14   ar
    17    14    15   ar
    18    16    17   ar
    19    16    21   ar
    20    17    18   ar
    21    18    19   ar
    22    19    20   ar
    23    19    22    1
    24    20    21   ar
