@<TRIPOS>MOLECULE
24162_ChemDiv_C919-0057
 31 35 0 0 0
SMALL
GASTEIGER
Energy = 0

@<TRIPOS>ATOM
      1 C           1.5580   -1.6830    0.0000 C.ar    1  LIG1        0.1641
      2 N           1.8670   -2.6330    0.0000 N.ar    1  LIG1       -0.2125
      3 N           1.0580   -3.2250    0.0000 N.ar    1  LIG1       -0.1681
      4 C           0.2460   -2.6330    0.0000 C.ar    1  LIG1        0.0820
      5 C           0.5580   -1.6830    0.0000 C.ar    1  LIG1        0.0468
      6 C           0.0630   -0.8130    0.0000 C.ar    1  LIG1       -0.0205
      7 C           0.5580    0.0500    0.0000 C.ar    1  LIG1       -0.0119
      8 C           1.5580    0.0500    0.0000 C.ar    1  LIG1        0.0568
      9 N           2.0580   -0.8130    0.0000 N.ar    1  LIG1       -0.2312
     10 C           2.0580    0.9130    0.0000 C.3     1  LIG1        0.0518
     11 C           0.0630    0.9130    0.0000 C.3     1  LIG1        0.0368
     12 C          -0.9380    0.9130    0.0000 C.3     1  LIG1        0.0903
     13 C          -1.4380    1.7790    0.0000 C.2     1  LIG1        0.2297
     14 N          -2.4380    1.7790    0.0000 N.am    1  LIG1       -0.2586
     15 C          -3.0250    2.5880    0.0000 C.ar    1  LIG1        0.0499
     16 C          -3.9790    2.2790    0.0000 C.ar    1  LIG1       -0.0068
     17 C          -3.9790    1.2790    0.0000 C.3     1  LIG1        0.0495
     18 C          -3.0250    0.9750    0.0000 C.3     1  LIG1        0.1029
     19 C          -4.7250    2.9500    0.0000 C.ar    1  LIG1       -0.0030
     20 C          -4.5130    3.9290    0.0000 C.ar    1  LIG1       -0.0002
     21 C          -3.5630    4.2290    0.0000 C.ar    1  LIG1        0.0013
     22 C          -2.8170    3.5670    0.0000 C.ar    1  LIG1        0.0146
     23 O          -0.9380    2.6500    0.0000 O.2     1  LIG1       -0.2745
     24 C          -0.9380   -0.8130    0.0000 C.3     1  LIG1        0.0309
     25 C          -0.7000   -2.9460    0.0000 C.3     1  LIG1        0.0540
     26 C           2.8170   -2.9460    0.0000 C.ar    1  LIG1        0.0844
     27 C           3.0210   -3.9210    0.0000 C.ar    1  LIG1        0.0192
     28 C           3.9710   -4.2290    0.0000 C.ar    1  LIG1        0.0015
     29 C           4.7210   -3.5630    0.0000 C.ar    1  LIG1        0.0001
     30 C           4.5080   -2.5830    0.0000 C.ar    1  LIG1        0.0015
     31 C           3.5580   -2.2750    0.0000 C.ar    1  LIG1        0.0192
@<TRIPOS>BOND
     1     1     2   ar
     2     1     5   ar
     3     1     9   ar
     4     2     3   ar
     5     2    26    1
     6     3     4   ar
     7     4     5   ar
     8     4    25    1
     9     5     6   ar
    10     6     7   ar
    11     6    24    1
    12     7     8   ar
    13     7    11    1
    14     8     9   ar
    15     8    10    1
    16    11    12    1
    17    12    13    1
    18    13    14   am
    19    13    23    2
    20    14    15    1
    21    14    18    1
    22    15    16   ar
    23    15    22   ar
    24    16    17    1
    25    16    19   ar
    26    17    18    1
    27    19    20   ar
    28    20    21   ar
    29    21    22   ar
    30    26    27   ar
    31    26    31   ar
    32    27    28   ar
    33    28    29   ar
    34    29    30   ar
    35    30    31   ar
