@<TRIPOS>MOLECULE
24168_ChemDiv_E981-2415
 33 37 0 0 0
SMALL
GASTEIGER
Energy = 0

@<TRIPOS>ATOM
      1 C          -1.3210   -0.9420    0.0000 C.ar    1  LIG1        0.1646
      2 N          -2.2710   -1.2580    0.0000 N.ar    1  LIG1       -0.2125
      3 N          -2.8580   -0.4420    0.0000 N.ar    1  LIG1       -0.1681
      4 C          -2.2710    0.3670    0.0000 C.ar    1  LIG1        0.0824
      5 C          -1.3210    0.0670    0.0000 C.ar    1  LIG1        0.0555
      6 C          -0.4630    0.5630    0.0000 C.ar    1  LIG1        0.0607
      7 C          -0.4630    1.5580    0.0000 C.2     1  LIG1        0.2692
      8 N           0.3960    2.0630    0.0000 N.am    1  LIG1       -0.1752
      9 C           0.4080    3.0460    0.0000 C.ar    1  LIG1        0.0799
     10 C           1.2710    3.5580    0.0000 C.ar    1  LIG1        0.0909
     11 C           2.1330    3.0580    0.0000 C.2     1  LIG1        0.3426
     12 O           2.1420    2.0540    0.0000 O.2     1  LIG1       -0.2448
     13 O           3.0080    3.5580    0.0000 O.3     1  LIG1       -0.4413
     14 C           3.8670    3.0630    0.0000 C.3     1  LIG1        0.2560
     15 C           1.2670    4.5500    0.0000 C.ar    1  LIG1        0.0078
     16 C           0.3960    5.0500    0.0000 C.ar    1  LIG1        0.0003
     17 C          -0.4630    4.5500    0.0000 C.ar    1  LIG1        0.0013
     18 C          -0.4630    3.5580    0.0000 C.ar    1  LIG1        0.0168
     19 O          -1.3210    2.0630    0.0000 O.2     1  LIG1       -0.2680
     20 C           0.3960    0.0670    0.0000 C.ar    1  LIG1        0.0194
     21 C           0.3960   -0.9420    0.0000 C.ar    1  LIG1        0.0604
     22 N          -0.4630   -1.4420    0.0000 N.ar    1  LIG1       -0.2309
     23 C           1.2710   -1.4420    0.0000 C.3     1  LIG1        0.0404
     24 C           1.7710   -2.3170    0.0000 C.3     1  LIG1        0.0063
     25 C           2.2790   -1.4420    0.0000 C.3     1  LIG1        0.0063
     26 C          -2.5880    1.3170    0.0000 C.3     1  LIG1        0.0540
     27 C          -2.5880   -2.2080    0.0000 C.ar    1  LIG1        0.0844
     28 C          -1.9080   -2.9380    0.0000 C.ar    1  LIG1        0.0189
     29 C          -2.2170   -3.8880    0.0000 C.ar    1  LIG1       -0.0027
     30 C          -3.2080   -4.1080    0.0000 C.ar    1  LIG1       -0.0218
     31 C          -3.8710   -3.3580    0.0000 C.ar    1  LIG1       -0.0027
     32 C          -3.5710   -2.4080    0.0000 C.ar    1  LIG1        0.0189
     33 C          -3.5080   -5.0500    0.0000 C.3     1  LIG1        0.0310
@<TRIPOS>BOND
     1     1     2   ar
     2     1     5   ar
     3     1    22   ar
     4     2     3   ar
     5     2    27    1
     6     3     4   ar
     7     4     5   ar
     8     4    26    1
     9     5     6   ar
    10     6     7    1
    11     6    20   ar
    12     7     8   am
    13     7    19    2
    14     8     9    1
    15     9    10   ar
    16     9    18   ar
    17    10    11    1
    18    10    15   ar
    19    11    12    2
    20    11    13    1
    21    13    14    1
    22    15    16   ar
    23    16    17   ar
    24    17    18   ar
    25    20    21   ar
    26    21    22   ar
    27    21    23    1
    28    23    24    1
    29    23    25    1
    30    24    25    1
    31    27    28   ar
    32    27    32   ar
    33    28    29   ar
    34    29    30   ar
    35    30    31   ar
    36    30    33    1
    37    31    32   ar
