@<TRIPOS>MOLECULE
24166_ChemDiv_E568-0051
 29 33 0 0 0
SMALL
GASTEIGER
Energy = 0

@<TRIPOS>ATOM
      1 C          -0.4460   -1.4960    0.0000 C.ar    1  LIG1        0.1646
      2 N           0.5330   -1.2920    0.0000 N.ar    1  LIG1       -0.2125
      3 N           0.6380   -0.2960    0.0000 N.ar    1  LIG1       -0.1681
      4 C          -0.2750    0.1130    0.0000 C.ar    1  LIG1        0.0824
      5 C          -0.9460   -0.6330    0.0000 C.ar    1  LIG1        0.0555
      6 C          -1.9460   -0.6330    0.0000 C.ar    1  LIG1        0.0592
      7 C          -2.4460    0.2330    0.0000 C.2     1  LIG1        0.2529
      8 N          -1.9460    1.1000    0.0000 N.am    1  LIG1       -0.2551
      9 C          -2.3500    2.0130    0.0000 C.ar    1  LIG1        0.0502
     10 C          -1.6080    2.6830    0.0000 C.ar    1  LIG1       -0.0067
     11 C          -0.7420    2.1830    0.0000 C.3     1  LIG1        0.0495
     12 C          -0.9500    1.2040    0.0000 C.3     1  LIG1        0.1032
     13 C          -1.8170    3.6630    0.0000 C.ar    1  LIG1       -0.0030
     14 C          -2.7670    3.9710    0.0000 C.ar    1  LIG1       -0.0002
     15 C          -3.5080    3.3000    0.0000 C.ar    1  LIG1        0.0013
     16 C          -3.3040    2.3250    0.0000 C.ar    1  LIG1        0.0146
     17 O          -3.4460    0.2330    0.0000 O.2     1  LIG1       -0.2696
     18 C          -2.4460   -1.4960    0.0000 C.ar    1  LIG1        0.0194
     19 C          -1.9460   -2.3630    0.0000 C.ar    1  LIG1        0.0612
     20 N          -0.9460   -2.3630    0.0000 N.ar    1  LIG1       -0.2309
     21 C          -2.4460   -3.2290    0.0000 C.3     1  LIG1        0.0521
     22 C          -0.4830    1.0880    0.0000 C.3     1  LIG1        0.0540
     23 C           1.2750   -1.9580    0.0000 C.ar    1  LIG1        0.0844
     24 C           1.0670   -2.9380    0.0000 C.ar    1  LIG1        0.0189
     25 C           1.8130   -3.6040    0.0000 C.ar    1  LIG1       -0.0027
     26 C           2.7630   -3.2960    0.0000 C.ar    1  LIG1       -0.0218
     27 C           2.9710   -2.3210    0.0000 C.ar    1  LIG1       -0.0027
     28 C           2.2290   -1.6500    0.0000 C.ar    1  LIG1        0.0189
     29 C           3.5040   -3.9670    0.0000 C.3     1  LIG1        0.0310
@<TRIPOS>BOND
     1     1     2   ar
     2     1     5   ar
     3     1    20   ar
     4     2     3   ar
     5     2    23    1
     6     3     4   ar
     7     4     5   ar
     8     4    22    1
     9     5     6   ar
    10     6     7    1
    11     6    18   ar
    12     7     8   am
    13     7    17    2
    14     8     9    1
    15     8    12    1
    16     9    10   ar
    17     9    16   ar
    18    10    11    1
    19    10    13   ar
    20    11    12    1
    21    13    14   ar
    22    14    15   ar
    23    15    16   ar
    24    18    19   ar
    25    19    20   ar
    26    19    21    1
    27    23    24   ar
    28    23    28   ar
    29    24    25   ar
    30    25    26   ar
    31    26    27   ar
    32    26    29    1
    33    27    28   ar
