@<TRIPOS>MOLECULE
24167_ChemDiv_4711-0022
 24 27 0 0 0
SMALL
GASTEIGER
Energy = 0

@<TRIPOS>ATOM
      1 C          -0.8790    1.1170    0.0000 C.ar    1  LIG1        0.1011
      2 N          -0.0130    0.6290    0.0000 N.ar    1  LIG1       -0.1666
      3 N          -0.0130   -0.3460    0.0000 N.ar    1  LIG1       -0.2105
      4 C          -0.8790   -0.8380    0.0000 C.ar    1  LIG1        0.2765
      5 C          -1.7420   -0.3460    0.0000 C.ar    1  LIG1        0.0591
      6 C          -1.7420    0.6290    0.0000 C.ar    1  LIG1        0.0240
      7 C          -2.6040    1.1170    0.0000 C.ar    1  LIG1        0.0017
      8 C          -2.3830    2.1130    0.0000 C.ar    1  LIG1        0.0016
      9 C          -1.1290    2.1130    0.0000 C.ar    1  LIG1        0.0193
     10 C          -0.7580    2.9750    0.0000 C.ar    1  LIG1        0.0016
     11 C          -1.2710    3.8420    0.0000 C.ar    1  LIG1        0.0000
     12 C          -2.2580    3.8420    0.0000 C.ar    1  LIG1        0.0000
     13 C          -2.7630    2.9750    0.0000 C.ar    1  LIG1        0.0000
     14 C          -3.4580    0.6290    0.0000 C.ar    1  LIG1        0.0001
     15 C          -3.4580   -0.3460    0.0000 C.ar    1  LIG1        0.0002
     16 C          -2.6040   -0.8380    0.0000 C.ar    1  LIG1        0.0048
     17 O          -0.8790   -1.8330    0.0000 O.2     1  LIG1       -0.2655
     18 C           0.8460   -0.8380    0.0000 C.3     1  LIG1        0.1930
     19 C           0.8460   -1.8330    0.0000 C.3     1  LIG1        0.1655
     20 N           1.7000   -2.3210    0.0000 N.4     1  LIG1        0.3788
     21 C           2.5880   -1.8330    0.0000 C.3     1  LIG1        0.1389
     22 C           3.4540   -2.3000    0.0000 C.3     1  LIG1        0.0688
     23 C           1.7670   -3.3580    0.0000 C.3     1  LIG1        0.1389
     24 C           2.6080   -3.8380    0.0000 C.3     1  LIG1        0.0688
@<TRIPOS>BOND
     1     1     2   ar
     2     1     6   ar
     3     1     9   ar
     4     2     3   ar
     5     3     4   ar
     6     3    18    1
     7     4     5   ar
     8     4    17    2
     9     5     6   ar
    10     5    16   ar
    11     6     7   ar
    12     7     8   ar
    13     7    14   ar
    14     8     9   ar
    15     8    13   ar
    16     9    10   ar
    17    10    11   ar
    18    11    12   ar
    19    12    13   ar
    20    14    15   ar
    21    15    16   ar
    22    18    19    1
    23    19    20    1
    24    20    21    1
    25    20    23    1
    26    21    22    1
    27    23    24    1
