@<TRIPOS>MOLECULE
24161_ChemDiv_3544-1039
 26 29 0 0 0
SMALL
GASTEIGER
Energy = 0

@<TRIPOS>ATOM
      1 N           1.7250    0.5170    0.0000 N.ar    1  LIG1       -0.1467
      2 C           0.8750    0.9920    0.0000 C.ar    1  LIG1        0.1029
      3 C          -0.0170    0.5170    0.0000 C.ar    1  LIG1        0.0222
      4 C          -0.0170   -0.4920    0.0000 C.ar    1  LIG1        0.0363
      5 C           0.8750   -1.0000    0.0000 C.ar    1  LIG1        0.1695
      6 N           1.7250   -0.4920    0.0000 N.ar    1  LIG1       -0.1314
      7 N           0.8750   -1.9790    0.0000 N.pl3   1  LIG1       -0.2140
      8 C          -0.0170   -2.4920    0.0000 C.3     1  LIG1        0.1402
      9 C          -0.0170   -3.4750    0.0000 C.ar    1  LIG1       -0.0006
     10 C          -0.8670   -3.9790    0.0000 C.ar    1  LIG1       -0.0026
     11 C          -0.8670   -4.9630    0.0000 C.ar    1  LIG1       -0.0003
     12 C          -0.0170   -5.4630    0.0000 C.ar    1  LIG1       -0.0000
     13 C           0.8750   -4.9630    0.0000 C.ar    1  LIG1       -0.0003
     14 C           0.8750   -3.9790    0.0000 C.ar    1  LIG1       -0.0026
     15 C          -0.8670   -1.0000    0.0000 C.ar    1  LIG1        0.0029
     16 C          -1.7290   -0.4920    0.0000 C.ar    1  LIG1        0.0001
     17 C          -1.7290    0.5170    0.0000 C.ar    1  LIG1        0.0001
     18 C          -0.8670    0.9920    0.0000 C.ar    1  LIG1        0.0016
     19 C           0.8750    2.0080    0.0000 C.ar    1  LIG1        0.0196
     20 C          -0.0170    2.4830    0.0000 C.ar    1  LIG1        0.0047
     21 C          -0.0170    3.4920    0.0000 C.ar    1  LIG1        0.0369
     22 C           0.8750    3.9830    0.0000 C.ar    1  LIG1        0.1387
     23 C           1.7250    3.4920    0.0000 C.ar    1  LIG1        0.0369
     24 C           1.7250    2.4830    0.0000 C.ar    1  LIG1        0.0047
     25 O           0.8750    4.9880    0.0000 O.3     1  LIG1       -0.4714
     26 C          -0.0170    5.4630    0.0000 C.3     1  LIG1        0.2525
@<TRIPOS>BOND
     1     1     2   ar
     2     1     6   ar
     3     2     3   ar
     4     2    19    1
     5     3     4   ar
     6     3    18   ar
     7     4     5   ar
     8     4    15   ar
     9     5     6   ar
    10     5     7    1
    11     7     8    1
    12     8     9    1
    13     9    10   ar
    14     9    14   ar
    15    10    11   ar
    16    11    12   ar
    17    12    13   ar
    18    13    14   ar
    19    15    16   ar
    20    16    17   ar
    21    17    18   ar
    22    19    20   ar
    23    19    24   ar
    24    20    21   ar
    25    21    22   ar
    26    22    23   ar
    27    22    25    1
    28    23    24   ar
    29    25    26    1
