@<TRIPOS>MOLECULE
24164_ChemDiv_C987-0042
 30 32 0 0 0
SMALL
GASTEIGER
Energy = 0

@<TRIPOS>ATOM
      1 C           0.9420   -1.3250    0.0000 C.ar    1  LIG1        0.1641
      2 N           1.2500   -2.2750    0.0000 N.ar    1  LIG1       -0.2125
      3 N           0.4420   -2.8630    0.0000 N.ar    1  LIG1       -0.1681
      4 C          -0.3670   -2.2750    0.0000 C.ar    1  LIG1        0.0820
      5 C          -0.0630   -1.3250    0.0000 C.ar    1  LIG1        0.0468
      6 C          -0.5580   -0.4580    0.0000 C.ar    1  LIG1       -0.0205
      7 C          -0.0630    0.4080    0.0000 C.ar    1  LIG1       -0.0119
      8 C           0.9420    0.4080    0.0000 C.ar    1  LIG1        0.0568
      9 N           1.4420   -0.4580    0.0000 N.ar    1  LIG1       -0.2312
     10 C           1.4420    1.2710    0.0000 C.3     1  LIG1        0.0518
     11 C          -0.5580    1.2710    0.0000 C.3     1  LIG1        0.0368
     12 C          -1.5580    1.2710    0.0000 C.3     1  LIG1        0.0900
     13 C          -2.0580    2.1420    0.0000 C.2     1  LIG1        0.2260
     14 N          -3.0580    2.1420    0.0000 N.am    1  LIG1       -0.2795
     15 C          -3.5580    3.0040    0.0000 C.3     1  LIG1        0.0934
     16 C          -4.5630    3.0040    0.0000 C.3     1  LIG1        0.0215
     17 C          -5.0580    3.8750    0.0000 C.3     1  LIG1        0.0018
     18 C          -3.5580    1.2710    0.0000 C.3     1  LIG1        0.0934
     19 C          -3.0580    0.4080    0.0000 C.3     1  LIG1        0.0215
     20 C          -3.5580   -0.4580    0.0000 C.3     1  LIG1        0.0018
     21 O          -1.5580    3.0040    0.0000 O.2     1  LIG1       -0.2749
     22 C          -1.5580   -0.4580    0.0000 C.3     1  LIG1        0.0309
     23 C          -1.3210   -2.5830    0.0000 C.3     1  LIG1        0.0540
     24 C           2.2040   -2.5830    0.0000 C.ar    1  LIG1        0.0844
     25 C           2.9460   -1.9170    0.0000 C.ar    1  LIG1        0.0189
     26 C           3.8920   -2.2210    0.0000 C.ar    1  LIG1       -0.0027
     27 C           4.1040   -3.2000    0.0000 C.ar    1  LIG1       -0.0218
     28 C           3.3630   -3.8710    0.0000 C.ar    1  LIG1       -0.0027
     29 C           2.4080   -3.5630    0.0000 C.ar    1  LIG1        0.0189
     30 C           5.0540   -3.5130    0.0000 C.3     1  LIG1        0.0310
@<TRIPOS>BOND
     1     1     2   ar
     2     1     5   ar
     3     1     9   ar
     4     2     3   ar
     5     2    24    1
     6     3     4   ar
     7     4     5   ar
     8     4    23    1
     9     5     6   ar
    10     6     7   ar
    11     6    22    1
    12     7     8   ar
    13     7    11    1
    14     8     9   ar
    15     8    10    1
    16    11    12    1
    17    12    13    1
    18    13    14   am
    19    13    21    2
    20    14    15    1
    21    14    18    1
    22    15    16    1
    23    16    17    1
    24    18    19    1
    25    19    20    1
    26    24    25   ar
    27    24    29   ar
    28    25    26   ar
    29    26    27   ar
    30    27    28   ar
    31    27    30    1
    32    28    29   ar
