@<TRIPOS>MOLECULE
24160_ChemDiv_0080-0009
 19 21 0 0 0
SMALL
GASTEIGER
Energy = 0

@<TRIPOS>ATOM
      1 C          -2.1830   -0.7250    0.0000 C.ar    1  LIG1        0.1560
      2 C          -1.6000    0.0750    0.0000 C.ar    1  LIG1        0.1716
      3 C          -0.6710   -0.2380    0.0000 C.ar    1  LIG1        0.0714
      4 C          -0.6710   -1.2420    0.0000 C.ar    1  LIG1        0.1509
      5 O          -1.6000   -1.5580    0.0000 O.2     1  LIG1       -0.4545
      6 C           0.1830   -1.7540    0.0000 C.ar    1  LIG1        0.0751
      7 C           1.0630   -1.2420    0.0000 C.ar    1  LIG1        0.1517
      8 O           1.9380   -1.7540    0.0000 O.2     1  LIG1       -0.4209
      9 C           2.7880   -1.2420    0.0000 C.ar    1  LIG1        0.3459
     10 C           2.7880   -0.2380    0.0000 C.ar    1  LIG1        0.0824
     11 C           1.9380    0.2710    0.0000 C.ar    1  LIG1        0.0097
     12 C           1.0630   -0.2380    0.0000 C.ar    1  LIG1        0.0352
     13 C           0.1830    0.2710    0.0000 C.ar    1  LIG1        0.0092
     14 O           3.6670   -1.7540    0.0000 O.2     1  LIG1       -0.2445
     15 O          -1.9170    1.0250    0.0000 O.3     1  LIG1       -0.4686
     16 C          -1.2540    1.7580    0.0000 C.3     1  LIG1        0.2526
     17 C          -3.1830   -0.7080    0.0000 C.3     1  LIG1        0.0606
     18 C          -3.6710    0.1460    0.0000 C.3     1  LIG1        0.0081
     19 C          -3.6710   -1.5790    0.0000 C.3     1  LIG1        0.0081
@<TRIPOS>BOND
     1     1     2   ar
     2     1     5   ar
     3     1    17    1
     4     2     3   ar
     5     2    15    1
     6     3     4   ar
     7     3    13   ar
     8     4     5   ar
     9     4     6   ar
    10     6     7   ar
    11     7     8   ar
    12     7    12   ar
    13     8     9   ar
    14     9    10   ar
    15     9    14    2
    16    10    11   ar
    17    11    12   ar
    18    12    13   ar
    19    15    16    1
    20    17    18    1
    21    17    19    1
