@<TRIPOS>MOLECULE
24169_ChemDiv_5233-2377
 31 34 0 0 0
SMALL
GASTEIGER
Energy = 0

@<TRIPOS>ATOM
      1 C          -0.4420   -3.2500    0.0000 C.ar    1  LIG1        0.1535
      2 N           0.4380   -2.7500    0.0000 N.ar    1  LIG1       -0.1329
      3 N           0.4380   -1.7580    0.0000 N.ar    1  LIG1       -0.1468
      4 C          -0.4420   -1.2500    0.0000 C.ar    1  LIG1        0.1029
      5 C          -1.2960   -1.7500    0.0000 C.ar    1  LIG1        0.0221
      6 C          -1.2960   -2.7500    0.0000 C.ar    1  LIG1        0.0349
      7 C          -2.1580   -3.2500    0.0000 C.ar    1  LIG1        0.0029
      8 C          -3.0330   -2.7500    0.0000 C.ar    1  LIG1        0.0001
      9 C          -3.0330   -1.7580    0.0000 C.ar    1  LIG1        0.0001
     10 C          -2.1670   -1.2500    0.0000 C.ar    1  LIG1        0.0016
     11 C          -0.4420   -0.2460    0.0000 C.ar    1  LIG1        0.0196
     12 C           0.4210    0.2500    0.0000 C.ar    1  LIG1        0.0047
     13 C           0.4380    1.2540    0.0000 C.ar    1  LIG1        0.0370
     14 C          -0.4420    1.7540    0.0000 C.ar    1  LIG1        0.1393
     15 O          -0.4420    2.7500    0.0000 O.3     1  LIG1       -0.4656
     16 C           0.4210    3.2500    0.0000 C.3     1  LIG1        0.2896
     17 C           0.4210    4.2420    0.0000 C.2     1  LIG1        0.2702
     18 N           1.2960    4.7420    0.0000 N.am    1  LIG1       -0.2765
     19 C           1.2880    5.7540    0.0000 C.3     1  LIG1        0.0936
     20 C           2.1580    6.2420    0.0000 C.3     1  LIG1        0.0233
     21 C           2.1580    4.2420    0.0000 C.3     1  LIG1        0.0936
     22 C           3.0290    4.7580    0.0000 C.3     1  LIG1        0.0233
     23 O          -0.4420    4.7420    0.0000 O.2     1  LIG1       -0.2708
     24 C          -1.2960    1.2540    0.0000 C.ar    1  LIG1        0.0370
     25 C          -1.2960    0.2500    0.0000 C.ar    1  LIG1        0.0047
     26 N          -0.4420   -4.2580    0.0000 N.pl3   1  LIG1       -0.2867
     27 C          -1.3080   -4.7420    0.0000 C.3     1  LIG1        0.1243
     28 C          -1.3080   -5.7500    0.0000 C.3     1  LIG1        0.1636
     29 O          -0.4460   -6.2420    0.0000 O.3     1  LIG1       -0.3501
     30 C           0.4210   -5.7500    0.0000 C.3     1  LIG1        0.1636
     31 C           0.4210   -4.7500    0.0000 C.3     1  LIG1        0.1243
@<TRIPOS>BOND
     1     1     2   ar
     2     1     6   ar
     3     1    26    1
     4     2     3   ar
     5     3     4   ar
     6     4     5   ar
     7     4    11    1
     8     5     6   ar
     9     5    10   ar
    10     6     7   ar
    11     7     8   ar
    12     8     9   ar
    13     9    10   ar
    14    11    12   ar
    15    11    25   ar
    16    12    13   ar
    17    13    14   ar
    18    14    15    1
    19    14    24   ar
    20    15    16    1
    21    16    17    1
    22    17    18   am
    23    17    23    2
    24    18    19    1
    25    18    21    1
    26    19    20    1
    27    21    22    1
    28    24    25   ar
    29    26    27    1
    30    26    31    1
    31    27    28    1
    32    28    29    1
    33    29    30    1
    34    30    31    1
