@<TRIPOS>MOLECULE
24179_ChemDiv_6134-4254
 36 40 0 0 0
SMALL
GASTEIGER
Energy = 0

@<TRIPOS>ATOM
      1 C           3.4540    1.0460    0.0000 C.2     1  LIG1        0.0507
      2 C           2.5880    1.5330    0.0000 C.3     1  LIG1        0.0778
      3 C           2.5710    2.5250    0.0000 C.2     1  LIG1        0.0507
      4 C           3.4210    3.0330    0.0000 C.2     1  LIG1        0.1216
      5 O           4.3000    2.5500    0.0000 O.2     1  LIG1       -0.4624
      6 C           4.3170    1.5630    0.0000 C.2     1  LIG1        0.1216
      7 C           5.1880    1.0670    0.0000 C.3     1  LIG1        0.0647
      8 C           5.1960    0.0670    0.0000 C.3     1  LIG1        0.0161
      9 C           4.3380   -0.4380    0.0000 C.3     1  LIG1        0.0694
     10 C           3.4670    0.0630    0.0000 C.2     1  LIG1        0.1723
     11 O           2.6000   -0.4630    0.0000 O.2     1  LIG1       -0.2916
     12 C           3.4170    4.0370    0.0000 C.3     1  LIG1        0.0647
     13 C           2.5380    4.5080    0.0000 C.3     1  LIG1        0.0161
     14 C           1.6920    4.0040    0.0000 C.3     1  LIG1        0.0694
     15 C           1.7080    3.0170    0.0000 C.2     1  LIG1        0.1723
     16 O           0.8420    2.5080    0.0000 O.2     1  LIG1       -0.2916
     17 C           1.7250    1.0290    0.0000 C.ar    1  LIG1       -0.0102
     18 C           1.7250    0.0290    0.0000 C.ar    1  LIG1        0.0063
     19 C           0.8580   -0.4710    0.0000 C.ar    1  LIG1        0.0712
     20 C          -0.0080    0.0210    0.0000 C.ar    1  LIG1        0.1788
     21 C          -0.0130    1.0290    0.0000 C.ar    1  LIG1        0.1726
     22 C           0.8540    1.5290    0.0000 C.ar    1  LIG1        0.0365
     23 O          -0.8920    1.5170    0.0000 O.3     1  LIG1       -0.4684
     24 C          -0.8920    2.5170    0.0000 C.3     1  LIG1        0.2526
     25 O          -0.8750   -0.4880    0.0000 O.3     1  LIG1       -0.4671
     26 C          -0.8630   -1.4830    0.0000 C.3     1  LIG1        0.2322
     27 C          -1.7290   -1.9830    0.0000 C.ar    1  LIG1        0.0212
     28 C          -1.7210   -2.9960    0.0000 C.ar    1  LIG1       -0.0007
     29 C          -2.5880   -3.5000    0.0000 C.ar    1  LIG1        0.0009
     30 C          -3.4580   -3.0000    0.0000 C.ar    1  LIG1        0.0140
     31 C          -4.3250   -3.5000    0.0000 C.2     1  LIG1        0.0729
     32 O          -5.2000   -3.0130    0.0000 O.co2   1  LIG1       -0.5446
     33 O          -4.3210   -4.5080    0.0000 O.co2   1  LIG1       -0.5446
     34 C          -3.4710   -2.0000    0.0000 C.ar    1  LIG1        0.0009
     35 C          -2.6040   -1.4830    0.0000 C.ar    1  LIG1       -0.0007
     36 BR          0.8710   -1.4670    0.0000 Br      1  LIG1       -0.0457
@<TRIPOS>BOND
     1     1     2    1
     2     1     6    2
     3     1    10    1
     4     2     3    1
     5     2    17    1
     6     3     4    2
     7     3    15    1
     8     4     5    1
     9     4    12    1
    10     5     6    1
    11     6     7    1
    12     7     8    1
    13     8     9    1
    14     9    10    1
    15    10    11    2
    16    12    13    1
    17    13    14    1
    18    14    15    1
    19    15    16    2
    20    17    18   ar
    21    17    22   ar
    22    18    19   ar
    23    19    20   ar
    24    19    36    1
    25    20    21   ar
    26    20    25    1
    27    21    22   ar
    28    21    23    1
    29    23    24    1
    30    25    26    1
    31    26    27    1
    32    27    28   ar
    33    27    35   ar
    34    28    29   ar
    35    29    30   ar
    36    30    31    1
    37    30    34   ar
    38    31    32   ar
    39    31    33   ar
    40    34    35   ar
