@<TRIPOS>MOLECULE
24171_ChemDiv_5233-2379
 33 36 0 0 0
SMALL
GASTEIGER
Energy = 0

@<TRIPOS>ATOM
      1 N           0.4380   -1.0080    0.0000 N.ar    1  LIG1       -0.1467
      2 C          -0.4420   -0.4960    0.0000 C.ar    1  LIG1        0.1029
      3 C          -1.2960   -0.9960    0.0000 C.ar    1  LIG1        0.0222
      4 C          -1.2960   -1.9960    0.0000 C.ar    1  LIG1        0.0363
      5 C          -0.4420   -2.4960    0.0000 C.ar    1  LIG1        0.1695
      6 N           0.4380   -1.9960    0.0000 N.ar    1  LIG1       -0.1314
      7 N          -0.4420   -3.5040    0.0000 N.pl3   1  LIG1       -0.2140
      8 C           0.4210   -3.9960    0.0000 C.3     1  LIG1        0.1402
      9 C           0.4210   -4.9960    0.0000 C.ar    1  LIG1       -0.0006
     10 C          -0.4460   -5.4920    0.0000 C.ar    1  LIG1       -0.0026
     11 C          -0.4630   -6.4790    0.0000 C.ar    1  LIG1       -0.0003
     12 C           0.4000   -6.9960    0.0000 C.ar    1  LIG1       -0.0000
     13 C           1.2830   -6.4960    0.0000 C.ar    1  LIG1       -0.0003
     14 C           1.2830   -5.5040    0.0000 C.ar    1  LIG1       -0.0026
     15 C          -2.1580   -2.4960    0.0000 C.ar    1  LIG1        0.0029
     16 C          -3.0290   -1.9960    0.0000 C.ar    1  LIG1        0.0001
     17 C          -3.0290   -1.0080    0.0000 C.ar    1  LIG1        0.0001
     18 C          -2.1670   -0.4960    0.0000 C.ar    1  LIG1        0.0016
     19 C          -0.4420    0.5080    0.0000 C.ar    1  LIG1        0.0196
     20 C          -1.2960    1.0000    0.0000 C.ar    1  LIG1        0.0047
     21 C          -1.2960    2.0040    0.0000 C.ar    1  LIG1        0.0370
     22 C          -0.4420    2.5040    0.0000 C.ar    1  LIG1        0.1393
     23 O          -0.4420    3.5000    0.0000 O.3     1  LIG1       -0.4656
     24 C           0.4210    4.0000    0.0000 C.3     1  LIG1        0.2896
     25 C           0.4210    4.9960    0.0000 C.2     1  LIG1        0.2702
     26 N           1.2960    5.4960    0.0000 N.am    1  LIG1       -0.2765
     27 C           2.1580    4.9960    0.0000 C.3     1  LIG1        0.0936
     28 C           3.0250    5.5080    0.0000 C.3     1  LIG1        0.0233
     29 C           1.2830    6.5040    0.0000 C.3     1  LIG1        0.0936
     30 C           2.1580    6.9960    0.0000 C.3     1  LIG1        0.0233
     31 O          -0.4420    5.4960    0.0000 O.2     1  LIG1       -0.2708
     32 C           0.4380    2.0040    0.0000 C.ar    1  LIG1        0.0370
     33 C           0.4210    1.0000    0.0000 C.ar    1  LIG1        0.0047
@<TRIPOS>BOND
     1     1     2   ar
     2     1     6   ar
     3     2     3   ar
     4     2    19    1
     5     3     4   ar
     6     3    18   ar
     7     4     5   ar
     8     4    15   ar
     9     5     6   ar
    10     5     7    1
    11     7     8    1
    12     8     9    1
    13     9    10   ar
    14     9    14   ar
    15    10    11   ar
    16    11    12   ar
    17    12    13   ar
    18    13    14   ar
    19    15    16   ar
    20    16    17   ar
    21    17    18   ar
    22    19    20   ar
    23    19    33   ar
    24    20    21   ar
    25    21    22   ar
    26    22    23    1
    27    22    32   ar
    28    23    24    1
    29    24    25    1
    30    25    26   am
    31    25    31    2
    32    26    27    1
    33    26    29    1
    34    27    28    1
    35    29    30    1
    36    32    33   ar
