@<TRIPOS>MOLECULE
24174_ChemDiv_000A-0754
 13 14 0 0 0
SMALL
GASTEIGER
Energy = 0

@<TRIPOS>ATOM
      1 C          -0.2250   -0.5000    0.0000 C.ar    1  LIG1        0.1954
      2 C           0.7710   -0.5040    0.0000 C.ar    1  LIG1        0.2661
      3 N           1.0710   -1.4630    0.0000 N.ar    1  LIG1       -0.1530
      4 S           0.2580   -2.0420    0.0000 S.2     1  LIG1        0.1206
      5 N          -0.5580   -1.4380    0.0000 N.ar    1  LIG1       -0.1716
      6 O           1.3750    0.2880    0.0000 O.3     1  LIG1       -0.4539
      7 C           2.3630    0.1670    0.0000 C.3     1  LIG1        0.2543
      8 N          -0.8000    0.3130    0.0000 N.pl3   1  LIG1       -0.2838
      9 C          -1.7960    0.2250    0.0000 C.3     1  LIG1        0.1244
     10 C          -2.3670    1.0500    0.0000 C.3     1  LIG1        0.1636
     11 O          -1.9380    1.9540    0.0000 O.3     1  LIG1       -0.3501
     12 C          -0.9500    2.0460    0.0000 C.3     1  LIG1        0.1636
     13 C          -0.3750    1.2330    0.0000 C.3     1  LIG1        0.1244
@<TRIPOS>BOND
     1     1     2   ar
     2     1     5   ar
     3     1     8    1
     4     2     3   ar
     5     2     6    1
     6     3     4   ar
     7     4     5   ar
     8     6     7    1
     9     8     9    1
    10     8    13    1
    11     9    10    1
    12    10    11    1
    13    11    12    1
    14    12    13    1
