@<TRIPOS>MOLECULE
24172_ChemDiv_E981-2485
 35 39 0 0 0
SMALL
GASTEIGER
Energy = 0

@<TRIPOS>ATOM
      1 C          -0.9170   -1.6790    0.0000 C.ar    1  LIG1        0.1646
      2 N          -1.8670   -1.9960    0.0000 N.ar    1  LIG1       -0.2125
      3 N          -2.4540   -1.1790    0.0000 N.ar    1  LIG1       -0.1681
      4 C          -1.8670   -0.3710    0.0000 C.ar    1  LIG1        0.0824
      5 C          -0.9170   -0.6750    0.0000 C.ar    1  LIG1        0.0555
      6 C          -0.0580   -0.1750    0.0000 C.ar    1  LIG1        0.0607
      7 C          -0.0580    0.8170    0.0000 C.2     1  LIG1        0.2692
      8 N           0.8000    1.3210    0.0000 N.am    1  LIG1       -0.1723
      9 C           0.8080    2.3210    0.0000 C.ar    1  LIG1        0.1105
     10 C           1.6670    2.8000    0.0000 C.ar    1  LIG1        0.0566
     11 C           1.6880    3.7960    0.0000 C.ar    1  LIG1        0.1401
     12 C           0.8250    4.3000    0.0000 C.ar    1  LIG1        0.0401
     13 C          -0.0290    3.8210    0.0000 C.ar    1  LIG1        0.0414
     14 C          -0.0500    2.8000    0.0000 C.ar    1  LIG1        0.1539
     15 O          -0.9250    2.3170    0.0000 O.3     1  LIG1       -0.4741
     16 C          -1.7920    2.8330    0.0000 C.3     1  LIG1        0.2056
     17 C          -2.6710    2.3210    0.0000 C.3     1  LIG1        0.0512
     18 O           2.5630    4.2750    0.0000 O.3     1  LIG1       -0.4754
     19 C           2.5750    5.2830    0.0000 C.3     1  LIG1        0.2055
     20 C           3.4630    5.7790    0.0000 C.3     1  LIG1        0.0512
     21 O          -0.9170    1.3210    0.0000 O.2     1  LIG1       -0.2680
     22 C           0.8000   -0.6750    0.0000 C.ar    1  LIG1        0.0194
     23 C           0.8000   -1.6790    0.0000 C.ar    1  LIG1        0.0604
     24 N          -0.0580   -2.1790    0.0000 N.ar    1  LIG1       -0.2309
     25 C           1.6710   -2.1790    0.0000 C.3     1  LIG1        0.0404
     26 C           2.1710   -3.0540    0.0000 C.3     1  LIG1        0.0063
     27 C           2.6790   -2.1790    0.0000 C.3     1  LIG1        0.0063
     28 C          -2.1830    0.5750    0.0000 C.3     1  LIG1        0.0540
     29 C          -2.1830   -2.9420    0.0000 C.ar    1  LIG1        0.0844
     30 C          -3.1630   -3.1460    0.0000 C.ar    1  LIG1        0.0189
     31 C          -3.4670   -4.0920    0.0000 C.ar    1  LIG1       -0.0027
     32 C          -2.8000   -4.8420    0.0000 C.ar    1  LIG1       -0.0218
     33 C          -1.8130   -4.6210    0.0000 C.ar    1  LIG1       -0.0027
     34 C          -1.5080   -3.6710    0.0000 C.ar    1  LIG1        0.0189
     35 C          -3.1040   -5.7790    0.0000 C.3     1  LIG1        0.0310
@<TRIPOS>BOND
     1     1     2   ar
     2     1     5   ar
     3     1    24   ar
     4     2     3   ar
     5     2    29    1
     6     3     4   ar
     7     4     5   ar
     8     4    28    1
     9     5     6   ar
    10     6     7    1
    11     6    22   ar
    12     7     8   am
    13     7    21    2
    14     8     9    1
    15     9    10   ar
    16     9    14   ar
    17    10    11   ar
    18    11    12   ar
    19    11    18    1
    20    12    13   ar
    21    13    14   ar
    22    14    15    1
    23    15    16    1
    24    16    17    1
    25    18    19    1
    26    19    20    1
    27    22    23   ar
    28    23    24   ar
    29    23    25    1
    30    25    26    1
    31    25    27    1
    32    26    27    1
    33    29    30   ar
    34    29    34   ar
    35    30    31   ar
    36    31    32   ar
    37    32    33   ar
    38    32    35    1
    39    33    34   ar
