@<TRIPOS>MOLECULE
24175_ChemDiv_5498-2613
 32 36 0 0 0
SMALL
GASTEIGER
Energy = 0

@<TRIPOS>ATOM
      1 C          -0.4830   -3.2130    0.0000 C.ar    1  LIG1        0.1534
      2 N           0.3710   -2.6960    0.0000 N.ar    1  LIG1       -0.1329
      3 N           0.3710   -1.6630    0.0000 N.ar    1  LIG1       -0.1468
      4 C          -0.4830   -1.1670    0.0000 C.ar    1  LIG1        0.1029
      5 C          -1.3250   -1.7000    0.0000 C.ar    1  LIG1        0.0221
      6 C          -1.3250   -2.6960    0.0000 C.ar    1  LIG1        0.0349
      7 C          -2.2170   -3.2130    0.0000 C.ar    1  LIG1        0.0029
      8 C          -3.0580   -2.6960    0.0000 C.ar    1  LIG1        0.0001
      9 C          -3.0580   -1.6630    0.0000 C.ar    1  LIG1        0.0001
     10 C          -2.2170   -1.1670    0.0000 C.ar    1  LIG1        0.0016
     11 C          -0.4830   -0.1580    0.0000 C.ar    1  LIG1        0.0196
     12 C          -1.3670    0.3580    0.0000 C.ar    1  LIG1        0.0047
     13 C          -1.3670    1.3290    0.0000 C.ar    1  LIG1        0.0370
     14 C          -0.4830    1.8250    0.0000 C.ar    1  LIG1        0.1393
     15 O          -0.4630    2.8170    0.0000 O.3     1  LIG1       -0.4656
     16 C           0.3920    3.2790    0.0000 C.3     1  LIG1        0.2896
     17 C           0.4130    4.2670    0.0000 C.2     1  LIG1        0.2702
     18 N           1.2790    4.7540    0.0000 N.am    1  LIG1       -0.2765
     19 C           1.3000    5.7330    0.0000 C.3     1  LIG1        0.0935
     20 C           2.1790    6.2080    0.0000 C.3     1  LIG1        0.0216
     21 C           3.0540    5.7040    0.0000 C.3     1  LIG1        0.0035
     22 C           3.0330    4.7330    0.0000 C.3     1  LIG1        0.0216
     23 C           2.1250    4.2380    0.0000 C.3     1  LIG1        0.0935
     24 O          -0.4580    4.7750    0.0000 O.2     1  LIG1       -0.2708
     25 C           0.3710    1.3290    0.0000 C.ar    1  LIG1        0.0370
     26 C           0.3710    0.3170    0.0000 C.ar    1  LIG1        0.0047
     27 N          -0.4830   -4.1830    0.0000 N.pl3   1  LIG1       -0.2919
     28 C           0.4130   -4.6790    0.0000 C.3     1  LIG1        0.0922
     29 C           0.4130   -5.6920    0.0000 C.3     1  LIG1        0.0215
     30 C          -0.4830   -6.2080    0.0000 C.3     1  LIG1        0.0035
     31 C          -1.3250   -5.6920    0.0000 C.3     1  LIG1        0.0215
     32 C          -1.3250   -4.6790    0.0000 C.3     1  LIG1        0.0922
@<TRIPOS>BOND
     1     1     2   ar
     2     1     6   ar
     3     1    27    1
     4     2     3   ar
     5     3     4   ar
     6     4     5   ar
     7     4    11    1
     8     5     6   ar
     9     5    10   ar
    10     6     7   ar
    11     7     8   ar
    12     8     9   ar
    13     9    10   ar
    14    11    12   ar
    15    11    26   ar
    16    12    13   ar
    17    13    14   ar
    18    14    15    1
    19    14    25   ar
    20    15    16    1
    21    16    17    1
    22    17    18   am
    23    17    24    2
    24    18    19    1
    25    18    23    1
    26    19    20    1
    27    20    21    1
    28    21    22    1
    29    22    23    1
    30    25    26   ar
    31    27    28    1
    32    27    32    1
    33    28    29    1
    34    29    30    1
    35    30    31    1
    36    31    32    1
