@<TRIPOS>MOLECULE
24178_ChemDiv_0080-0026
 17 19 0 0 0
SMALL
GASTEIGER
Energy = 0

@<TRIPOS>ATOM
      1 C          -2.1880    0.0170    0.0000 C.ar    1  LIG1        0.1224
      2 O          -1.6380   -0.7790    0.0000 O.2     1  LIG1       -0.4577
      3 C          -0.6750   -0.4750    0.0000 C.ar    1  LIG1        0.1479
      4 C          -0.6750    0.4880    0.0000 C.ar    1  LIG1        0.0374
      5 C          -1.6380    0.7830    0.0000 C.ar    1  LIG1        0.0360
      6 C           0.2000    1.0080    0.0000 C.ar    1  LIG1        0.0062
      7 C           1.0830    0.5080    0.0000 C.ar    1  LIG1        0.0351
      8 C           1.0830   -0.5040    0.0000 C.ar    1  LIG1        0.1517
      9 O           1.9380   -1.0040    0.0000 O.2     1  LIG1       -0.4209
     10 C           2.8170   -0.4750    0.0000 C.ar    1  LIG1        0.3459
     11 C           2.8170    0.4880    0.0000 C.ar    1  LIG1        0.0824
     12 C           1.9380    1.0080    0.0000 C.ar    1  LIG1        0.0097
     13 O           3.7290   -0.9750    0.0000 O.2     1  LIG1       -0.2445
     14 C           0.2000   -1.0040    0.0000 C.ar    1  LIG1        0.0750
     15 C          -3.2080    0.0750    0.0000 C.3     1  LIG1        0.0575
     16 C          -3.6750    0.9210    0.0000 C.3     1  LIG1        0.0080
     17 C          -3.7330   -0.7790    0.0000 C.3     1  LIG1        0.0080
@<TRIPOS>BOND
     1     1     2   ar
     2     1     5   ar
     3     1    15    1
     4     2     3   ar
     5     3     4   ar
     6     3    14   ar
     7     4     5   ar
     8     4     6   ar
     9     6     7   ar
    10     7     8   ar
    11     7    12   ar
    12     8     9   ar
    13     8    14   ar
    14     9    10   ar
    15    10    11   ar
    16    10    13    2
    17    11    12   ar
    18    15    16    1
    19    15    17    1
