@<TRIPOS>MOLECULE
24170_ChemDiv_E981-2438
 31 35 0 0 0
SMALL
GASTEIGER
Energy = 0

@<TRIPOS>ATOM
      1 C          -0.5290   -1.4460    0.0000 C.ar    1  LIG1        0.1646
      2 N          -1.4750   -1.7630    0.0000 N.ar    1  LIG1       -0.2125
      3 N          -2.0670   -0.9500    0.0000 N.ar    1  LIG1       -0.1681
      4 C          -1.4750   -0.1380    0.0000 C.ar    1  LIG1        0.0824
      5 C          -0.5290   -0.4420    0.0000 C.ar    1  LIG1        0.0555
      6 C           0.3330    0.0580    0.0000 C.ar    1  LIG1        0.0607
      7 C           0.3330    1.0540    0.0000 C.2     1  LIG1        0.2692
      8 N           1.1920    1.5540    0.0000 N.am    1  LIG1       -0.1755
      9 C           1.2000    2.5420    0.0000 C.ar    1  LIG1        0.0733
     10 C           0.3460    3.0670    0.0000 C.ar    1  LIG1        0.0120
     11 C           0.3630    4.0580    0.0000 C.ar    1  LIG1       -0.0245
     12 C           1.2210    4.5420    0.0000 C.ar    1  LIG1       -0.0257
     13 C           2.0920    4.0290    0.0000 C.ar    1  LIG1       -0.0032
     14 C           2.0750    3.0380    0.0000 C.ar    1  LIG1        0.0163
     15 C           1.2500    5.5500    0.0000 C.3     1  LIG1        0.0307
     16 C          -0.5000    4.5710    0.0000 C.3     1  LIG1        0.0307
     17 O          -0.5290    1.5540    0.0000 O.2     1  LIG1       -0.2680
     18 C           1.1920   -0.4420    0.0000 C.ar    1  LIG1        0.0194
     19 C           1.1920   -1.4460    0.0000 C.ar    1  LIG1        0.0604
     20 N           0.3330   -1.9500    0.0000 N.ar    1  LIG1       -0.2309
     21 C           2.0670   -1.9500    0.0000 C.3     1  LIG1        0.0404
     22 C           3.0710   -1.9500    0.0000 C.3     1  LIG1        0.0063
     23 C           2.5630   -2.8210    0.0000 C.3     1  LIG1        0.0063
     24 C          -1.7920    0.8130    0.0000 C.3     1  LIG1        0.0540
     25 C          -1.7920   -2.7130    0.0000 C.ar    1  LIG1        0.0844
     26 C          -1.1170   -3.4420    0.0000 C.ar    1  LIG1        0.0189
     27 C          -1.4210   -4.3920    0.0000 C.ar    1  LIG1       -0.0027
     28 C          -2.4130   -4.6130    0.0000 C.ar    1  LIG1       -0.0218
     29 C          -3.0750   -3.8630    0.0000 C.ar    1  LIG1       -0.0027
     30 C          -2.7750   -2.9130    0.0000 C.ar    1  LIG1        0.0189
     31 C          -2.7130   -5.5500    0.0000 C.3     1  LIG1        0.0310
@<TRIPOS>BOND
     1     1     2   ar
     2     1     5   ar
     3     1    20   ar
     4     2     3   ar
     5     2    25    1
     6     3     4   ar
     7     4     5   ar
     8     4    24    1
     9     5     6   ar
    10     6     7    1
    11     6    18   ar
    12     7     8   am
    13     7    17    2
    14     8     9    1
    15     9    10   ar
    16     9    14   ar
    17    10    11   ar
    18    11    12   ar
    19    11    16    1
    20    12    13   ar
    21    12    15    1
    22    13    14   ar
    23    18    19   ar
    24    19    20   ar
    25    19    21    1
    26    21    22    1
    27    21    23    1
    28    22    23    1
    29    25    26   ar
    30    25    30   ar
    31    26    27   ar
    32    27    28   ar
    33    28    29   ar
    34    28    31    1
    35    29    30   ar
