@<TRIPOS>MOLECULE
24177_ChemDiv_6134-4246
 28 31 0 0 0
SMALL
GASTEIGER
Energy = 0

@<TRIPOS>ATOM
      1 C           2.1500    0.2880    0.0000 C.2     1  LIG1        0.0507
      2 C           1.2830    0.7790    0.0000 C.3     1  LIG1        0.0777
      3 C           1.2670    1.7710    0.0000 C.2     1  LIG1        0.0507
      4 C           2.1170    2.2790    0.0000 C.2     1  LIG1        0.1216
      5 O           2.9960    1.7960    0.0000 O.2     1  LIG1       -0.4624
      6 C           3.0130    0.8040    0.0000 C.2     1  LIG1        0.1216
      7 C           3.8830    0.3130    0.0000 C.3     1  LIG1        0.0647
      8 C           3.8960   -0.6920    0.0000 C.3     1  LIG1        0.0161
      9 C           3.0330   -1.1960    0.0000 C.3     1  LIG1        0.0694
     10 C           2.1630   -0.6960    0.0000 C.2     1  LIG1        0.1723
     11 O           1.2960   -1.2250    0.0000 O.2     1  LIG1       -0.2916
     12 C           2.1130    3.2880    0.0000 C.3     1  LIG1        0.0647
     13 C           1.2330    3.7630    0.0000 C.3     1  LIG1        0.0161
     14 C           0.3830    3.2540    0.0000 C.3     1  LIG1        0.0694
     15 C           0.4000    2.2630    0.0000 C.2     1  LIG1        0.1723
     16 O          -0.4670    1.7540    0.0000 O.2     1  LIG1       -0.2916
     17 C           0.4170    0.2710    0.0000 C.ar    1  LIG1       -0.0133
     18 C           0.4170   -0.7290    0.0000 C.ar    1  LIG1        0.0061
     19 C          -0.4500   -1.2290    0.0000 C.ar    1  LIG1        0.0682
     20 C          -1.3170   -0.7420    0.0000 C.ar    1  LIG1        0.1452
     21 O          -2.1830   -1.2460    0.0000 O.3     1  LIG1       -0.4689
     22 C          -2.1710   -2.2460    0.0000 C.3     1  LIG1        0.2469
     23 C          -3.0380   -2.7460    0.0000 C.2     1  LIG1        0.0940
     24 O          -3.9000   -2.2460    0.0000 O.co2   1  LIG1       -0.5454
     25 O          -3.0330   -3.7580    0.0000 O.co2   1  LIG1       -0.5454
     26 C          -1.3210    0.2710    0.0000 C.ar    1  LIG1        0.0371
     27 C          -0.4540    0.7710    0.0000 C.ar    1  LIG1       -0.0005
     28 BR         -0.4380   -2.2290    0.0000 Br      1  LIG1       -0.0459
@<TRIPOS>BOND
     1     1     2    1
     2     1     6    2
     3     1    10    1
     4     2     3    1
     5     2    17    1
     6     3     4    2
     7     3    15    1
     8     4     5    1
     9     4    12    1
    10     5     6    1
    11     6     7    1
    12     7     8    1
    13     8     9    1
    14     9    10    1
    15    10    11    2
    16    12    13    1
    17    13    14    1
    18    14    15    1
    19    15    16    2
    20    17    18   ar
    21    17    27   ar
    22    18    19   ar
    23    19    20   ar
    24    19    28    1
    25    20    21    1
    26    20    26   ar
    27    21    22    1
    28    22    23    1
    29    23    24   ar
    30    23    25   ar
    31    26    27   ar
