@<TRIPOS>MOLECULE
24182_ChemDiv_0407-0003
 20 22 0 0 0
SMALL
GASTEIGER
Energy = 0

@<TRIPOS>ATOM
      1 C           0.3130    1.4920    0.0000 C.ar    1  LIG1        0.1854
      2 C          -0.5580    0.9790    0.0000 C.ar    1  LIG1        0.2076
      3 C          -1.4210    1.4920    0.0000 C.ar    1  LIG1        0.1822
      4 C          -1.4210    2.4920    0.0000 C.ar    1  LIG1        0.0410
      5 C          -0.5580    3.0040    0.0000 C.ar    1  LIG1        0.0064
      6 C           0.3130    2.4920    0.0000 C.ar    1  LIG1        0.0381
      7 C           1.1750    3.0040    0.0000 C.ar    1  LIG1        0.0098
      8 C           2.0420    2.4920    0.0000 C.ar    1  LIG1        0.0824
      9 C           2.0420    1.4920    0.0000 C.ar    1  LIG1        0.3460
     10 O           1.1750    0.9790    0.0000 O.2     1  LIG1       -0.4178
     11 O           2.9330    0.9790    0.0000 O.2     1  LIG1       -0.2445
     12 C          -2.3670    2.7880    0.0000 C.ar    1  LIG1        0.0438
     13 C          -2.9380    2.0330    0.0000 C.ar    1  LIG1        0.1798
     14 O          -2.3670    1.1960    0.0000 O.2     1  LIG1       -0.4472
     15 O          -0.5580   -0.0250    0.0000 O.3     1  LIG1       -0.4645
     16 C           0.3130   -0.5130    0.0000 C.3     1  LIG1        0.2315
     17 C           0.3130   -1.5130    0.0000 C.2     1  LIG1        0.0122
     18 C           1.1750   -2.0000    0.0000 C.2     1  LIG1       -0.0443
     19 C           1.1750   -3.0000    0.0000 C.3     1  LIG1        0.0261
     20 C           2.0420   -1.5130    0.0000 C.3     1  LIG1        0.0261
@<TRIPOS>BOND
     1     1     2   ar
     2     1     6   ar
     3     1    10   ar
     4     2     3   ar
     5     2    15    1
     6     3     4   ar
     7     3    14   ar
     8     4     5   ar
     9     4    12   ar
    10     5     6   ar
    11     6     7   ar
    12     7     8   ar
    13     8     9   ar
    14     9    10   ar
    15     9    11    2
    16    12    13   ar
    17    13    14   ar
    18    15    16    1
    19    16    17    1
    20    17    18    2
    21    18    19    1
    22    18    20    1
