@<TRIPOS>MOLECULE
24184_ChemDiv_0407-0070
 19 21 0 0 0
SMALL
GASTEIGER
Energy = 0

@<TRIPOS>ATOM
      1 C           0.3130    0.4920    0.0000 C.ar    1  LIG1        0.1106
      2 C           0.3130   -0.4960    0.0000 C.ar    1  LIG1        0.1875
      3 C          -0.5670   -1.0130    0.0000 C.ar    1  LIG1        0.2075
      4 C          -1.4420   -0.4960    0.0000 C.ar    1  LIG1        0.1851
      5 C          -1.4420    0.4920    0.0000 C.ar    1  LIG1        0.0750
      6 C          -0.5670    0.9880    0.0000 C.ar    1  LIG1        0.1479
      7 O          -0.5670    2.0000    0.0000 O.3     1  LIG1       -0.4711
      8 C          -1.4420    2.4960    0.0000 C.3     1  LIG1        0.2525
      9 C          -2.4000    0.7960    0.0000 C.ar    1  LIG1        0.0468
     10 C          -2.9460   -0.0250    0.0000 C.ar    1  LIG1        0.1799
     11 O          -2.4000   -0.7920    0.0000 O.2     1  LIG1       -0.4471
     12 O          -0.5670   -2.0000    0.0000 O.3     1  LIG1       -0.4654
     13 C          -1.4420   -2.4920    0.0000 C.3     1  LIG1        0.2528
     14 O           1.1630   -1.0130    0.0000 O.2     1  LIG1       -0.4543
     15 C           2.0380   -0.4960    0.0000 C.ar    1  LIG1        0.1265
     16 C           2.0380    0.4920    0.0000 C.ar    1  LIG1        0.0752
     17 C           1.1630    0.9880    0.0000 C.ar    1  LIG1        0.2043
     18 O           1.1630    2.0000    0.0000 O.2     1  LIG1       -0.2863
     19 C           2.9420   -0.9830    0.0000 C.3     1  LIG1        0.0726
@<TRIPOS>BOND
     1     1     2   ar
     2     1     6   ar
     3     1    17   ar
     4     2     3   ar
     5     2    14   ar
     6     3     4   ar
     7     3    12    1
     8     4     5   ar
     9     4    11   ar
    10     5     6   ar
    11     5     9   ar
    12     6     7    1
    13     7     8    1
    14     9    10   ar
    15    10    11   ar
    16    12    13    1
    17    14    15   ar
    18    15    16   ar
    19    15    19    1
    20    16    17   ar
    21    17    18    2
