@<TRIPOS>MOLECULE
24180_ChemDiv_0080-0066
 25 28 0 0 0
SMALL
GASTEIGER
Energy = 0

@<TRIPOS>ATOM
      1 C          -0.5330    1.4540    0.0000 C.ar    1  LIG1        0.2076
      2 C           0.3250    1.9420    0.0000 C.ar    1  LIG1        0.1854
      3 O           1.1880    1.4540    0.0000 O.2     1  LIG1       -0.4178
      4 C           2.0500    1.9420    0.0000 C.ar    1  LIG1        0.3460
      5 C           2.0500    2.9540    0.0000 C.ar    1  LIG1        0.0824
      6 C           1.1880    3.4420    0.0000 C.ar    1  LIG1        0.0098
      7 C           0.3250    2.9540    0.0000 C.ar    1  LIG1        0.0381
      8 C          -0.5330    3.4420    0.0000 C.ar    1  LIG1        0.0064
      9 C          -1.3960    2.9540    0.0000 C.ar    1  LIG1        0.0410
     10 C          -1.3960    1.9420    0.0000 C.ar    1  LIG1        0.1822
     11 O          -2.3540    1.6420    0.0000 O.2     1  LIG1       -0.4472
     12 C          -2.9330    2.4460    0.0000 C.ar    1  LIG1        0.1798
     13 C          -2.3540    3.2540    0.0000 C.ar    1  LIG1        0.0438
     14 O           2.9290    1.4330    0.0000 O.2     1  LIG1       -0.2445
     15 O          -0.5330    0.4420    0.0000 O.3     1  LIG1       -0.4649
     16 C           0.3250   -0.0630    0.0000 C.3     1  LIG1        0.2275
     17 C           0.3250   -1.0540    0.0000 C.2     1  LIG1       -0.0089
     18 C           1.1880   -1.5630    0.0000 C.2     1  LIG1       -0.0483
     19 C           1.1880   -2.5540    0.0000 C.3     1  LIG1        0.0215
     20 C           0.3250   -3.0630    0.0000 C.3     1  LIG1        0.0046
     21 C          -0.5330   -2.5540    0.0000 C.3     1  LIG1        0.0041
     22 C          -0.5330   -1.5630    0.0000 C.3     1  LIG1        0.0250
     23 C          -1.5500   -2.5540    0.0000 C.3     1  LIG1        0.0003
     24 C          -1.0420   -3.4380    0.0000 C.3     1  LIG1        0.0003
     25 C           2.0670   -1.0420    0.0000 C.3     1  LIG1        0.0258
@<TRIPOS>BOND
     1     1     2   ar
     2     1    10   ar
     3     1    15    1
     4     2     3   ar
     5     2     7   ar
     6     3     4   ar
     7     4     5   ar
     8     4    14    2
     9     5     6   ar
    10     6     7   ar
    11     7     8   ar
    12     8     9   ar
    13     9    10   ar
    14     9    13   ar
    15    10    11   ar
    16    11    12   ar
    17    12    13   ar
    18    15    16    1
    19    16    17    1
    20    17    18    2
    21    17    22    1
    22    18    19    1
    23    18    25    1
    24    19    20    1
    25    20    21    1
    26    21    22    1
    27    21    23    1
    28    21    24    1
