@<TRIPOS>MOLECULE
24186_ChemDiv_0407-0084
 16 18 0 0 0
SMALL
GASTEIGER
Energy = 0

@<TRIPOS>ATOM
      1 C           0.3080    0.2540    0.0000 C.ar    1  LIG1        0.1854
      2 C          -0.5710   -0.2500    0.0000 C.ar    1  LIG1        0.2073
      3 C          -1.4420    0.2540    0.0000 C.ar    1  LIG1        0.1822
      4 C          -1.4420    1.2460    0.0000 C.ar    1  LIG1        0.0410
      5 C          -0.5710    1.7580    0.0000 C.ar    1  LIG1        0.0064
      6 C           0.3080    1.2460    0.0000 C.ar    1  LIG1        0.0381
      7 C           1.1540    1.7580    0.0000 C.ar    1  LIG1        0.0098
      8 C           2.0330    1.2460    0.0000 C.ar    1  LIG1        0.0824
      9 C           2.0330    0.2540    0.0000 C.ar    1  LIG1        0.3460
     10 O           1.1540   -0.2500    0.0000 O.2     1  LIG1       -0.4178
     11 O           2.9380   -0.2500    0.0000 O.2     1  LIG1       -0.2445
     12 C          -2.3790    1.5580    0.0000 C.ar    1  LIG1        0.0438
     13 C          -2.9420    0.7380    0.0000 C.ar    1  LIG1        0.1798
     14 O          -2.3790   -0.0580    0.0000 O.2     1  LIG1       -0.4472
     15 O          -0.5710   -1.2710    0.0000 O.3     1  LIG1       -0.4654
     16 C          -1.4170   -1.7540    0.0000 C.3     1  LIG1        0.2528
@<TRIPOS>BOND
     1     1     2   ar
     2     1     6   ar
     3     1    10   ar
     4     2     3   ar
     5     2    15    1
     6     3     4   ar
     7     3    14   ar
     8     4     5   ar
     9     4    12   ar
    10     5     6   ar
    11     6     7   ar
    12     7     8   ar
    13     8     9   ar
    14     9    10   ar
    15     9    11    2
    16    12    13   ar
    17    13    14   ar
    18    15    16    1
