@<TRIPOS>MOLECULE
24188_ChemDiv_1363-0005
 18 20 0 0 0
SMALL
GASTEIGER
Energy = 0

@<TRIPOS>ATOM
      1 C           0.3170   -0.4750    0.0000 C.ar    1  LIG1        0.1883
      2 C           0.3170    0.5250    0.0000 C.ar    1  LIG1        0.0721
      3 C          -0.5330    1.0330    0.0000 C.ar    1  LIG1        0.1447
      4 C          -1.4250    0.5250    0.0000 C.ar    1  LIG1        0.0749
      5 C          -1.4250   -0.4750    0.0000 C.ar    1  LIG1        0.1851
      6 C          -0.5330   -0.9750    0.0000 C.ar    1  LIG1        0.2075
      7 O          -0.5130   -1.9710    0.0000 O.3     1  LIG1       -0.4654
      8 C          -1.3420   -2.4880    0.0000 C.3     1  LIG1        0.2528
      9 O          -2.3630   -0.7830    0.0000 O.2     1  LIG1       -0.4471
     10 C          -2.9460    0.0420    0.0000 C.ar    1  LIG1        0.1799
     11 C          -2.3630    0.8330    0.0000 C.ar    1  LIG1        0.0468
     12 O          -0.5130    2.0210    0.0000 O.3     1  LIG1       -0.4712
     13 C           0.3540    2.4920    0.0000 C.3     1  LIG1        0.2525
     14 C           1.1960    1.0330    0.0000 C.ar    1  LIG1        0.0128
     15 C           2.0670    0.5250    0.0000 C.ar    1  LIG1        0.0825
     16 C           2.0670   -0.4750    0.0000 C.ar    1  LIG1        0.3460
     17 O           1.1960   -0.9750    0.0000 O.2     1  LIG1       -0.4177
     18 O           2.9420   -0.9920    0.0000 O.2     1  LIG1       -0.2445
@<TRIPOS>BOND
     1     1     2   ar
     2     1     6   ar
     3     1    17   ar
     4     2     3   ar
     5     2    14   ar
     6     3     4   ar
     7     3    12    1
     8     4     5   ar
     9     4    11   ar
    10     5     6   ar
    11     5     9   ar
    12     6     7    1
    13     7     8    1
    14     9    10   ar
    15    10    11   ar
    16    12    13    1
    17    14    15   ar
    18    15    16   ar
    19    16    17   ar
    20    16    18    2
