@<TRIPOS>MOLECULE
24189_ChemDiv_8007-8420
 30 34 0 0 0
SMALL
GASTEIGER
Energy = 0

@<TRIPOS>ATOM
      1 C          -0.8670    1.3670    0.0000 C.2     1  LIG1        0.0508
      2 C           0.0000    0.8540    0.0000 C.3     1  LIG1        0.0786
      3 C           0.8630    1.3670    0.0000 C.2     1  LIG1        0.0508
      4 C           0.8630    2.3580    0.0000 C.2     1  LIG1        0.1216
      5 O           0.0000    2.8540    0.0000 O.2     1  LIG1       -0.4624
      6 C          -0.8670    2.3580    0.0000 C.2     1  LIG1        0.1216
      7 C          -1.7460    2.8670    0.0000 C.3     1  LIG1        0.0647
      8 C          -2.6130    2.3580    0.0000 C.3     1  LIG1        0.0144
      9 C          -2.6130    1.3670    0.0000 C.3     1  LIG1        0.0693
     10 C          -1.7460    0.8670    0.0000 C.2     1  LIG1        0.1723
     11 O          -1.7460   -0.1330    0.0000 O.2     1  LIG1       -0.2916
     12 C          -3.4790    2.8540    0.0000 C.3     1  LIG1        0.0009
     13 C          -3.4790    1.8670    0.0000 C.3     1  LIG1        0.0009
     14 C           1.7420    2.8540    0.0000 C.3     1  LIG1        0.0647
     15 C           2.6080    2.3580    0.0000 C.3     1  LIG1        0.0144
     16 C           2.6080    1.3670    0.0000 C.3     1  LIG1        0.0693
     17 C           1.7420    0.8540    0.0000 C.2     1  LIG1        0.1723
     18 O           1.7420   -0.1460    0.0000 O.2     1  LIG1       -0.2916
     19 C           2.1000    3.2250    0.0000 C.3     1  LIG1        0.0009
     20 C           3.4750    2.8540    0.0000 C.3     1  LIG1        0.0009
     21 C           0.0000   -0.1460    0.0000 C.ar    1  LIG1       -0.0002
     22 C           0.8630   -0.6330    0.0000 C.ar    1  LIG1        0.0575
     23 C           0.8630   -1.6330    0.0000 C.ar    1  LIG1        0.0513
     24 C           0.0000   -2.1380    0.0000 C.ar    1  LIG1        0.1772
     25 C          -0.8670   -1.6330    0.0000 C.ar    1  LIG1        0.1762
     26 C          -0.8670   -0.6330    0.0000 C.ar    1  LIG1        0.0374
     27 O          -1.6130   -2.3040    0.0000 O.3     1  LIG1       -0.4346
     28 C          -1.2040   -3.2210    0.0000 C.3     1  LIG1        0.4294
     29 O          -0.2170   -3.1130    0.0000 O.3     1  LIG1       -0.4346
     30 CL          1.7920   -0.9540    0.0000 Cl      1  LIG1       -0.0824
@<TRIPOS>BOND
     1     1     2    1
     2     1     6    2
     3     1    10    1
     4     2     3    1
     5     2    21    1
     6     3     4    2
     7     3    17    1
     8     4     5    1
     9     4    14    1
    10     5     6    1
    11     6     7    1
    12     7     8    1
    13     8     9    1
    14     8    12    1
    15     8    13    1
    16     9    10    1
    17    10    11    2
    18    14    15    1
    19    15    16    1
    20    15    19    1
    21    15    20    1
    22    16    17    1
    23    17    18    2
    24    21    22   ar
    25    21    26   ar
    26    22    23   ar
    27    22    30    1
    28    23    24   ar
    29    24    25   ar
    30    24    29    1
    31    25    26   ar
    32    25    27    1
    33    27    28    1
    34    28    29    1
