@<TRIPOS>MOLECULE
24199_ChemDiv_5498-2712
 34 37 0 0 0
SMALL
GASTEIGER
Energy = 0

@<TRIPOS>ATOM
      1 N           0.4420    1.7790    0.0000 N.ar    1  LIG1       -0.2071
      2 N           0.4420    2.8130    0.0000 N.ar    1  LIG1       -0.1664
      3 C          -0.4330    3.2920    0.0000 C.ar    1  LIG1        0.1011
      4 C          -1.2960    2.8130    0.0000 C.ar    1  LIG1        0.0240
      5 C          -1.2960    1.7790    0.0000 C.ar    1  LIG1        0.0591
      6 C          -0.4330    1.2960    0.0000 C.ar    1  LIG1        0.2768
      7 O          -0.4330    0.2750    0.0000 O.2     1  LIG1       -0.2655
      8 C          -2.1540    1.2960    0.0000 C.ar    1  LIG1        0.0048
      9 C          -3.0380    1.7790    0.0000 C.ar    1  LIG1        0.0002
     10 C          -3.0380    2.8130    0.0000 C.ar    1  LIG1        0.0001
     11 C          -2.1540    3.2920    0.0000 C.ar    1  LIG1        0.0017
     12 C          -0.4330    4.2790    0.0000 C.ar    1  LIG1        0.0193
     13 C           0.4210    4.7710    0.0000 C.ar    1  LIG1        0.0016
     14 C           0.4210    5.7580    0.0000 C.ar    1  LIG1        0.0000
     15 C          -0.4330    6.2630    0.0000 C.ar    1  LIG1        0.0000
     16 C          -1.2750    5.7580    0.0000 C.ar    1  LIG1        0.0000
     17 C          -1.2750    4.7710    0.0000 C.ar    1  LIG1        0.0016
     18 C           1.3040    1.2710    0.0000 C.3     1  LIG1        0.2172
     19 C           1.3040    0.2750    0.0000 C.2     1  LIG1        0.2705
     20 N           2.1710   -0.2040    0.0000 N.am    1  LIG1       -0.1775
     21 C           2.1710   -1.2330    0.0000 C.ar    1  LIG1        0.0734
     22 C           3.0330   -1.7460    0.0000 C.ar    1  LIG1        0.0167
     23 C           3.0330   -2.7380    0.0000 C.ar    1  LIG1        0.0058
     24 C           2.1710   -3.2500    0.0000 C.ar    1  LIG1        0.0537
     25 C           2.1710   -4.2380    0.0000 C.2     1  LIG1        0.2490
     26 N           1.3040   -4.7580    0.0000 N.am    1  LIG1       -0.2761
     27 C           0.4420   -4.2380    0.0000 C.3     1  LIG1        0.0938
     28 C          -0.4330   -4.7580    0.0000 C.3     1  LIG1        0.0233
     29 C           1.3040   -5.7540    0.0000 C.3     1  LIG1        0.0938
     30 C           0.4420   -6.2630    0.0000 C.3     1  LIG1        0.0233
     31 O           3.0330   -4.7580    0.0000 O.2     1  LIG1       -0.2699
     32 C           1.3040   -2.7380    0.0000 C.ar    1  LIG1        0.0058
     33 C           1.3040   -1.7460    0.0000 C.ar    1  LIG1        0.0167
     34 O           0.4420   -0.2040    0.0000 O.2     1  LIG1       -0.2708
@<TRIPOS>BOND
     1     1     2   ar
     2     1     6   ar
     3     1    18    1
     4     2     3   ar
     5     3     4   ar
     6     3    12    1
     7     4     5   ar
     8     4    11   ar
     9     5     6   ar
    10     5     8   ar
    11     6     7    2
    12     8     9   ar
    13     9    10   ar
    14    10    11   ar
    15    12    13   ar
    16    12    17   ar
    17    13    14   ar
    18    14    15   ar
    19    15    16   ar
    20    16    17   ar
    21    18    19    1
    22    19    20   am
    23    19    34    2
    24    20    21    1
    25    21    22   ar
    26    21    33   ar
    27    22    23   ar
    28    23    24   ar
    29    24    25    1
    30    24    32   ar
    31    25    26   am
    32    25    31    2
    33    26    27    1
    34    26    29    1
    35    27    28    1
    36    29    30    1
    37    32    33   ar
