@<TRIPOS>MOLECULE
24190_ChemDiv_1683-3021
 24 26 0 0 0
SMALL
GASTEIGER
Energy = 0

@<TRIPOS>ATOM
      1 C           3.0460   -0.0040    0.0000 C.ar    1  LIG1        0.3457
      2 O           2.1630   -0.5080    0.0000 O.2     1  LIG1       -0.4209
      3 C           1.3210   -0.0040    0.0000 C.ar    1  LIG1        0.1517
      4 C           1.3210    1.0040    0.0000 C.ar    1  LIG1        0.0351
      5 C           2.1630    1.4960    0.0000 C.ar    1  LIG1        0.0092
      6 C           3.0460    1.0040    0.0000 C.ar    1  LIG1        0.0761
      7 C           3.9000    1.5080    0.0000 C.ar    1  LIG1        0.0065
      8 C           3.9000    2.4960    0.0000 C.ar    1  LIG1        0.0002
      9 C           3.0460    3.0000    0.0000 C.ar    1  LIG1        0.0000
     10 C           2.1630    2.4960    0.0000 C.ar    1  LIG1        0.0003
     11 C           0.4420    1.4960    0.0000 C.ar    1  LIG1        0.0061
     12 C          -0.4210    1.0040    0.0000 C.ar    1  LIG1        0.0371
     13 C          -0.4210   -0.0040    0.0000 C.ar    1  LIG1        0.1422
     14 C           0.4420   -0.5080    0.0000 C.ar    1  LIG1        0.0745
     15 O          -1.2880   -0.5080    0.0000 O.3     1  LIG1       -0.4678
     16 C          -2.1580   -0.0080    0.0000 C.3     1  LIG1        0.2633
     17 C          -3.0330   -0.5130    0.0000 C.2     1  LIG1        0.3576
     18 O          -3.9040   -0.0080    0.0000 O.2     1  LIG1       -0.2461
     19 O          -3.0330   -1.5040    0.0000 O.3     1  LIG1       -0.4460
     20 C          -2.1710   -2.0080    0.0000 C.3     1  LIG1        0.2087
     21 C          -2.1710   -2.9960    0.0000 C.3     1  LIG1        0.0513
     22 C          -2.1580    0.9920    0.0000 C.3     1  LIG1        0.0553
     23 C          -3.0130    1.4830    0.0000 C.3     1  LIG1        0.0044
     24 O           3.9000   -0.5080    0.0000 O.2     1  LIG1       -0.2445
@<TRIPOS>BOND
     1     1     2   ar
     2     1     6   ar
     3     1    24    2
     4     2     3   ar
     5     3     4   ar
     6     3    14   ar
     7     4     5   ar
     8     4    11   ar
     9     5     6   ar
    10     5    10   ar
    11     6     7   ar
    12     7     8   ar
    13     8     9   ar
    14     9    10   ar
    15    11    12   ar
    16    12    13   ar
    17    13    14   ar
    18    13    15    1
    19    15    16    1
    20    16    17    1
    21    16    22    1
    22    17    18    2
    23    17    19    1
    24    19    20    1
    25    20    21    1
    26    22    23    1
