@<TRIPOS>MOLECULE
24192_ChemDiv_6944-0042
 16 18 0 0 0
SMALL
GASTEIGER
Energy = 0

@<TRIPOS>ATOM
      1 C           0.3250   -0.2330    0.0000 C.ar    1  LIG1        0.0690
      2 C           0.3210   -1.2380    0.0000 C.ar    1  LIG1        0.1546
      3 O           1.1920   -1.7420    0.0000 O.2     1  LIG1       -0.4208
      4 C           2.0670   -1.2420    0.0000 C.ar    1  LIG1        0.3459
      5 C           2.0670   -0.2330    0.0000 C.ar    1  LIG1        0.0825
      6 C           1.1960    0.2750    0.0000 C.ar    1  LIG1        0.0127
      7 O           2.9290   -1.7460    0.0000 O.2     1  LIG1       -0.2445
      8 C          -0.5380   -1.7380    0.0000 C.ar    1  LIG1        0.0753
      9 C          -1.3920   -1.2380    0.0000 C.ar    1  LIG1        0.1514
     10 C          -1.4000   -0.2420    0.0000 C.ar    1  LIG1        0.0718
     11 C          -0.5380    0.2630    0.0000 C.ar    1  LIG1        0.1445
     12 O          -0.5460    1.2540    0.0000 O.3     1  LIG1       -0.4712
     13 C          -1.4080    1.7500    0.0000 C.3     1  LIG1        0.2525
     14 C          -2.3500    0.0630    0.0000 C.ar    1  LIG1        0.0467
     15 C          -2.9330   -0.7460    0.0000 C.ar    1  LIG1        0.1797
     16 O          -2.3420   -1.5500    0.0000 O.2     1  LIG1       -0.4502
@<TRIPOS>BOND
     1     1     2   ar
     2     1     6   ar
     3     1    11   ar
     4     2     3   ar
     5     2     8   ar
     6     3     4   ar
     7     4     5   ar
     8     4     7    2
     9     5     6   ar
    10     8     9   ar
    11     9    10   ar
    12     9    16   ar
    13    10    11   ar
    14    10    14   ar
    15    11    12    1
    16    12    13    1
    17    14    15   ar
    18    15    16   ar
