@<TRIPOS>MOLECULE
24193_ChemDiv_5498-2614
 34 38 0 0 0
SMALL
GASTEIGER
Energy = 0

@<TRIPOS>ATOM
      1 N           0.3710   -2.4330    0.0000 N.ar    1  LIG1       -0.1467
      2 C          -0.4830   -1.9380    0.0000 C.ar    1  LIG1        0.1029
      3 C          -1.3290   -2.4710    0.0000 C.ar    1  LIG1        0.0222
      4 C          -1.3290   -3.4710    0.0000 C.ar    1  LIG1        0.0363
      5 C          -0.4830   -3.9880    0.0000 C.ar    1  LIG1        0.1695
      6 N           0.3710   -3.4710    0.0000 N.ar    1  LIG1       -0.1314
      7 N          -0.4830   -4.9630    0.0000 N.pl3   1  LIG1       -0.2140
      8 C           0.4130   -5.4580    0.0000 C.3     1  LIG1        0.1402
      9 C           1.2750   -4.9630    0.0000 C.ar    1  LIG1       -0.0006
     10 C           2.1290   -5.4500    0.0000 C.ar    1  LIG1       -0.0026
     11 C           2.9960   -4.9540    0.0000 C.ar    1  LIG1       -0.0003
     12 C           2.9790   -3.9630    0.0000 C.ar    1  LIG1       -0.0000
     13 C           2.1080   -3.4710    0.0000 C.ar    1  LIG1       -0.0003
     14 C           1.2750   -3.9880    0.0000 C.ar    1  LIG1       -0.0026
     15 C          -2.2250   -3.9880    0.0000 C.ar    1  LIG1        0.0029
     16 C          -3.0670   -3.4710    0.0000 C.ar    1  LIG1        0.0001
     17 C          -3.0670   -2.4330    0.0000 C.ar    1  LIG1        0.0001
     18 C          -2.2250   -1.9380    0.0000 C.ar    1  LIG1        0.0016
     19 C          -0.4830   -0.9250    0.0000 C.ar    1  LIG1        0.0196
     20 C          -1.3710   -0.4040    0.0000 C.ar    1  LIG1        0.0047
     21 C          -1.3710    0.5670    0.0000 C.ar    1  LIG1        0.0370
     22 C          -0.4830    1.0670    0.0000 C.ar    1  LIG1        0.1393
     23 O          -0.4630    2.0580    0.0000 O.3     1  LIG1       -0.4656
     24 C           0.3920    2.5210    0.0000 C.3     1  LIG1        0.2896
     25 C           0.4130    3.5170    0.0000 C.2     1  LIG1        0.2702
     26 N           1.2830    4.0000    0.0000 N.am    1  LIG1       -0.2765
     27 C           2.1290    3.4880    0.0000 C.3     1  LIG1        0.0935
     28 C           3.0420    3.9830    0.0000 C.3     1  LIG1        0.0216
     29 C           3.0630    4.9540    0.0000 C.3     1  LIG1        0.0035
     30 C           2.1880    5.4580    0.0000 C.3     1  LIG1        0.0216
     31 C           1.3040    4.9830    0.0000 C.3     1  LIG1        0.0935
     32 O          -0.4580    4.0210    0.0000 O.2     1  LIG1       -0.2708
     33 C           0.3710    0.5670    0.0000 C.ar    1  LIG1        0.0370
     34 C           0.3710   -0.4460    0.0000 C.ar    1  LIG1        0.0047
@<TRIPOS>BOND
     1     1     2   ar
     2     1     6   ar
     3     2     3   ar
     4     2    19    1
     5     3     4   ar
     6     3    18   ar
     7     4     5   ar
     8     4    15   ar
     9     5     6   ar
    10     5     7    1
    11     7     8    1
    12     8     9    1
    13     9    10   ar
    14     9    14   ar
    15    10    11   ar
    16    11    12   ar
    17    12    13   ar
    18    13    14   ar
    19    15    16   ar
    20    16    17   ar
    21    17    18   ar
    22    19    20   ar
    23    19    34   ar
    24    20    21   ar
    25    21    22   ar
    26    22    23    1
    27    22    33   ar
    28    23    24    1
    29    24    25    1
    30    25    26   am
    31    25    32    2
    32    26    27    1
    33    26    31    1
    34    27    28    1
    35    28    29    1
    36    29    30    1
    37    30    31    1
    38    33    34   ar
