@<TRIPOS>MOLECULE
24205_ChemDiv_5754-2873
 35 39 0 0 0
SMALL
GASTEIGER
Energy = 0

@<TRIPOS>ATOM
      1 N          -0.9130   -2.0130    0.0000 N.ar    1  LIG1       -0.1668
      2 N          -0.9130   -3.0040    0.0000 N.ar    1  LIG1       -0.2146
      3 C          -1.7710   -3.5170    0.0000 C.ar    1  LIG1        0.2764
      4 C          -2.6250   -3.0040    0.0000 C.ar    1  LIG1        0.0591
      5 C          -2.6250   -2.0130    0.0000 C.ar    1  LIG1        0.0240
      6 C          -1.7710   -1.5040    0.0000 C.ar    1  LIG1        0.1011
      7 C          -1.7710   -0.5040    0.0000 C.ar    1  LIG1        0.0207
      8 C          -0.9130    0.0000    0.0000 C.ar    1  LIG1        0.0194
      9 C          -0.9130    1.0210    0.0000 C.ar    1  LIG1        0.0868
     10 C          -1.7710    1.5080    0.0000 C.ar    1  LIG1        0.0634
     11 N          -1.7710    2.5330    0.0000 N.pl3   1  LIG1       -0.3065
     12 C          -2.6250    3.0080    0.0000 C.3     1  LIG1        0.0908
     13 C          -2.6250    4.0210    0.0000 C.3     1  LIG1        0.0215
     14 C          -1.7710    4.5080    0.0000 C.3     1  LIG1        0.0035
     15 C          -0.9130    4.0210    0.0000 C.3     1  LIG1        0.0215
     16 C          -0.9130    3.0080    0.0000 C.3     1  LIG1        0.0908
     17 C          -2.6250    1.0210    0.0000 C.ar    1  LIG1        0.0159
     18 C          -2.6250    0.0000    0.0000 C.ar    1  LIG1        0.0029
     19 N          -0.0250    1.5330    0.0000 N.am    1  LIG1       -0.1748
     20 C           0.8330    1.0460    0.0000 C.2     1  LIG1        0.2901
     21 O           0.8330    0.0330    0.0000 O.2     1  LIG1       -0.2689
     22 C           1.7000    1.5330    0.0000 C.3     1  LIG1        0.2915
     23 O           1.7000    2.5330    0.0000 O.3     1  LIG1       -0.4656
     24 C           2.5710    3.0380    0.0000 C.ar    1  LIG1        0.1393
     25 C           3.4830    2.5170    0.0000 C.ar    1  LIG1        0.0369
     26 C           4.3380    3.0080    0.0000 C.ar    1  LIG1        0.0031
     27 C           4.3210    4.0210    0.0000 C.ar    1  LIG1        0.0002
     28 C           3.4670    4.4920    0.0000 C.ar    1  LIG1        0.0031
     29 C           2.5920    4.0130    0.0000 C.ar    1  LIG1        0.0369
     30 C          -3.4880   -1.5040    0.0000 C.ar    1  LIG1        0.0017
     31 C          -4.3420   -2.0130    0.0000 C.ar    1  LIG1        0.0001
     32 C          -4.3420   -3.0040    0.0000 C.ar    1  LIG1        0.0002
     33 C          -3.4880   -3.5170    0.0000 C.ar    1  LIG1        0.0048
     34 O          -1.7710   -4.5080    0.0000 O.2     1  LIG1       -0.2655
     35 C          -0.0250   -3.5420    0.0000 C.3     1  LIG1        0.1571
@<TRIPOS>BOND
     1     1     2   ar
     2     1     6   ar
     3     2     3   ar
     4     2    35    1
     5     3     4   ar
     6     3    34    2
     7     4     5   ar
     8     4    33   ar
     9     5     6   ar
    10     5    30   ar
    11     6     7    1
    12     7     8   ar
    13     7    18   ar
    14     8     9   ar
    15     9    10   ar
    16     9    19    1
    17    10    11    1
    18    10    17   ar
    19    11    12    1
    20    11    16    1
    21    12    13    1
    22    13    14    1
    23    14    15    1
    24    15    16    1
    25    17    18   ar
    26    19    20   am
    27    20    21    2
    28    20    22    1
    29    22    23    1
    30    23    24    1
    31    24    25   ar
    32    24    29   ar
    33    25    26   ar
    34    26    27   ar
    35    27    28   ar
    36    28    29   ar
    37    30    31   ar
    38    31    32   ar
    39    32    33   ar
