@<TRIPOS>MOLECULE
24208_ChemDiv_5326-0662
 27 30 0 0 0
SMALL
GASTEIGER
Energy = 0

@<TRIPOS>ATOM
      1 S          -1.8630    1.6580    0.0000 S.O2    1  LIG1       -0.0578
      2 N          -1.0080    2.1880    0.0000 N.pl3   1  LIG1       -0.5358
      3 C          -0.1210    1.6880    0.0000 C.ar    1  LIG1       -0.1107
      4 C           0.7630    2.1880    0.0000 C.ar    1  LIG1       -0.0032
      5 C           1.6290    1.6880    0.0000 C.ar    1  LIG1        0.0973
      6 N           2.5500    1.9710    0.0000 N.ar    1  LIG1       -0.2237
      7 C           3.1250    1.2130    0.0000 C.ar    1  LIG1        0.1828
      8 N           2.5500    0.3670    0.0000 N.ar    1  LIG1       -0.2850
      9 C           1.6290    0.6830    0.0000 C.ar    1  LIG1        0.0830
     10 C           0.7630    0.1790    0.0000 C.ar    1  LIG1        0.0172
     11 C          -0.1210    0.6830    0.0000 C.ar    1  LIG1       -0.0222
     12 C           2.7960   -0.6040    0.0000 C.ar    1  LIG1        0.0994
     13 C           3.7500   -0.8960    0.0000 C.ar    1  LIG1        0.1547
     14 O           4.4880   -0.2250    0.0000 O.3     1  LIG1       -0.4700
     15 C           4.2960    0.7580    0.0000 C.3     1  LIG1        0.2525
     16 C           3.9670   -1.8710    0.0000 C.ar    1  LIG1        0.0384
     17 C           3.2210   -2.5380    0.0000 C.ar    1  LIG1        0.0032
     18 C           2.2920   -2.2290    0.0000 C.ar    1  LIG1        0.0017
     19 C           2.0500   -1.2750    0.0000 C.ar    1  LIG1        0.0206
     20 O          -2.3830    2.5420    0.0000 O.2     1  LIG1       -0.1842
     21 O          -1.3580    0.8000    0.0000 O.2     1  LIG1       -0.1842
     22 C          -2.7420    1.1580    0.0000 C.ar    1  LIG1        0.0893
     23 C          -2.7420    0.1630    0.0000 C.ar    1  LIG1        0.0169
     24 C          -3.6040   -0.3670    0.0000 C.ar    1  LIG1        0.0013
     25 C          -4.4630    0.1630    0.0000 C.ar    1  LIG1        0.0001
     26 C          -4.4920    1.1580    0.0000 C.ar    1  LIG1        0.0013
     27 C          -3.6290    1.6580    0.0000 C.ar    1  LIG1        0.0169
@<TRIPOS>BOND
     1     1     2    1
     2     1    20    2
     3     1    21    2
     4     1    22    1
     5     2     3    1
     6     3     4   ar
     7     3    11   ar
     8     4     5   ar
     9     5     6   ar
    10     5     9   ar
    11     6     7   ar
    12     7     8   ar
    13     8     9   ar
    14     8    12    1
    15     9    10   ar
    16    10    11   ar
    17    12    13   ar
    18    12    19   ar
    19    13    14    1
    20    13    16   ar
    21    14    15    1
    22    16    17   ar
    23    17    18   ar
    24    18    19   ar
    25    22    23   ar
    26    22    27   ar
    27    23    24   ar
    28    24    25   ar
    29    25    26   ar
    30    26    27   ar
