@<TRIPOS>MOLECULE
24207_ChemDiv_5754-2893
 35 39 0 0 0
SMALL
GASTEIGER
Energy = 0

@<TRIPOS>ATOM
      1 S           1.3460    3.5000    0.0000 S.O2    1  LIG1        0.0750
      2 N           1.3460    2.4960    0.0000 N.pl3   1  LIG1       -0.0993
      3 C           0.4080    1.9580    0.0000 C.ar    1  LIG1        0.1039
      4 C          -0.4380    2.4830    0.0000 C.ar    1  LIG1        0.0649
      5 N          -0.4380    3.4920    0.0000 N.pl3   1  LIG1       -0.3017
      6 C           0.4210    4.0210    0.0000 C.3     1  LIG1        0.1231
      7 C           0.4210    4.9960    0.0000 C.3     1  LIG1        0.1636
      8 O          -0.4380    5.5000    0.0000 O.3     1  LIG1       -0.3501
      9 C          -1.3250    4.9960    0.0000 C.3     1  LIG1        0.1636
     10 C          -1.3250    4.0040    0.0000 C.3     1  LIG1        0.1231
     11 C          -1.3040    1.9580    0.0000 C.ar    1  LIG1        0.0159
     12 C          -1.3040    0.9540    0.0000 C.ar    1  LIG1        0.0029
     13 C          -0.4380    0.4380    0.0000 C.ar    1  LIG1        0.0208
     14 C          -0.4380   -0.5460    0.0000 C.ar    1  LIG1        0.1030
     15 N           0.4080   -1.0790    0.0000 N.ar    1  LIG1       -0.1467
     16 N           0.4080   -2.0880    0.0000 N.ar    1  LIG1       -0.1311
     17 C          -0.4380   -2.5880    0.0000 C.ar    1  LIG1        0.1734
     18 C          -1.3040   -2.0880    0.0000 C.ar    1  LIG1        0.0366
     19 C          -1.3040   -1.0790    0.0000 C.ar    1  LIG1        0.0222
     20 C          -2.1790   -0.5460    0.0000 C.ar    1  LIG1        0.0016
     21 C          -3.0460   -1.0790    0.0000 C.ar    1  LIG1        0.0001
     22 C          -3.0460   -2.0880    0.0000 C.ar    1  LIG1        0.0001
     23 C          -2.1790   -2.5880    0.0000 C.ar    1  LIG1        0.0029
     24 N          -0.4250   -3.5710    0.0000 N.pl3   1  LIG1       -0.1927
     25 C           0.4210   -4.0540    0.0000 C.ar    1  LIG1        0.0724
     26 C           0.4460   -5.0380    0.0000 C.ar    1  LIG1        0.0198
     27 C           1.3330   -5.5000    0.0000 C.ar    1  LIG1        0.0434
     28 C           2.1630   -4.9580    0.0000 C.ar    1  LIG1        0.1958
     29 C           2.1170   -4.0080    0.0000 C.ar    1  LIG1        0.0434
     30 C           1.2380   -3.5460    0.0000 C.ar    1  LIG1        0.0198
     31 O           3.0420   -5.3750    0.0000 O.3     1  LIG1       -0.2866
     32 C           0.4080    0.9540    0.0000 C.ar    1  LIG1        0.0208
     33 O           2.3500    3.5000    0.0000 O.2     1  LIG1       -0.1528
     34 O           0.3460    3.5000    0.0000 O.2     1  LIG1       -0.1528
     35 C           1.3460    4.4830    0.0000 C.3     1  LIG1        0.2016
@<TRIPOS>BOND
     1     1     2    1
     2     1    33    2
     3     1    34    2
     4     1    35    1
     5     2     3    1
     6     3     4   ar
     7     3    32   ar
     8     4     5    1
     9     4    11   ar
    10     5     6    1
    11     5    10    1
    12     6     7    1
    13     7     8    1
    14     8     9    1
    15     9    10    1
    16    11    12   ar
    17    12    13   ar
    18    13    14    1
    19    13    32   ar
    20    14    15   ar
    21    14    19   ar
    22    15    16   ar
    23    16    17   ar
    24    17    18   ar
    25    17    24    1
    26    18    19   ar
    27    18    23   ar
    28    19    20   ar
    29    20    21   ar
    30    21    22   ar
    31    22    23   ar
    32    24    25    1
    33    25    26   ar
    34    25    30   ar
    35    26    27   ar
    36    27    28   ar
    37    28    29   ar
    38    28    31    1
    39    29    30   ar
