@<TRIPOS>MOLECULE
24214_ChemDiv_N025-0046
 28 31 0 0 0
SMALL
GASTEIGER
Energy = 0

@<TRIPOS>ATOM
      1 C          -0.8630   -2.0630    0.0000 C.3     1  LIG1        0.0074
      2 C          -0.8630   -3.0630    0.0000 C.3     1  LIG1        0.0071
      3 C          -1.6830   -3.5670    0.0000 C.3     1  LIG1        0.0285
      4 C          -2.5330   -3.0630    0.0000 C.3     1  LIG1        0.1519
      5 C          -2.5330   -2.0630    0.0000 C.3     1  LIG1        0.0329
      6 C          -1.6830   -1.5420    0.0000 C.3     1  LIG1        0.0030
      7 O          -3.4130   -3.6250    0.0000 O.3     1  LIG1       -0.2232
      8 C          -1.3290   -4.5000    0.0000 C.3     1  LIG1        0.0025
      9 C          -2.2080   -4.4210    0.0000 C.3     1  LIG1        0.0025
     10 C           0.0290   -3.5670    0.0000 C.3     1  LIG1        0.0255
     11 C           0.8670   -3.0630    0.0000 C.2     1  LIG1       -0.0345
     12 C           0.8670   -2.0630    0.0000 C.2     1  LIG1       -0.0449
     13 C           0.0290   -1.5420    0.0000 C.3     1  LIG1        0.0617
     14 C           0.0290   -0.5330    0.0000 C.3     1  LIG1        0.2093
     15 O           0.8670   -0.0250    0.0000 O.3     1  LIG1       -0.4750
     16 C           0.8580    0.9540    0.0000 C.ar    1  LIG1        0.1416
     17 C           1.7170    1.4790    0.0000 C.ar    1  LIG1        0.0745
     18 C           1.7170    2.4880    0.0000 C.ar    1  LIG1        0.1517
     19 O           2.5670    3.0210    0.0000 O.2     1  LIG1       -0.4209
     20 C           2.5670    4.0040    0.0000 C.ar    1  LIG1        0.3459
     21 C           1.6790    4.5000    0.0000 C.ar    1  LIG1        0.0824
     22 C           0.8420    3.9920    0.0000 C.ar    1  LIG1        0.0097
     23 C           0.8420    2.9750    0.0000 C.ar    1  LIG1        0.0351
     24 C          -0.0210    2.4630    0.0000 C.ar    1  LIG1        0.0061
     25 C          -0.0210    1.4540    0.0000 C.ar    1  LIG1        0.0371
     26 O           3.4080    4.5000    0.0000 O.2     1  LIG1       -0.2445
     27 C           1.7830   -1.5420    0.0000 C.3     1  LIG1        0.0261
     28 C          -0.8460   -1.1000    0.0000 C.3     1  LIG1        0.0004
@<TRIPOS>BOND
     1     1     2    1
     2     1     6    1
     3     1    13    1
     4     1    28    1
     5     2     3    1
     6     2    10    1
     7     3     4    1
     8     3     8    1
     9     3     9    1
    10     4     5    1
    11     4     7    1
    12     5     6    1
    13    10    11    1
    14    11    12    2
    15    12    13    1
    16    12    27    1
    17    13    14    1
    18    14    15    1
    19    15    16    1
    20    16    17   ar
    21    16    25   ar
    22    17    18   ar
    23    18    19   ar
    24    18    23   ar
    25    19    20   ar
    26    20    21   ar
    27    20    26    2
    28    21    22   ar
    29    22    23   ar
    30    23    24   ar
    31    24    25   ar
