@<TRIPOS>MOLECULE
24212_ChemDiv_D015-0086
 17 19 0 0 0
SMALL
GASTEIGER
Energy = 0

@<TRIPOS>ATOM
      1 C           0.8500   -0.6460    0.0000 C.ar    1  LIG1        0.1493
      2 C          -0.0040   -0.1380    0.0000 C.ar    1  LIG1        0.1570
      3 C          -0.8670   -0.6290    0.0000 C.ar    1  LIG1        0.0695
      4 C          -0.8790   -1.6380    0.0000 C.ar    1  LIG1        0.1516
      5 O          -0.0040   -2.1380    0.0000 O.2     1  LIG1       -0.4208
      6 C           0.8500   -1.6380    0.0000 C.ar    1  LIG1        0.3519
      7 O           1.5710   -2.3380    0.0000 O.2     1  LIG1       -0.2443
      8 C          -1.7420   -2.1380    0.0000 C.ar    1  LIG1        0.0377
      9 C          -2.6040   -1.6380    0.0000 C.ar    1  LIG1        0.0031
     10 C          -2.6040   -0.6290    0.0000 C.ar    1  LIG1        0.0003
     11 C          -1.7420   -0.1380    0.0000 C.ar    1  LIG1        0.0061
     12 O           0.0000    0.8710    0.0000 O.2     1  LIG1       -0.4572
     13 C           0.8790    1.3540    0.0000 C.ar    1  LIG1        0.1264
     14 C           1.7500    0.8460    0.0000 C.ar    1  LIG1        0.0753
     15 C           1.7250   -0.1580    0.0000 C.ar    1  LIG1        0.2076
     16 O           2.6000   -0.6460    0.0000 O.2     1  LIG1       -0.2861
     17 C           0.8630    2.3420    0.0000 C.3     1  LIG1        0.0726
@<TRIPOS>BOND
     1     1     2   ar
     2     1     6   ar
     3     1    15   ar
     4     2     3   ar
     5     2    12   ar
     6     3     4   ar
     7     3    11   ar
     8     4     5   ar
     9     4     8   ar
    10     5     6   ar
    11     6     7    2
    12     8     9   ar
    13     9    10   ar
    14    10    11   ar
    15    12    13   ar
    16    13    14   ar
    17    13    17    1
    18    14    15   ar
    19    15    16    2
