@<TRIPOS>MOLECULE
24225_ChemDiv_5326-0669
 28 31 0 0 0
SMALL
GASTEIGER
Energy = 0

@<TRIPOS>ATOM
      1 S          -1.4170    1.6920    0.0000 S.O2    1  LIG1       -0.0578
      2 N          -0.5500    2.1710    0.0000 N.pl3   1  LIG1       -0.5358
      3 C           0.3290    1.6630    0.0000 C.ar    1  LIG1       -0.1107
      4 C           1.2000    2.1710    0.0000 C.ar    1  LIG1       -0.0032
      5 C           2.0630    1.6630    0.0000 C.ar    1  LIG1        0.0973
      6 N           3.0080    1.9790    0.0000 N.ar    1  LIG1       -0.2237
      7 C           3.5710    1.1830    0.0000 C.ar    1  LIG1        0.1828
      8 N           3.0080    0.3540    0.0000 N.ar    1  LIG1       -0.2850
      9 C           2.0630    0.6710    0.0000 C.ar    1  LIG1        0.0830
     10 C           1.2000    0.1580    0.0000 C.ar    1  LIG1        0.0172
     11 C           0.3290    0.6710    0.0000 C.ar    1  LIG1       -0.0222
     12 C           3.2330   -0.6170    0.0000 C.ar    1  LIG1        0.0994
     13 C           4.1750   -0.9210    0.0000 C.ar    1  LIG1        0.1547
     14 O           4.9210   -0.2710    0.0000 O.3     1  LIG1       -0.4700
     15 C           4.7630    0.7170    0.0000 C.3     1  LIG1        0.2525
     16 C           4.3920   -1.8960    0.0000 C.ar    1  LIG1        0.0384
     17 C           3.6670   -2.5540    0.0000 C.ar    1  LIG1        0.0032
     18 C           2.7210   -2.2630    0.0000 C.ar    1  LIG1        0.0017
     19 C           2.5130   -1.2920    0.0000 C.ar    1  LIG1        0.0206
     20 C          -2.2920    1.1830    0.0000 C.ar    1  LIG1        0.0893
     21 C          -2.2920    0.1830    0.0000 C.ar    1  LIG1        0.0174
     22 C          -3.1630   -0.3210    0.0000 C.ar    1  LIG1        0.0080
     23 C          -4.0580    0.1830    0.0000 C.ar    1  LIG1        0.0346
     24 C          -4.0370    1.2000    0.0000 C.ar    1  LIG1        0.0080
     25 C          -3.1330    1.6920    0.0000 C.ar    1  LIG1        0.0174
     26 BR         -4.9250   -0.3210    0.0000 Br      1  LIG1       -0.0490
     27 O          -1.9080    2.5580    0.0000 O.2     1  LIG1       -0.1842
     28 O          -0.9000    0.8130    0.0000 O.2     1  LIG1       -0.1842
@<TRIPOS>BOND
     1     1     2    1
     2     1    20    1
     3     1    27    2
     4     1    28    2
     5     2     3    1
     6     3     4   ar
     7     3    11   ar
     8     4     5   ar
     9     5     6   ar
    10     5     9   ar
    11     6     7   ar
    12     7     8   ar
    13     8     9   ar
    14     8    12    1
    15     9    10   ar
    16    10    11   ar
    17    12    13   ar
    18    12    19   ar
    19    13    14    1
    20    13    16   ar
    21    14    15    1
    22    16    17   ar
    23    17    18   ar
    24    18    19   ar
    25    20    21   ar
    26    20    25   ar
    27    21    22   ar
    28    22    23   ar
    29    23    24   ar
    30    23    26    1
    31    24    25   ar
