@<TRIPOS>MOLECULE
24229_ChemDiv_7491-0127
 23 26 0 0 0
SMALL
GASTEIGER
Energy = 0

@<TRIPOS>ATOM
      1 N           2.9130    0.5920    0.0000 N.ar    1  LIG1       -0.2878
      2 C           3.7210    1.0630    0.0000 C.ar    1  LIG1        0.1828
      3 N           3.7210    2.0080    0.0000 N.ar    1  LIG1       -0.2236
      4 C           2.0830    2.0080    0.0000 C.ar    1  LIG1        0.1004
      5 C           2.0880    1.0630    0.0000 C.ar    1  LIG1        0.0831
      6 C           1.2710    0.5920    0.0000 C.ar    1  LIG1        0.0204
      7 C           0.4500    1.0500    0.0000 C.ar    1  LIG1        0.0177
      8 C           0.4460    1.9960    0.0000 C.ar    1  LIG1        0.0674
      9 C           1.2670    2.4830    0.0000 C.ar    1  LIG1        0.0367
     10 N          -0.3790    2.4710    0.0000 N.pl3   1  LIG1       -0.2294
     11 C          -1.1960    1.9960    0.0000 C.3     1  LIG1        0.1762
     12 C          -2.1170    2.2460    0.0000 C.ar    1  LIG1        0.1448
     13 O          -2.9250    1.7670    0.0000 O.2     1  LIG1       -0.4529
     14 C          -3.7500    2.2420    0.0000 C.ar    1  LIG1        0.1792
     15 C          -3.7540    3.1880    0.0000 C.ar    1  LIG1        0.0435
     16 C          -2.1210    3.2000    0.0000 C.ar    1  LIG1        0.0380
     17 C           2.9210   -0.3580    0.0000 C.ar    1  LIG1        0.0654
     18 C           2.1000   -0.8290    0.0000 C.ar    1  LIG1        0.0172
     19 C           2.1000   -1.7750    0.0000 C.ar    1  LIG1       -0.0028
     20 C           2.9290   -2.2500    0.0000 C.ar    1  LIG1       -0.0218
     21 C           3.7500   -1.7630    0.0000 C.ar    1  LIG1       -0.0028
     22 C           3.7380   -0.8250    0.0000 C.ar    1  LIG1        0.0172
     23 C           2.9330   -3.1960    0.0000 C.3     1  LIG1        0.0310
@<TRIPOS>BOND
     1     1     2   ar
     2     1     5   ar
     3     1    17    1
     4     2     3   ar
     5     3     4   ar
     6     4     5   ar
     7     4     9   ar
     8     5     6   ar
     9     6     7   ar
    10     7     8   ar
    11     8     9   ar
    12     8    10    1
    13    10    11    1
    14    11    12    1
    15    12    13   ar
    16    12    16   ar
    17    13    14   ar
    18    14    15   ar
    19    15    16   ar
    20    17    18   ar
    21    17    22   ar
    22    18    19   ar
    23    19    20   ar
    24    20    21   ar
    25    20    23    1
    26    21    22   ar
