@<TRIPOS>MOLECULE
24222_ChemDiv_000A-0454
 25 28 0 0 0
SMALL
GASTEIGER
Energy = 0

@<TRIPOS>ATOM
      1 C          -0.0080   -0.5040    0.0000 C.3     1  LIG1        0.0711
      2 C          -0.8750   -1.0000    0.0000 C.3     1  LIG1        0.0478
      3 C          -1.7460   -0.5040    0.0000 C.3     1  LIG1        0.0233
      4 C          -1.7460    0.5080    0.0000 C.2     1  LIG1       -0.0520
      5 C          -0.8750    1.0130    0.0000 C.2     1  LIG1       -0.0520
      6 C          -0.0080    0.5080    0.0000 C.3     1  LIG1        0.0253
      7 C           0.8540    1.0130    0.0000 C.3     1  LIG1        0.0045
      8 C           0.8540    2.0080    0.0000 C.3     1  LIG1        0.0007
      9 C          -0.0080    2.5040    0.0000 C.3     1  LIG1        0.0043
     10 C          -0.8750    2.0080    0.0000 C.3     1  LIG1        0.0214
     11 C          -2.6000    1.0130    0.0000 C.3     1  LIG1        0.0214
     12 C          -3.4630    0.5080    0.0000 C.3     1  LIG1        0.0043
     13 C          -3.4630   -0.5040    0.0000 C.3     1  LIG1        0.0007
     14 C          -2.6000   -1.0000    0.0000 C.3     1  LIG1        0.0044
     15 C          -0.8750   -2.0040    0.0000 C.2     1  LIG1        0.0507
     16 O          -1.7460   -2.5000    0.0000 O.co2   1  LIG1       -0.5492
     17 O          -0.0080   -2.5000    0.0000 O.co2   1  LIG1       -0.5492
     18 C           0.8710   -1.0000    0.0000 C.2     1  LIG1        0.1733
     19 O           0.8710   -2.0040    0.0000 O.2     1  LIG1       -0.2913
     20 C           1.7330   -0.5040    0.0000 C.ar    1  LIG1        0.0347
     21 C           1.7330    0.4920    0.0000 C.ar    1  LIG1        0.0028
     22 C           2.5960    0.9880    0.0000 C.ar    1  LIG1        0.0001
     23 C           3.4580    0.4920    0.0000 C.ar    1  LIG1        0.0000
     24 C           3.4580   -0.5040    0.0000 C.ar    1  LIG1        0.0001
     25 C           2.5960   -1.0000    0.0000 C.ar    1  LIG1        0.0028
@<TRIPOS>BOND
     1     1     2    1
     2     1     6    1
     3     1    18    1
     4     2     3    1
     5     2    15    1
     6     3     4    1
     7     3    14    1
     8     4     5    2
     9     4    11    1
    10     5     6    1
    11     5    10    1
    12     6     7    1
    13     7     8    1
    14     8     9    1
    15     9    10    1
    16    11    12    1
    17    12    13    1
    18    13    14    1
    19    15    16   ar
    20    15    17   ar
    21    18    19    2
    22    18    20    1
    23    20    21   ar
    24    20    25   ar
    25    21    22   ar
    26    22    23   ar
    27    23    24   ar
    28    24    25   ar
