@<TRIPOS>MOLECULE
24227_ChemDiv_5326-0692
 32 35 0 0 0
SMALL
GASTEIGER
Energy = 0

@<TRIPOS>ATOM
      1 N           3.4170   -0.9670    0.0000 N.ar    1  LIG1       -0.2850
      2 C           4.0040   -0.1380    0.0000 C.ar    1  LIG1        0.1828
      3 N           3.4170    0.6630    0.0000 N.ar    1  LIG1       -0.2236
      4 C           2.4670    0.3580    0.0000 C.ar    1  LIG1        0.1004
      5 C           2.4670   -0.6670    0.0000 C.ar    1  LIG1        0.0832
      6 C           1.6250   -1.1500    0.0000 C.ar    1  LIG1        0.0204
      7 C           0.7630   -0.6670    0.0000 C.ar    1  LIG1        0.0182
      8 C           0.7630    0.3580    0.0000 C.ar    1  LIG1        0.0753
      9 N          -0.1170    0.8540    0.0000 N.am    1  LIG1       -0.1754
     10 C          -0.9880    0.3750    0.0000 C.2     1  LIG1        0.2692
     11 C          -1.8500    0.8540    0.0000 C.ar    1  LIG1        0.0616
     12 C          -1.8330    1.8500    0.0000 C.ar    1  LIG1        0.0448
     13 C          -2.7040    2.3540    0.0000 C.ar    1  LIG1        0.1756
     14 C          -3.5750    1.8670    0.0000 C.ar    1  LIG1        0.2061
     15 C          -3.6000    0.8830    0.0000 C.ar    1  LIG1        0.1756
     16 C          -2.7210    0.3750    0.0000 C.ar    1  LIG1        0.0448
     17 O          -4.4920    0.3750    0.0000 O.3     1  LIG1       -0.4683
     18 C          -5.3580    0.9080    0.0000 C.3     1  LIG1        0.2526
     19 O          -4.4330    2.4040    0.0000 O.3     1  LIG1       -0.4654
     20 C          -5.3330    1.9250    0.0000 C.3     1  LIG1        0.2528
     21 O          -2.7040    3.3580    0.0000 O.3     1  LIG1       -0.4683
     22 C          -1.8330    3.8630    0.0000 C.3     1  LIG1        0.2526
     23 O          -1.0080   -0.6380    0.0000 O.2     1  LIG1       -0.2680
     24 C           1.6250    0.8540    0.0000 C.ar    1  LIG1        0.0372
     25 C           3.6380   -1.9250    0.0000 C.ar    1  LIG1        0.0994
     26 C           4.5960   -2.2380    0.0000 C.ar    1  LIG1        0.1547
     27 O           5.3540   -1.5790    0.0000 O.3     1  LIG1       -0.4700
     28 C           5.1630   -0.6210    0.0000 C.3     1  LIG1        0.2525
     29 C           4.8170   -3.2080    0.0000 C.ar    1  LIG1        0.0384
     30 C           4.0670   -3.8580    0.0000 C.ar    1  LIG1        0.0032
     31 C           3.1250   -3.5710    0.0000 C.ar    1  LIG1        0.0017
     32 C           2.9040   -2.6000    0.0000 C.ar    1  LIG1        0.0206
@<TRIPOS>BOND
     1     1     2   ar
     2     1     5   ar
     3     1    25    1
     4     2     3   ar
     5     3     4   ar
     6     4     5   ar
     7     4    24   ar
     8     5     6   ar
     9     6     7   ar
    10     7     8   ar
    11     8     9    1
    12     8    24   ar
    13     9    10   am
    14    10    11    1
    15    10    23    2
    16    11    12   ar
    17    11    16   ar
    18    12    13   ar
    19    13    14   ar
    20    13    21    1
    21    14    15   ar
    22    14    19    1
    23    15    16   ar
    24    15    17    1
    25    17    18    1
    26    19    20    1
    27    21    22    1
    28    25    26   ar
    29    25    32   ar
    30    26    27    1
    31    26    29   ar
    32    27    28    1
    33    29    30   ar
    34    30    31   ar
    35    31    32   ar
