@<TRIPOS>MOLECULE
24221_ChemDiv_8017-8663
 29 33 0 0 0
SMALL
GASTEIGER
Energy = 0

@<TRIPOS>ATOM
      1 C           0.9380   -0.9380    0.0000 C.2     1  LIG1        0.1061
      2 C           0.9380   -1.9380    0.0000 C.2     1  LIG1        0.2208
      3 O           0.0750   -2.4290    0.0000 O.2     1  LIG1       -0.4415
      4 C          -0.7920   -1.9380    0.0000 C.2     1  LIG1        0.1240
      5 C          -0.7920   -0.9380    0.0000 C.2     1  LIG1        0.0515
      6 C           0.0750   -0.4290    0.0000 C.3     1  LIG1        0.0867
      7 C           0.0750    0.5670    0.0000 C.ar    1  LIG1       -0.0101
      8 C           0.9420    1.0670    0.0000 C.ar    1  LIG1        0.0366
      9 C           0.9420    2.0670    0.0000 C.ar    1  LIG1        0.1761
     10 C           0.0750    2.5670    0.0000 C.ar    1  LIG1        0.1764
     11 O           0.2790    3.5420    0.0000 O.3     1  LIG1       -0.4346
     12 C           1.2670    3.6460    0.0000 C.3     1  LIG1        0.4294
     13 O           1.6790    2.7420    0.0000 O.3     1  LIG1       -0.4346
     14 C          -0.7920    2.0580    0.0000 C.ar    1  LIG1        0.0399
     15 C          -0.7830    1.0580    0.0000 C.ar    1  LIG1       -0.0003
     16 C          -1.6460   -0.4420    0.0000 C.2     1  LIG1        0.1724
     17 C          -2.5170   -0.9380    0.0000 C.3     1  LIG1        0.0693
     18 C          -2.5170   -1.9380    0.0000 C.3     1  LIG1        0.0144
     19 C          -1.6460   -2.4420    0.0000 C.3     1  LIG1        0.0648
     20 C          -3.3920   -1.4380    0.0000 C.3     1  LIG1        0.0009
     21 C          -3.3830   -2.4380    0.0000 C.3     1  LIG1        0.0009
     22 O          -1.6580    0.5580    0.0000 O.2     1  LIG1       -0.2916
     23 N           1.8040   -2.4420    0.0000 N.ar    1  LIG1       -0.2748
     24 C           1.9040   -3.4380    0.0000 C.ar    1  LIG1        0.0829
     25 C           2.8880   -3.6420    0.0000 C.ar    1  LIG1        0.0206
     26 C           3.3880   -2.7790    0.0000 C.ar    1  LIG1        0.0206
     27 C           2.7170   -2.0290    0.0000 C.ar    1  LIG1        0.0829
     28 C           1.8040   -0.4420    0.0000 C.1     1  LIG1        0.1014
     29 N           2.6790    0.0540    0.0000 N.1     1  LIG1       -0.1910
@<TRIPOS>BOND
     1     1     2    2
     2     1     6    1
     3     1    28    1
     4     2     3    1
     5     2    23    1
     6     3     4    1
     7     4     5    2
     8     4    19    1
     9     5     6    1
    10     5    16    1
    11     6     7    1
    12     7     8   ar
    13     7    15   ar
    14     8     9   ar
    15     9    10   ar
    16     9    13    1
    17    10    11    1
    18    10    14   ar
    19    11    12    1
    20    12    13    1
    21    14    15   ar
    22    16    17    1
    23    16    22    2
    24    17    18    1
    25    18    19    1
    26    18    20    1
    27    18    21    1
    28    23    24   ar
    29    23    27   ar
    30    24    25   ar
    31    25    26   ar
    32    26    27   ar
    33    28    29    3
