@<TRIPOS>MOLECULE
24223_ChemDiv_000A-0293
 15 16 0 0 0
SMALL
GASTEIGER
Energy = 0

@<TRIPOS>ATOM
      1 C           0.4420    0.7210    0.0000 C.ar    1  LIG1        0.0521
      2 C           1.2830    0.2420    0.0000 C.ar    1  LIG1        0.0812
      3 N           1.2830   -0.7670    0.0000 N.ar    1  LIG1       -0.2921
      4 C           0.4420   -1.2790    0.0000 C.ar    1  LIG1        0.2609
      5 C          -0.4460   -0.7670    0.0000 C.ar    1  LIG1        0.0563
      6 C          -0.4460    0.2420    0.0000 C.ar    1  LIG1        0.0088
      7 C          -1.3250    0.7210    0.0000 C.ar    1  LIG1        0.0003
      8 C          -2.1750    0.2420    0.0000 C.ar    1  LIG1        0.0000
      9 C          -2.1750   -0.7670    0.0000 C.ar    1  LIG1        0.0002
     10 C          -1.3250   -1.2790    0.0000 C.ar    1  LIG1        0.0047
     11 O           0.4670   -2.2880    0.0000 O.2     1  LIG1       -0.2670
     12 C           2.1710   -1.2790    0.0000 C.3     1  LIG1        0.1336
     13 C           0.4670    1.7080    0.0000 C.2     1  LIG1        0.1749
     14 O           1.3040    2.2170    0.0000 O.2     1  LIG1       -0.2913
     15 C          -0.3380    2.2920    0.0000 C.3     1  LIG1        0.0773
@<TRIPOS>BOND
     1     1     2   ar
     2     1     6   ar
     3     1    13    1
     4     2     3   ar
     5     3     4   ar
     6     3    12    1
     7     4     5   ar
     8     4    11    2
     9     5     6   ar
    10     5    10   ar
    11     6     7   ar
    12     7     8   ar
    13     8     9   ar
    14     9    10   ar
    15    13    14    2
    16    13    15    1
