@<TRIPOS>MOLECULE
24234_ChemDiv_8008-7607
 23 25 0 0 0
SMALL
GASTEIGER
Energy = 0

@<TRIPOS>ATOM
      1 C          -1.4290   -1.8080    0.0000 C.ar    1  LIG1        0.2080
      2 S          -1.0130   -0.8790    0.0000 S.2     1  LIG1       -0.0327
      3 C          -1.7670   -0.2040    0.0000 C.ar    1  LIG1        0.1168
      4 N          -2.6500   -0.6960    0.0000 N.ar    1  LIG1       -0.1436
      5 N          -2.4500   -1.7040    0.0000 N.ar    1  LIG1       -0.1239
      6 C          -1.6500    0.8130    0.0000 C.3     1  LIG1        0.0808
      7 C          -2.1210    1.6920    0.0000 C.ar    1  LIG1       -0.0156
      8 C          -1.5790    2.5500    0.0000 C.ar    1  LIG1       -0.0030
      9 C          -2.0580    3.4580    0.0000 C.ar    1  LIG1        0.0111
     10 C          -3.0750    3.5000    0.0000 C.ar    1  LIG1        0.0577
     11 CL         -3.5290    4.3790    0.0000 Cl      1  LIG1       -0.0822
     12 C          -3.6080    2.6290    0.0000 C.ar    1  LIG1        0.0111
     13 C          -3.1380    1.7330    0.0000 C.ar    1  LIG1       -0.0030
     14 N          -0.9170   -2.6880    0.0000 N.am    1  LIG1       -0.1490
     15 C           0.0380   -2.6880    0.0000 C.2     1  LIG1        0.2707
     16 C           0.9380   -2.8540    0.0000 C.ar    1  LIG1        0.0551
     17 C           1.8040   -2.3330    0.0000 C.ar    1  LIG1        0.0003
     18 C           2.6920   -2.8540    0.0000 C.ar    1  LIG1       -0.0217
     19 C           2.6920   -3.8830    0.0000 C.ar    1  LIG1       -0.0043
     20 C           1.8040   -4.3790    0.0000 C.ar    1  LIG1       -0.0002
     21 C           0.9380   -3.8830    0.0000 C.ar    1  LIG1        0.0046
     22 C           3.6040   -2.2330    0.0000 C.3     1  LIG1        0.0310
     23 O           0.0380   -3.3630    0.0000 O.2     1  LIG1       -0.2679
@<TRIPOS>BOND
     1     1     2   ar
     2     1     5   ar
     3     1    14    1
     4     2     3   ar
     5     3     4   ar
     6     3     6    1
     7     4     5   ar
     8     6     7    1
     9     7     8   ar
    10     7    13   ar
    11     8     9   ar
    12     9    10   ar
    13    10    11    1
    14    10    12   ar
    15    12    13   ar
    16    14    15   am
    17    15    16    1
    18    15    23    2
    19    16    17   ar
    20    16    21   ar
    21    17    18   ar
    22    18    19   ar
    23    18    22    1
    24    19    20   ar
    25    20    21   ar
