@<TRIPOS>MOLECULE
24239_ChemDiv_0075-0033
 17 20 0 0 0
SMALL
GASTEIGER
Energy = 0

@<TRIPOS>ATOM
      1 N          -0.3290   -1.0750    0.0000 N.ar    1  LIG1       -0.3205
      2 C           0.5460   -0.6750    0.0000 C.ar    1  LIG1        0.0902
      3 C           0.6500    0.2830    0.0000 C.ar    1  LIG1       -0.0035
      4 C          -0.2460    0.6580    0.0000 C.ar    1  LIG1        0.0128
      5 C          -0.9750   -0.3380    0.0000 C.ar    1  LIG1        0.0596
      6 C          -1.9330   -0.2580    0.0000 C.ar    1  LIG1        0.0169
      7 C          -2.3460    0.6170    0.0000 C.ar    1  LIG1       -0.0028
      8 C          -1.5920    1.6580    0.0000 C.ar    1  LIG1       -0.0218
      9 C          -0.6330    1.5540    0.0000 C.ar    1  LIG1       -0.0031
     10 C          -1.7830    2.6130    0.0000 C.3     1  LIG1        0.0310
     11 C           1.5250    0.6960    0.0000 C.3     1  LIG1        0.0280
     12 C           2.3420    0.1170    0.0000 C.3     1  LIG1        0.0113
     13 C           2.2330   -0.8380    0.0000 C.3     1  LIG1        0.0694
     14 C           1.3380   -1.2420    0.0000 C.3     1  LIG1        0.1821
     15 N           1.2330   -2.1960    0.0000 N.4     1  LIG1        0.4496
     16 C           0.3580   -2.6080    0.0000 C.3     1  LIG1        0.2257
     17 C          -0.4330   -2.0330    0.0000 C.3     1  LIG1        0.1751
@<TRIPOS>BOND
     1     1     2   ar
     2     1     5   ar
     3     1    17    1
     4     2     3   ar
     5     2    14    1
     6     3     4   ar
     7     3    11    1
     8     4     5   ar
     9     4     9   ar
    10     5     6   ar
    11     6     7   ar
    12     7     8   ar
    13     8     9   ar
    14     8    10    1
    15    11    12    1
    16    12    13    1
    17    13    14    1
    18    14    15    1
    19    15    16    1
    20    16    17    1
