@<TRIPOS>MOLECULE
24231_ChemDiv_8012-5178
 26 29 0 0 0
SMALL
GASTEIGER
Energy = 0

@<TRIPOS>ATOM
      1 N           2.1170    0.8630    0.0000 N.ar    1  LIG1       -0.2878
      2 C           2.6040    1.7000    0.0000 C.ar    1  LIG1        0.1828
      3 N           2.1250    2.5420    0.0000 N.ar    1  LIG1       -0.2236
      4 C           0.6670    1.7000    0.0000 C.ar    1  LIG1        0.1004
      5 C           1.1630    0.8630    0.0000 C.ar    1  LIG1        0.0831
      6 C           0.6580    0.0380    0.0000 C.ar    1  LIG1        0.0204
      7 C          -0.3170    0.0380    0.0000 C.ar    1  LIG1        0.0177
      8 C          -0.7920    0.8630    0.0000 C.ar    1  LIG1        0.0673
      9 C          -0.3000    1.7000    0.0000 C.ar    1  LIG1        0.0367
     10 N          -1.8040    0.8630    0.0000 N.pl3   1  LIG1       -0.2326
     11 C          -2.2130    1.6790    0.0000 C.3     1  LIG1        0.1417
     12 C          -3.1580    1.6790    0.0000 C.ar    1  LIG1        0.0383
     13 C          -3.6750    0.8420    0.0000 C.ar    1  LIG1        0.1934
     14 O          -3.1580   -0.0420    0.0000 O.3     1  LIG1       -0.2869
     15 C          -4.6290    0.8420    0.0000 C.ar    1  LIG1        0.0418
     16 C          -5.1040    1.6790    0.0000 C.ar    1  LIG1        0.0033
     17 C          -4.6130    2.5080    0.0000 C.ar    1  LIG1       -0.0001
     18 C          -3.6630    2.5080    0.0000 C.ar    1  LIG1        0.0006
     19 C           2.5630    0.0290    0.0000 C.ar    1  LIG1        0.0657
     20 C           3.5500    0.0290    0.0000 C.ar    1  LIG1        0.0207
     21 C           4.0540   -0.8250    0.0000 C.ar    1  LIG1        0.0384
     22 C           3.5500   -1.6750    0.0000 C.ar    1  LIG1        0.1388
     23 C           2.5630   -1.6750    0.0000 C.ar    1  LIG1        0.0384
     24 C           2.0790   -0.8250    0.0000 C.ar    1  LIG1        0.0207
     25 O           4.0250   -2.5380    0.0000 O.3     1  LIG1       -0.4714
     26 C           5.1000   -2.5380    0.0000 C.3     1  LIG1        0.2525
@<TRIPOS>BOND
     1     1     2   ar
     2     1     5   ar
     3     1    19    1
     4     2     3   ar
     5     3     4   ar
     6     4     5   ar
     7     4     9   ar
     8     5     6   ar
     9     6     7   ar
    10     7     8   ar
    11     8     9   ar
    12     8    10    1
    13    10    11    1
    14    11    12    1
    15    12    13   ar
    16    12    18   ar
    17    13    14    1
    18    13    15   ar
    19    15    16   ar
    20    16    17   ar
    21    17    18   ar
    22    19    20   ar
    23    19    24   ar
    24    20    21   ar
    25    21    22   ar
    26    22    23   ar
    27    22    25    1
    28    23    24   ar
    29    25    26    1
