@<TRIPOS>MOLECULE
24235_ChemDiv_8017-5501
 30 33 0 0 0
SMALL
GASTEIGER
Energy = 0

@<TRIPOS>ATOM
      1 N           3.5040    1.1080    0.0000 N.ar    1  LIG1       -0.2878
      2 C           3.6040    2.0830    0.0000 C.ar    1  LIG1        0.1828
      3 N           2.7130    2.4960    0.0000 N.ar    1  LIG1       -0.2236
      4 C           2.0290    1.7630    0.0000 C.ar    1  LIG1        0.1004
      5 C           2.5290    0.8960    0.0000 C.ar    1  LIG1        0.0831
      6 C           2.0290    0.0130    0.0000 C.ar    1  LIG1        0.0204
      7 C           1.0290    0.0130    0.0000 C.ar    1  LIG1        0.0177
      8 C           0.5290    0.8960    0.0000 C.ar    1  LIG1        0.0673
      9 C           1.0290    1.7630    0.0000 C.ar    1  LIG1        0.0367
     10 N          -0.4790    0.8960    0.0000 N.pl3   1  LIG1       -0.2328
     11 C          -0.9880    0.0130    0.0000 C.3     1  LIG1        0.1386
     12 C          -2.0040    0.0130    0.0000 C.ar    1  LIG1        0.0026
     13 C          -2.5130    0.8960    0.0000 C.ar    1  LIG1        0.0375
     14 C          -3.5170    0.8960    0.0000 C.ar    1  LIG1        0.1721
     15 C          -4.0130    0.0130    0.0000 C.ar    1  LIG1        0.1722
     16 C          -3.5170   -0.8540    0.0000 C.ar    1  LIG1        0.0398
     17 C          -2.5130   -0.8540    0.0000 C.ar    1  LIG1        0.0008
     18 O          -5.0210    0.0130    0.0000 O.3     1  LIG1       -0.4724
     19 C          -5.5130   -0.8540    0.0000 C.3     1  LIG1        0.2057
     20 C          -6.5040   -0.8540    0.0000 C.3     1  LIG1        0.0512
     21 O          -4.0130    1.7630    0.0000 O.3     1  LIG1       -0.4684
     22 C          -5.0040    1.7630    0.0000 C.3     1  LIG1        0.2526
     23 C           4.2500    0.4500    0.0000 C.ar    1  LIG1        0.0657
     24 C           4.0790   -0.5290    0.0000 C.ar    1  LIG1        0.0207
     25 C           4.8040   -1.1750    0.0000 C.ar    1  LIG1        0.0384
     26 C           5.7630   -0.8670    0.0000 C.ar    1  LIG1        0.1388
     27 C           5.9380    0.1250    0.0000 C.ar    1  LIG1        0.0384
     28 C           5.1920    0.7580    0.0000 C.ar    1  LIG1        0.0207
     29 O           6.5040   -1.5250    0.0000 O.3     1  LIG1       -0.4714
     30 C           6.3170   -2.4920    0.0000 C.3     1  LIG1        0.2525
@<TRIPOS>BOND
     1     1     2   ar
     2     1     5   ar
     3     1    23    1
     4     2     3   ar
     5     3     4   ar
     6     4     5   ar
     7     4     9   ar
     8     5     6   ar
     9     6     7   ar
    10     7     8   ar
    11     8     9   ar
    12     8    10    1
    13    10    11    1
    14    11    12    1
    15    12    13   ar
    16    12    17   ar
    17    13    14   ar
    18    14    15   ar
    19    14    21    1
    20    15    16   ar
    21    15    18    1
    22    16    17   ar
    23    18    19    1
    24    19    20    1
    25    21    22    1
    26    23    24   ar
    27    23    28   ar
    28    24    25   ar
    29    25    26   ar
    30    26    27   ar
    31    26    29    1
    32    27    28   ar
    33    29    30    1
