@<TRIPOS>MOLECULE
24233_ChemDiv_8016-9574
 17 19 0 0 0
SMALL
GASTEIGER
Energy = 0

@<TRIPOS>ATOM
      1 N           0.4880    0.5170    0.0000 N.ar    1  LIG1       -0.2879
      2 C           1.0790    1.3290    0.0000 C.ar    1  LIG1        0.1828
      3 N           0.4880    2.1420    0.0000 N.ar    1  LIG1       -0.2236
      4 C          -0.4670    1.8290    0.0000 C.ar    1  LIG1        0.1004
      5 C          -0.4670    0.8290    0.0000 C.ar    1  LIG1        0.0831
      6 C          -1.3290    0.3290    0.0000 C.ar    1  LIG1        0.0205
      7 C          -2.1960    0.8290    0.0000 C.ar    1  LIG1        0.0196
      8 C          -2.1920    1.8290    0.0000 C.ar    1  LIG1        0.0907
      9 C          -1.3290    2.3290    0.0000 C.ar    1  LIG1        0.0387
     10 N          -3.0580    2.3290    0.0000 N.pl3   1  LIG1       -0.1280
     11 C           0.7920   -0.4250    0.0000 C.ar    1  LIG1        0.0651
     12 C           1.7670   -0.6290    0.0000 C.ar    1  LIG1        0.0133
     13 C           2.0790   -1.5790    0.0000 C.ar    1  LIG1       -0.0204
     14 C           1.4130   -2.3250    0.0000 C.ar    1  LIG1       -0.0042
     15 C           0.4290   -2.1170    0.0000 C.ar    1  LIG1        0.0012
     16 C           0.1250   -1.1670    0.0000 C.ar    1  LIG1        0.0175
     17 C           3.0540   -1.7790    0.0000 C.3     1  LIG1        0.0311
@<TRIPOS>BOND
     1     1     2   ar
     2     1     5   ar
     3     1    11    1
     4     2     3   ar
     5     3     4   ar
     6     4     5   ar
     7     4     9   ar
     8     5     6   ar
     9     6     7   ar
    10     7     8   ar
    11     8     9   ar
    12     8    10    1
    13    11    12   ar
    14    11    16   ar
    15    12    13   ar
    16    13    14   ar
    17    13    17    1
    18    14    15   ar
    19    15    16   ar
