@<TRIPOS>MOLECULE
24238_ChemDiv_000S-0424
 24 27 0 0 0
SMALL
GASTEIGER
Energy = 0

@<TRIPOS>ATOM
      1 C           0.8250   -0.9880    0.0000 C.ar    1  LIG1        0.0030
      2 C          -0.0210   -1.4790    0.0000 C.ar    1  LIG1        0.0030
      3 C          -0.8960   -0.9880    0.0000 C.ar    1  LIG1        0.0347
      4 C          -1.7290   -1.5000    0.0000 C.ar    1  LIG1        0.1483
      5 O          -2.5830   -1.0040    0.0000 O.3     1  LIG1       -0.4241
      6 C          -2.5830   -0.0380    0.0000 C.2     1  LIG1        0.3220
      7 O          -1.6380    0.4380    0.0000 O.2     1  LIG1       -0.2497
      8 C          -3.4170    0.4880    0.0000 C.3     1  LIG1        0.1216
      9 C          -1.7670   -2.5040    0.0000 C.ar    1  LIG1        0.0376
     10 C          -0.8960   -2.9960    0.0000 C.ar    1  LIG1        0.0031
     11 C          -0.0210   -2.4830    0.0000 C.ar    1  LIG1        0.0002
     12 C           0.8250   -2.9960    0.0000 C.ar    1  LIG1        0.0000
     13 C           1.7380   -2.4460    0.0000 C.ar    1  LIG1        0.0000
     14 C           1.6960   -1.4790    0.0000 C.ar    1  LIG1        0.0002
     15 C           2.5380   -0.9540    0.0000 C.ar    1  LIG1        0.0031
     16 C           2.5710    0.0500    0.0000 C.ar    1  LIG1        0.0376
     17 C           1.6960    0.5330    0.0000 C.ar    1  LIG1        0.1483
     18 C           0.8250    0.0170    0.0000 C.ar    1  LIG1        0.0347
     19 C          -0.0210    0.5330    0.0000 C.ar    1  LIG1        0.0031
     20 C          -0.9250   -0.0130    0.0000 C.ar    1  LIG1        0.0031
     21 O           1.6960    1.5380    0.0000 O.3     1  LIG1       -0.4241
     22 C           2.5710    2.0290    0.0000 C.2     1  LIG1        0.3220
     23 O           3.4130    1.5130    0.0000 O.2     1  LIG1       -0.2497
     24 C           2.6130    3.0000    0.0000 C.3     1  LIG1        0.1216
@<TRIPOS>BOND
     1     1     2   ar
     2     1    14   ar
     3     1    18   ar
     4     2     3   ar
     5     2    11   ar
     6     3     4   ar
     7     3    20   ar
     8     4     5    1
     9     4     9   ar
    10     5     6    1
    11     6     7    2
    12     6     8    1
    13     9    10   ar
    14    10    11   ar
    15    11    12   ar
    16    12    13   ar
    17    13    14   ar
    18    14    15   ar
    19    15    16   ar
    20    16    17   ar
    21    17    18   ar
    22    17    21    1
    23    18    19   ar
    24    19    20   ar
    25    21    22    1
    26    22    23    2
    27    22    24    1
