@<TRIPOS>MOLECULE
24232_ChemDiv_5628-0663
 20 22 0 0 0
SMALL
GASTEIGER
Energy = 0

@<TRIPOS>ATOM
      1 C           1.7540   -0.8330    0.0000 C.ar    1  LIG1        0.2080
      2 S           2.6040   -0.2960    0.0000 S.2     1  LIG1       -0.0306
      3 C           2.3540    0.6750    0.0000 C.ar    1  LIG1        0.1423
      4 N           1.3580    0.7330    0.0000 N.ar    1  LIG1       -0.1414
      5 N           0.9920   -0.1960    0.0000 N.ar    1  LIG1       -0.1238
      6 C           2.9790    1.4500    0.0000 C.3     1  LIG1        0.1962
      7 O           2.6210    2.3880    0.0000 O.3     1  LIG1       -0.3441
      8 C           3.2580    3.1630    0.0000 C.3     1  LIG1        0.1747
      9 N           1.5920   -1.8170    0.0000 N.am    1  LIG1       -0.1490
     10 C           0.6380   -2.1750    0.0000 C.2     1  LIG1        0.2708
     11 C          -0.1380   -1.5250    0.0000 C.ar    1  LIG1        0.0587
     12 C          -1.0670   -1.8710    0.0000 C.ar    1  LIG1        0.0448
     13 C          -1.8460   -1.2330    0.0000 C.ar    1  LIG1        0.1766
     14 C          -1.6670   -0.2540    0.0000 C.ar    1  LIG1        0.1764
     15 O          -2.5540    0.2170    0.0000 O.3     1  LIG1       -0.4346
     16 C          -3.2630   -0.4750    0.0000 C.3     1  LIG1        0.4294
     17 O          -2.8290   -1.3710    0.0000 O.3     1  LIG1       -0.4346
     18 C          -0.7380    0.0920    0.0000 C.ar    1  LIG1        0.0403
     19 C           0.0380   -0.5420    0.0000 C.ar    1  LIG1        0.0079
     20 O           0.4750   -3.1580    0.0000 O.2     1  LIG1       -0.2679
@<TRIPOS>BOND
     1     1     2   ar
     2     1     5   ar
     3     1     9    1
     4     2     3   ar
     5     3     4   ar
     6     3     6    1
     7     4     5   ar
     8     6     7    1
     9     7     8    1
    10     9    10   am
    11    10    11    1
    12    10    20    2
    13    11    12   ar
    14    11    19   ar
    15    12    13   ar
    16    13    14   ar
    17    13    17    1
    18    14    15    1
    19    14    18   ar
    20    15    16    1
    21    16    17    1
    22    18    19   ar
