@<TRIPOS>MOLECULE
24244_ChemDiv_8012-5831
 26 28 0 0 0
SMALL
GASTEIGER
Energy = 0

@<TRIPOS>ATOM
      1 C           1.7250    1.2330    0.0000 C.2     1  LIG1        0.1145
      2 C           0.8670    1.7170    0.0000 C.ar    1  LIG1        0.0197
      3 C           0.0130    1.2330    0.0000 C.ar    1  LIG1        0.0413
      4 C          -0.8460    1.7170    0.0000 C.ar    1  LIG1        0.1724
      5 C          -0.8460    2.7330    0.0000 C.ar    1  LIG1        0.1721
      6 C           0.0130    3.2250    0.0000 C.ar    1  LIG1        0.0359
      7 C           0.8670    2.7130    0.0000 C.ar    1  LIG1       -0.0154
      8 C           1.7250    3.2250    0.0000 C.3     1  LIG1        0.0528
      9 C           2.6040    2.7330    0.0000 C.3     1  LIG1        0.1303
     10 N           2.6040    1.7170    0.0000 N.2     1  LIG1       -0.2668
     11 O          -1.7250    3.2670    0.0000 O.3     1  LIG1       -0.4684
     12 C          -2.6080    2.7830    0.0000 C.3     1  LIG1        0.2526
     13 O          -1.7250    1.1830    0.0000 O.3     1  LIG1       -0.4684
     14 C          -2.6080    1.6710    0.0000 C.3     1  LIG1        0.2526
     15 C           1.7250    0.2130    0.0000 C.2     1  LIG1        0.2127
     16 C           0.8670   -0.2750    0.0000 C.ar    1  LIG1        0.0437
     17 C           0.8420   -1.2670    0.0000 C.ar    1  LIG1        0.0433
     18 C          -0.0080   -1.7580    0.0000 C.ar    1  LIG1        0.1725
     19 C          -0.8710   -1.2500    0.0000 C.ar    1  LIG1        0.1724
     20 C          -0.8460   -0.2500    0.0000 C.ar    1  LIG1        0.0401
     21 C           0.0130    0.2380    0.0000 C.ar    1  LIG1        0.0065
     22 O          -1.7500   -1.7170    0.0000 O.3     1  LIG1       -0.4684
     23 C          -2.5830   -1.1790    0.0000 C.3     1  LIG1        0.2526
     24 O          -0.0080   -2.7540    0.0000 O.3     1  LIG1       -0.4684
     25 C           0.8420   -3.2630    0.0000 C.3     1  LIG1        0.2526
     26 O           2.6040   -0.2750    0.0000 O.2     1  LIG1       -0.2850
@<TRIPOS>BOND
     1     1     2    1
     2     1    10    2
     3     1    15    1
     4     2     3   ar
     5     2     7   ar
     6     3     4   ar
     7     4     5   ar
     8     4    13    1
     9     5     6   ar
    10     5    11    1
    11     6     7   ar
    12     7     8    1
    13     8     9    1
    14     9    10    1
    15    11    12    1
    16    13    14    1
    17    15    16    1
    18    15    26    2
    19    16    17   ar
    20    16    21   ar
    21    17    18   ar
    22    18    19   ar
    23    18    24    1
    24    19    20   ar
    25    19    22    1
    26    20    21   ar
    27    22    23    1
    28    24    25    1
