@<TRIPOS>MOLECULE
24248_ChemDiv_8012-9735
 22 24 0 0 0
SMALL
GASTEIGER
Energy = 0

@<TRIPOS>ATOM
      1 C          -0.0040   -0.4830    0.0000 C.2     1  LIG1        0.0616
      2 N           0.5170    0.3830    0.0000 N.2     1  LIG1       -0.2777
      3 C           0.0250    1.2500    0.0000 C.3     1  LIG1        0.0883
      4 C          -0.9880    1.2500    0.0000 C.3     1  LIG1        0.0488
      5 C          -1.4790    0.3830    0.0000 C.ar    1  LIG1       -0.0192
      6 C          -0.9960   -0.4830    0.0000 C.ar    1  LIG1        0.0097
      7 C          -1.4960   -1.3460    0.0000 C.ar    1  LIG1        0.0009
      8 C          -2.5080   -1.3460    0.0000 C.ar    1  LIG1        0.0000
      9 C          -3.0000   -0.4830    0.0000 C.ar    1  LIG1       -0.0003
     10 C          -2.4790    0.3830    0.0000 C.ar    1  LIG1       -0.0042
     11 C          -0.4040    2.0960    0.0000 C.3     1  LIG1        0.0228
     12 C           0.0880    2.9920    0.0000 C.3     1  LIG1        0.0019
     13 C           1.0580    2.9920    0.0000 C.3     1  LIG1        0.0001
     14 C           1.5920    2.0960    0.0000 C.3     1  LIG1        0.0019
     15 C           1.0580    1.2500    0.0000 C.3     1  LIG1        0.0228
     16 C           0.4750   -1.3460    0.0000 C.3     1  LIG1        0.1194
     17 C          -0.0500   -2.1540    0.0000 C.2     1  LIG1        0.2659
     18 O           0.4920   -2.9880    0.0000 O.2     1  LIG1       -0.2713
     19 N          -1.0460   -2.1540    0.0000 N.am    1  LIG1       -0.0875
     20 C           1.4880   -1.3460    0.0000 C.3     1  LIG1        0.0152
     21 C           1.9540   -0.4920    0.0000 C.3     1  LIG1        0.0009
     22 C           2.9960   -0.4920    0.0000 C.3     1  LIG1        0.0000
@<TRIPOS>BOND
     1     1     2    2
     2     1     6    1
     3     1    16    1
     4     2     3    1
     5     3     4    1
     6     3    11    1
     7     3    15    1
     8     4     5    1
     9     5     6   ar
    10     5    10   ar
    11     6     7   ar
    12     7     8   ar
    13     8     9   ar
    14     9    10   ar
    15    11    12    1
    16    12    13    1
    17    13    14    1
    18    14    15    1
    19    16    17    1
    20    16    20    1
    21    17    18    2
    22    17    19   am
    23    20    21    1
    24    21    22    1
