@<TRIPOS>MOLECULE
24257_ChemDiv_3606-0065
 21 24 0 0 0
SMALL
GASTEIGER
Energy = 0

@<TRIPOS>ATOM
      1 N          -1.0880   -0.8580    0.0000 N.ar    1  LIG1       -0.3283
      2 C          -0.5170   -0.0670    0.0000 C.ar    1  LIG1        0.0476
      3 C          -1.1080    0.7420    0.0000 C.ar    1  LIG1       -0.0078
      4 C          -2.0290    0.4380    0.0000 C.ar    1  LIG1        0.0126
      5 C          -2.0290   -0.5290    0.0000 C.ar    1  LIG1        0.0594
      6 C          -2.8670   -1.0540    0.0000 C.ar    1  LIG1        0.0168
      7 C          -3.7380   -0.5920    0.0000 C.ar    1  LIG1       -0.0028
      8 C          -3.7880    0.3960    0.0000 C.ar    1  LIG1       -0.0218
      9 C          -2.9040    0.9170    0.0000 C.ar    1  LIG1       -0.0031
     10 C          -4.6290    0.8830    0.0000 C.3     1  LIG1        0.0310
     11 C          -0.7130    1.6420    0.0000 C.3     1  LIG1        0.0276
     12 C           0.2290    1.7420    0.0000 C.3     1  LIG1        0.0065
     13 C           0.8250    0.9380    0.0000 C.3     1  LIG1        0.0223
     14 C           0.4460    0.0420    0.0000 C.3     1  LIG1        0.0959
     15 N           1.0210   -0.7290    0.0000 N.3     1  LIG1       -0.2665
     16 C           0.6250   -1.6460    0.0000 C.3     1  LIG1        0.0971
     17 C          -0.6920   -1.7380    0.0000 C.3     1  LIG1        0.1230
     18 C           2.0540   -0.6580    0.0000 C.3     1  LIG1        0.0887
     19 C           2.6460   -1.4540    0.0000 C.3     1  LIG1        0.1227
     20 C           3.6080   -1.3420    0.0000 C.1     1  LIG1        0.0746
     21 N           4.6250   -1.2540    0.0000 N.1     1  LIG1       -0.1958
@<TRIPOS>BOND
     1     1     2   ar
     2     1     5   ar
     3     1    17    1
     4     2     3   ar
     5     2    14    1
     6     3     4   ar
     7     3    11    1
     8     4     5   ar
     9     4     9   ar
    10     5     6   ar
    11     6     7   ar
    12     7     8   ar
    13     8     9   ar
    14     8    10    1
    15    11    12    1
    16    12    13    1
    17    13    14    1
    18    14    15    1
    19    15    16    1
    20    15    18    1
    21    16    17    1
    22    18    19    1
    23    19    20    1
    24    20    21    3
