@<TRIPOS>MOLECULE
24254_ChemDiv_8016-6464
 18 20 0 0 0
SMALL
GASTEIGER
Energy = 0

@<TRIPOS>ATOM
      1 N           2.1460    0.1000    0.0000 N.2     1  LIG1       -0.2782
      2 C           1.2830   -0.4130    0.0000 C.2     1  LIG1        0.0533
      3 C           0.4210    0.0830    0.0000 C.ar    1  LIG1        0.0125
      4 C           0.4210    1.0630    0.0000 C.ar    1  LIG1       -0.0160
      5 C          -0.4630    1.5750    0.0000 C.ar    1  LIG1        0.0359
      6 C          -1.3330    1.0630    0.0000 C.ar    1  LIG1        0.1721
      7 C          -1.3330    0.0630    0.0000 C.ar    1  LIG1        0.1724
      8 C          -0.4630   -0.4290    0.0000 C.ar    1  LIG1        0.0409
      9 O          -2.1960   -0.4290    0.0000 O.3     1  LIG1       -0.4684
     10 C          -3.0750    0.0830    0.0000 C.3     1  LIG1        0.2526
     11 C          -3.0750    1.0630    0.0000 C.3     1  LIG1        0.2526
     12 O          -2.1960    1.5750    0.0000 O.3     1  LIG1       -0.4684
     13 C           1.2830    1.5580    0.0000 C.3     1  LIG1        0.0489
     14 C           2.1460    1.0460    0.0000 C.3     1  LIG1        0.0884
     15 C           2.7330    1.9330    0.0000 C.3     1  LIG1        0.0247
     16 C           3.0710    1.2330    0.0000 C.3     1  LIG1        0.0247
     17 C           1.2830   -1.4130    0.0000 C.3     1  LIG1        0.0454
     18 C           0.4210   -1.9290    0.0000 C.3     1  LIG1        0.0067
@<TRIPOS>BOND
     1     1     2    2
     2     1    14    1
     3     2     3    1
     4     2    17    1
     5     3     4   ar
     6     3     8   ar
     7     4     5   ar
     8     4    13    1
     9     5     6   ar
    10     6     7   ar
    11     6    12    1
    12     7     8   ar
    13     7     9    1
    14     9    10    1
    15    10    11    1
    16    11    12    1
    17    13    14    1
    18    14    15    1
    19    14    16    1
    20    17    18    1
