@<TRIPOS>MOLECULE
24256_ChemDiv_000A-0966
 24 27 0 0 0
SMALL
GASTEIGER
Energy = 0

@<TRIPOS>ATOM
      1 C           0.0000    1.6960    0.0000 C.ar    1  LIG1        0.1188
      2 C          -0.3170    2.6500    0.0000 C.ar    1  LIG1        0.1828
      3 N          -1.3080    2.6500    0.0000 N.ar    1  LIG1       -0.2117
      4 C          -1.6250    1.6960    0.0000 C.ar    1  LIG1        0.1264
      5 N          -0.8170    1.1130    0.0000 N.ar    1  LIG1       -0.2910
      6 C          -0.8170    0.1040    0.0000 C.ar    1  LIG1        0.0654
      7 C          -1.6710   -0.3960    0.0000 C.ar    1  LIG1        0.0207
      8 C          -1.6710   -1.3880    0.0000 C.ar    1  LIG1        0.0384
      9 C          -0.8170   -1.8790    0.0000 C.ar    1  LIG1        0.1388
     10 C           0.0630   -1.3750    0.0000 C.ar    1  LIG1        0.0384
     11 C           0.0460   -0.3790    0.0000 C.ar    1  LIG1        0.0207
     12 O          -0.8040   -2.8880    0.0000 O.3     1  LIG1       -0.4714
     13 C          -1.6710   -3.3880    0.0000 C.3     1  LIG1        0.2525
     14 C          -2.5750    1.3920    0.0000 C.3     1  LIG1        0.0723
     15 N           0.3500    3.3920    0.0000 N.ar    1  LIG1       -0.2033
     16 C           1.3330    3.1960    0.0000 C.ar    1  LIG1        0.2003
     17 N           1.6460    2.2420    0.0000 N.ar    1  LIG1       -0.2224
     18 C           0.9790    1.4830    0.0000 C.ar    1  LIG1        0.1021
     19 C           1.2830    0.5460    0.0000 C.ar    1  LIG1        0.0192
     20 C           2.2670    0.3330    0.0000 C.ar    1  LIG1        0.0015
     21 C           2.5710   -0.6080    0.0000 C.ar    1  LIG1        0.0000
     22 C           1.9040   -1.3630    0.0000 C.ar    1  LIG1        0.0000
     23 C           0.9210   -1.1460    0.0000 C.ar    1  LIG1        0.0000
     24 C           0.6170   -0.1960    0.0000 C.ar    1  LIG1        0.0015
@<TRIPOS>BOND
     1     1     2   ar
     2     1     5   ar
     3     1    18   ar
     4     2     3   ar
     5     2    15   ar
     6     3     4   ar
     7     4     5   ar
     8     4    14    1
     9     5     6    1
    10     6     7   ar
    11     6    11   ar
    12     7     8   ar
    13     8     9   ar
    14     9    10   ar
    15     9    12    1
    16    10    11   ar
    17    12    13    1
    18    15    16   ar
    19    16    17   ar
    20    17    18   ar
    21    18    19    1
    22    19    20   ar
    23    19    24   ar
    24    20    21   ar
    25    21    22   ar
    26    22    23   ar
    27    23    24   ar
