@<TRIPOS>MOLECULE
24252_ChemDiv_8014-7920
 17 19 0 0 0
SMALL
GASTEIGER
Energy = 0

@<TRIPOS>ATOM
      1 N           2.1380    0.0000    0.0000 N.2     1  LIG1       -0.2782
      2 C           1.2750   -0.4960    0.0000 C.2     1  LIG1        0.0537
      3 C           0.4080    0.0000    0.0000 C.ar    1  LIG1        0.0125
      4 C           0.4080    1.0000    0.0000 C.ar    1  LIG1       -0.0160
      5 C          -0.4580    1.5000    0.0000 C.ar    1  LIG1        0.0359
      6 C          -1.3210    1.0000    0.0000 C.ar    1  LIG1        0.1721
      7 C          -1.3210    0.0000    0.0000 C.ar    1  LIG1        0.1724
      8 C          -0.4580   -0.4960    0.0000 C.ar    1  LIG1        0.0409
      9 O          -2.1830   -0.4960    0.0000 O.3     1  LIG1       -0.4684
     10 C          -3.0500    0.0000    0.0000 C.3     1  LIG1        0.2526
     11 C          -3.0500    1.0000    0.0000 C.3     1  LIG1        0.2526
     12 O          -2.1830    1.4960    0.0000 O.3     1  LIG1       -0.4684
     13 C           1.2750    1.4960    0.0000 C.3     1  LIG1        0.0489
     14 C           2.1380    1.0000    0.0000 C.3     1  LIG1        0.0884
     15 C           3.0040    1.4960    0.0000 C.3     1  LIG1        0.0247
     16 C           3.0460    0.4920    0.0000 C.3     1  LIG1        0.0247
     17 C           1.2750   -1.4960    0.0000 C.3     1  LIG1        0.0516
@<TRIPOS>BOND
     1     1     2    2
     2     1    14    1
     3     2     3    1
     4     2    17    1
     5     3     4   ar
     6     3     8   ar
     7     4     5   ar
     8     4    13    1
     9     5     6   ar
    10     6     7   ar
    11     6    12    1
    12     7     8   ar
    13     7     9    1
    14     9    10    1
    15    10    11    1
    16    11    12    1
    17    13    14    1
    18    14    15    1
    19    14    16    1
