@<TRIPOS>MOLECULE
24259_ChemDiv_3606-0200
 22 26 0 0 0
SMALL
GASTEIGER
Energy = 0

@<TRIPOS>ATOM
      1 N           1.9710   -1.0170    0.0000 N.ar    1  LIG1       -0.3205
      2 C           2.2420   -0.0750    0.0000 C.ar    1  LIG1        0.0902
      3 C           1.4130    0.4500    0.0000 C.ar    1  LIG1       -0.0035
      4 C           0.6630   -0.1920    0.0000 C.ar    1  LIG1        0.0128
      5 C           1.0040   -1.0710    0.0000 C.ar    1  LIG1        0.0596
      6 C           0.3630   -1.8170    0.0000 C.ar    1  LIG1        0.0168
      7 C          -0.6210   -1.6580    0.0000 C.ar    1  LIG1       -0.0028
      8 C          -0.9380   -0.7830    0.0000 C.ar    1  LIG1       -0.0224
      9 C          -0.3210   -0.0040    0.0000 C.ar    1  LIG1       -0.0031
     10 C          -1.9210   -0.5920    0.0000 C.3     1  LIG1        0.0223
     11 C          -2.2630    0.3380    0.0000 C.3     1  LIG1        0.0044
     12 C          -3.2170    0.5210    0.0000 C.3     1  LIG1        0.0003
     13 C          -3.8880   -0.2580    0.0000 C.3     1  LIG1        0.0000
     14 C          -3.5330   -1.1830    0.0000 C.3     1  LIG1        0.0003
     15 C          -2.5630   -1.3540    0.0000 C.3     1  LIG1        0.0044
     16 C           1.4460    1.4540    0.0000 C.3     1  LIG1        0.0280
     17 C           2.7710    1.8210    0.0000 C.3     1  LIG1        0.0113
     18 C           3.4540    1.1380    0.0000 C.3     1  LIG1        0.0694
     19 C           3.2000    0.1790    0.0000 C.3     1  LIG1        0.1821
     20 N           3.8830   -0.5170    0.0000 N.4     1  LIG1        0.4496
     21 C           3.6500   -1.4670    0.0000 C.3     1  LIG1        0.2257
     22 C           2.6790   -1.7000    0.0000 C.3     1  LIG1        0.1751
@<TRIPOS>BOND
     1     1     2   ar
     2     1     5   ar
     3     1    22    1
     4     2     3   ar
     5     2    19    1
     6     3     4   ar
     7     3    16    1
     8     4     5   ar
     9     4     9   ar
    10     5     6   ar
    11     6     7   ar
    12     7     8   ar
    13     8     9   ar
    14     8    10    1
    15    10    11    1
    16    10    15    1
    17    11    12    1
    18    12    13    1
    19    13    14    1
    20    14    15    1
    21    16    17    1
    22    17    18    1
    23    18    19    1
    24    19    20    1
    25    20    21    1
    26    21    22    1
