@<TRIPOS>MOLECULE
24264_ChemDiv_0335-0865
 20 23 0 0 0
SMALL
GASTEIGER
Energy = 0

@<TRIPOS>ATOM
      1 C          -0.8460   -1.1330    0.0000 C.3     1  LIG1        0.0189
      2 C           0.0790   -0.8170    0.0000 C.ar    1  LIG1       -0.0226
      3 C           0.2460    0.1460    0.0000 C.ar    1  LIG1        0.0000
      4 C           1.2040    0.4960    0.0000 C.ar    1  LIG1        0.0526
      5 C           1.3880    1.4710    0.0000 C.2     1  LIG1        0.0759
      6 O           0.6630    2.1540    0.0000 O.co2   1  LIG1       -0.5445
      7 O           2.3250    1.8170    0.0000 O.co2   1  LIG1       -0.5445
      8 C           1.9540   -0.1670    0.0000 C.ar    1  LIG1        0.1967
      9 C           1.7710   -1.1210    0.0000 C.ar    1  LIG1        0.0417
     10 C           0.8330   -1.4500    0.0000 C.ar    1  LIG1       -0.0010
     11 O           3.0920    0.2290    0.0000 O.3     1  LIG1       -0.2865
     12 C          -0.8460   -0.1670    0.0000 C.3     1  LIG1        0.0040
     13 C          -1.6920    0.3250    0.0000 C.3     1  LIG1        0.0003
     14 C          -2.1000   -0.7080    0.0000 C.3     1  LIG1        0.0000
     15 C          -2.1710   -1.6880    0.0000 C.3     1  LIG1        0.0003
     16 C          -1.4710   -2.1500    0.0000 C.3     1  LIG1        0.0040
     17 C          -3.0960   -1.9210    0.0000 C.3     1  LIG1        0.0000
     18 C          -2.5290   -1.1330    0.0000 C.3     1  LIG1        0.0003
     19 C          -1.6920   -1.6250    0.0000 C.3     1  LIG1        0.0040
     20 C          -2.5290   -0.1670    0.0000 C.3     1  LIG1        0.0000
@<TRIPOS>BOND
     1     1     2    1
     2     1    12    1
     3     1    16    1
     4     1    19    1
     5     2     3   ar
     6     2    10   ar
     7     3     4   ar
     8     4     5    1
     9     4     8   ar
    10     5     6   ar
    11     5     7   ar
    12     8     9   ar
    13     8    11    1
    14     9    10   ar
    15    12    13    1
    16    13    14    1
    17    13    20    1
    18    14    15    1
    19    15    16    1
    20    15    17    1
    21    17    18    1
    22    18    19    1
    23    18    20    1
