@<TRIPOS>MOLECULE
24269_ChemDiv_5989-2455
 27 31 0 0 0
SMALL
GASTEIGER
Energy = 0

@<TRIPOS>ATOM
      1 N          -0.5080    1.3330    0.0000 N.ar    1  LIG1       -0.3208
      2 C           0.1670    2.0540    0.0000 C.ar    1  LIG1        0.0846
      3 C          -0.0830    3.0000    0.0000 C.ar    1  LIG1       -0.0037
      4 C          -1.1290    3.0000    0.0000 C.ar    1  LIG1        0.0128
      5 C          -1.4330    1.8000    0.0000 C.ar    1  LIG1        0.0596
      6 C          -2.3630    1.6330    0.0000 C.ar    1  LIG1        0.0169
      7 C          -3.0790    2.3420    0.0000 C.ar    1  LIG1       -0.0028
      8 C          -2.8250    3.2880    0.0000 C.ar    1  LIG1       -0.0218
      9 C          -1.8580    3.5920    0.0000 C.ar    1  LIG1       -0.0031
     10 C          -3.5670    3.9630    0.0000 C.3     1  LIG1        0.0310
     11 C           0.5920    3.7080    0.0000 C.3     1  LIG1        0.0280
     12 C           1.5630    3.4750    0.0000 C.3     1  LIG1        0.0111
     13 C           1.8130    2.5420    0.0000 C.3     1  LIG1        0.0635
     14 C           1.1130    1.8250    0.0000 C.3     1  LIG1        0.1257
     15 N           1.3880    0.8580    0.0000 N.4     1  LIG1        0.3809
     16 C           2.3330    0.6080    0.0000 C.3     1  LIG1        0.1785
     17 C           2.6000   -0.3460    0.0000 C.3     1  LIG1        0.2642
     18 C           1.9130   -1.0670    0.0000 C.3     1  LIG1        0.1782
     19 N           2.1830   -2.0210    0.0000 N.4     1  LIG1        0.3794
     20 C           1.5080   -2.7710    0.0000 C.3     1  LIG1        0.1387
     21 C           1.7580   -3.6920    0.0000 C.3     1  LIG1        0.0629
     22 C           2.7210   -3.9580    0.0000 C.3     1  LIG1        0.0123
     23 C           3.4210   -3.2290    0.0000 C.3     1  LIG1        0.0629
     24 C           3.1580   -2.2880    0.0000 C.3     1  LIG1        0.1387
     25 O           3.5630   -0.5880    0.0000 O.3     1  LIG1       -0.2102
     26 C           0.7000    0.1330    0.0000 C.3     1  LIG1        0.1638
     27 C          -0.2670    0.3670    0.0000 C.3     1  LIG1        0.1689
@<TRIPOS>BOND
     1     1     2   ar
     2     1     5   ar
     3     1    27    1
     4     2     3   ar
     5     2    14    1
     6     3     4   ar
     7     3    11    1
     8     4     5   ar
     9     4     9   ar
    10     5     6   ar
    11     6     7   ar
    12     7     8   ar
    13     8     9   ar
    14     8    10    1
    15    11    12    1
    16    12    13    1
    17    13    14    1
    18    14    15    1
    19    15    16    1
    20    15    26    1
    21    16    17    1
    22    17    18    1
    23    17    25    1
    24    18    19    1
    25    19    20    1
    26    19    24    1
    27    20    21    1
    28    21    22    1
    29    22    23    1
    30    23    24    1
    31    26    27    1
