@<TRIPOS>MOLECULE
24267_ChemDiv_5989-2452
 25 28 0 0 0
SMALL
GASTEIGER
Energy = 0

@<TRIPOS>ATOM
      1 N          -0.6290    0.9750    0.0000 N.ar    1  LIG1       -0.3208
      2 C           0.0500    1.7000    0.0000 C.ar    1  LIG1        0.0846
      3 C          -0.2040    2.6380    0.0000 C.ar    1  LIG1       -0.0037
      4 C          -1.2500    2.6380    0.0000 C.ar    1  LIG1        0.0128
      5 C          -1.5540    1.4420    0.0000 C.ar    1  LIG1        0.0596
      6 C          -2.4830    1.2750    0.0000 C.ar    1  LIG1        0.0169
      7 C          -3.1960    1.9830    0.0000 C.ar    1  LIG1       -0.0028
      8 C          -2.9460    2.9330    0.0000 C.ar    1  LIG1       -0.0218
      9 C          -1.9750    3.2330    0.0000 C.ar    1  LIG1       -0.0031
     10 C          -3.6920    3.5960    0.0000 C.3     1  LIG1        0.0310
     11 C           0.4790    3.3540    0.0000 C.3     1  LIG1        0.0280
     12 C           1.4380    3.1130    0.0000 C.3     1  LIG1        0.0111
     13 C           1.6960    2.1830    0.0000 C.3     1  LIG1        0.0635
     14 C           0.9960    1.4630    0.0000 C.3     1  LIG1        0.1257
     15 N           1.2750    0.5000    0.0000 N.4     1  LIG1        0.3809
     16 C           0.5790   -0.2290    0.0000 C.3     1  LIG1        0.1638
     17 C          -0.3830    0.0130    0.0000 C.3     1  LIG1        0.1689
     18 C           2.2170    0.2500    0.0000 C.3     1  LIG1        0.1787
     19 C           2.4830   -0.7040    0.0000 C.3     1  LIG1        0.2701
     20 C           1.7920   -1.4250    0.0000 C.3     1  LIG1        0.2397
     21 N           2.0580   -2.3750    0.0000 N.4     1  LIG1        0.4456
     22 C           3.0130   -2.6250    0.0000 C.3     1  LIG1        0.1440
     23 C           3.2790   -3.5920    0.0000 C.3     1  LIG1        0.0686
     24 C           3.6880   -1.9130    0.0000 C.3     1  LIG1        0.0686
     25 O           3.4460   -0.9460    0.0000 O.3     1  LIG1       -0.2100
@<TRIPOS>BOND
     1     1     2   ar
     2     1     5   ar
     3     1    17    1
     4     2     3   ar
     5     2    14    1
     6     3     4   ar
     7     3    11    1
     8     4     5   ar
     9     4     9   ar
    10     5     6   ar
    11     6     7   ar
    12     7     8   ar
    13     8     9   ar
    14     8    10    1
    15    11    12    1
    16    12    13    1
    17    13    14    1
    18    14    15    1
    19    15    16    1
    20    15    18    1
    21    16    17    1
    22    18    19    1
    23    19    20    1
    24    19    25    1
    25    20    21    1
    26    21    22    1
    27    22    23    1
    28    22    24    1
