@<TRIPOS>MOLECULE
24261_ChemDiv_4900-0002
 19 22 0 0 0
SMALL
GASTEIGER
Energy = 0

@<TRIPOS>ATOM
      1 N           0.7580   -1.2290    0.0000 N.ar    1  LIG1       -0.3205
      2 C           1.4710   -0.5460    0.0000 C.ar    1  LIG1        0.0902
      3 C           1.2500    0.4250    0.0000 C.ar    1  LIG1       -0.0035
      4 C           0.2040    0.4250    0.0000 C.ar    1  LIG1        0.0131
      5 C          -0.1250   -0.6290    0.0000 C.ar    1  LIG1        0.0597
      6 C          -1.0710   -0.8380    0.0000 C.ar    1  LIG1        0.0172
      7 C          -1.7710   -0.1170    0.0000 C.ar    1  LIG1        0.0026
      8 C          -1.4880    0.8580    0.0000 C.ar    1  LIG1        0.0141
      9 C          -0.4920    1.0790    0.0000 C.ar    1  LIG1        0.0023
     10 C          -2.1630    1.5790    0.0000 C.2     1  LIG1        0.0729
     11 O          -3.1420    1.3500    0.0000 O.co2   1  LIG1       -0.5446
     12 O          -1.7960    2.4790    0.0000 O.co2   1  LIG1       -0.5446
     13 C           1.9710    1.1130    0.0000 C.3     1  LIG1        0.0280
     14 C           2.9080    0.8210    0.0000 C.3     1  LIG1        0.0113
     15 C           3.1380   -0.1420    0.0000 C.3     1  LIG1        0.0694
     16 C           2.4170   -0.8170    0.0000 C.3     1  LIG1        0.1821
     17 N           2.6210   -1.7830    0.0000 N.4     1  LIG1        0.4496
     18 C           1.9130   -2.4750    0.0000 C.3     1  LIG1        0.2257
     19 C           0.9750   -2.1790    0.0000 C.3     1  LIG1        0.1751
@<TRIPOS>BOND
     1     1     2   ar
     2     1     5   ar
     3     1    19    1
     4     2     3   ar
     5     2    16    1
     6     3     4   ar
     7     3    13    1
     8     4     5   ar
     9     4     9   ar
    10     5     6   ar
    11     6     7   ar
    12     7     8   ar
    13     8     9   ar
    14     8    10    1
    15    10    11   ar
    16    10    12   ar
    17    13    14    1
    18    14    15    1
    19    15    16    1
    20    16    17    1
    21    17    18    1
    22    18    19    1
