@<TRIPOS>MOLECULE
24265_ChemDiv_5989-2410
 24 27 0 0 0
SMALL
GASTEIGER
Energy = 0

@<TRIPOS>ATOM
      1 N          -0.5790   -0.5380    0.0000 N.ar    1  LIG1       -0.3283
      2 C           0.1000    0.1830    0.0000 C.ar    1  LIG1        0.0476
      3 C          -0.1500    1.1250    0.0000 C.ar    1  LIG1       -0.0078
      4 C          -1.1920    1.1250    0.0000 C.ar    1  LIG1        0.0126
      5 C          -1.4960   -0.0750    0.0000 C.ar    1  LIG1        0.0594
      6 C          -2.4290   -0.2420    0.0000 C.ar    1  LIG1        0.0168
      7 C          -3.1500    0.4630    0.0000 C.ar    1  LIG1       -0.0028
      8 C          -2.8920    1.4130    0.0000 C.ar    1  LIG1       -0.0227
      9 C          -1.9210    1.7170    0.0000 C.ar    1  LIG1       -0.0031
     10 C          -3.6330    2.0830    0.0000 C.3     1  LIG1        0.0189
     11 C          -2.9630    2.8080    0.0000 C.3     1  LIG1        0.0044
     12 C          -4.3630    2.7380    0.0000 C.3     1  LIG1        0.0044
     13 C          -4.3040    1.3420    0.0000 C.3     1  LIG1        0.0044
     14 C           0.5290    1.8380    0.0000 C.3     1  LIG1        0.0276
     15 C           1.5000    1.6000    0.0000 C.3     1  LIG1        0.0065
     16 C           1.7540    0.6750    0.0000 C.3     1  LIG1        0.0223
     17 C           1.0460   -0.0540    0.0000 C.3     1  LIG1        0.0959
     18 N           1.3250   -1.0290    0.0000 N.3     1  LIG1       -0.2665
     19 C           0.6330   -1.7460    0.0000 C.3     1  LIG1        0.0971
     20 C          -0.3250   -1.5130    0.0000 C.3     1  LIG1        0.1230
     21 C           2.2960   -1.2580    0.0000 C.3     1  LIG1        0.0887
     22 C           2.4920   -2.2080    0.0000 C.3     1  LIG1        0.1227
     23 C           3.4290   -2.5000    0.0000 C.1     1  LIG1        0.0746
     24 N           4.3580   -2.8040    0.0000 N.1     1  LIG1       -0.1958
@<TRIPOS>BOND
     1     1     2   ar
     2     1     5   ar
     3     1    20    1
     4     2     3   ar
     5     2    17    1
     6     3     4   ar
     7     3    14    1
     8     4     5   ar
     9     4     9   ar
    10     5     6   ar
    11     6     7   ar
    12     7     8   ar
    13     8     9   ar
    14     8    10    1
    15    10    11    1
    16    10    12    1
    17    10    13    1
    18    14    15    1
    19    15    16    1
    20    16    17    1
    21    17    18    1
    22    18    19    1
    23    18    21    1
    24    19    20    1
    25    21    22    1
    26    22    23    1
    27    23    24    3
