@<TRIPOS>MOLECULE
24263_ChemDiv_4900-0003
 19 22 0 0 0
SMALL
GASTEIGER
Energy = 0

@<TRIPOS>ATOM
      1 N           0.3960   -1.6210    0.0000 N.ar    1  LIG1       -0.3205
      2 C           1.1040   -0.9380    0.0000 C.ar    1  LIG1        0.0902
      3 C           0.8830    0.0330    0.0000 C.ar    1  LIG1       -0.0035
      4 C          -0.1630    0.0330    0.0000 C.ar    1  LIG1        0.0129
      5 C          -0.4920   -1.0210    0.0000 C.ar    1  LIG1        0.0596
      6 C          -1.4380   -1.2330    0.0000 C.ar    1  LIG1        0.0169
      7 C          -2.1380   -0.5130    0.0000 C.ar    1  LIG1       -0.0004
      8 C          -1.8500    0.4630    0.0000 C.ar    1  LIG1        0.0074
      9 C          -0.8580    0.6830    0.0000 C.ar    1  LIG1       -0.0007
     10 C          -2.5250    1.1830    0.0000 C.3     1  LIG1        0.1687
     11 O          -2.1630    2.0830    0.0000 O.3     1  LIG1       -0.3463
     12 C          -2.7790    2.8750    0.0000 C.3     1  LIG1        0.1746
     13 C           1.6080    0.7170    0.0000 C.3     1  LIG1        0.0280
     14 C           2.5420    0.4250    0.0000 C.3     1  LIG1        0.0113
     15 C           2.7750   -0.5380    0.0000 C.3     1  LIG1        0.0694
     16 C           2.0540   -1.2130    0.0000 C.3     1  LIG1        0.1821
     17 N           2.2580   -2.1790    0.0000 N.4     1  LIG1        0.4496
     18 C           1.5460   -2.8710    0.0000 C.3     1  LIG1        0.2257
     19 C           0.6130   -2.5750    0.0000 C.3     1  LIG1        0.1751
@<TRIPOS>BOND
     1     1     2   ar
     2     1     5   ar
     3     1    19    1
     4     2     3   ar
     5     2    16    1
     6     3     4   ar
     7     3    13    1
     8     4     5   ar
     9     4     9   ar
    10     5     6   ar
    11     6     7   ar
    12     7     8   ar
    13     8     9   ar
    14     8    10    1
    15    10    11    1
    16    11    12    1
    17    13    14    1
    18    14    15    1
    19    15    16    1
    20    16    17    1
    21    17    18    1
    22    18    19    1
