@<TRIPOS>MOLECULE
24274_ChemDiv_4286-0057
 22 25 0 0 0
SMALL
GASTEIGER
Energy = 0

@<TRIPOS>ATOM
      1 C          -1.4540   -0.5880    0.0000 C.ar    1  LIG1        0.1191
      2 N          -0.7790   -1.3460    0.0000 N.ar    1  LIG1       -0.2852
      3 C          -1.2920   -2.2210    0.0000 C.ar    1  LIG1        0.1843
      4 N          -2.2710   -2.0130    0.0000 N.ar    1  LIG1       -0.2044
      5 C          -2.3750   -0.9960    0.0000 C.ar    1  LIG1        0.1832
      6 N          -3.1670   -0.4080    0.0000 N.ar    1  LIG1       -0.2033
      7 C          -3.0420    0.5920    0.0000 C.ar    1  LIG1        0.2003
      8 N          -2.1710    1.0000    0.0000 N.ar    1  LIG1       -0.2224
      9 C          -1.3540    0.4080    0.0000 C.ar    1  LIG1        0.1021
     10 C          -0.4380    0.8170    0.0000 C.ar    1  LIG1        0.0192
     11 C          -0.3080    1.8170    0.0000 C.ar    1  LIG1        0.0015
     12 C           0.6080    2.2250    0.0000 C.ar    1  LIG1        0.0000
     13 C           1.4250    1.6330    0.0000 C.ar    1  LIG1        0.0000
     14 C           1.3000    0.6380    0.0000 C.ar    1  LIG1        0.0000
     15 C           0.3790    0.2290    0.0000 C.ar    1  LIG1        0.0015
     16 C           0.2250   -1.3000    0.0000 C.ar    1  LIG1        0.0655
     17 C           0.7830   -2.1420    0.0000 C.ar    1  LIG1        0.0172
     18 C           1.7710   -2.0790    0.0000 C.ar    1  LIG1       -0.0028
     19 C           2.2170   -1.1960    0.0000 C.ar    1  LIG1       -0.0218
     20 C           1.6710   -0.3460    0.0000 C.ar    1  LIG1       -0.0028
     21 C           0.6830   -0.4080    0.0000 C.ar    1  LIG1        0.0172
     22 C           3.1630   -1.2130    0.0000 C.3     1  LIG1        0.0310
@<TRIPOS>BOND
     1     1     2   ar
     2     1     5   ar
     3     1     9   ar
     4     2     3   ar
     5     2    16    1
     6     3     4   ar
     7     4     5   ar
     8     5     6   ar
     9     6     7   ar
    10     7     8   ar
    11     8     9   ar
    12     9    10    1
    13    10    11   ar
    14    10    15   ar
    15    11    12   ar
    16    12    13   ar
    17    13    14   ar
    18    14    15   ar
    19    16    17   ar
    20    16    21   ar
    21    17    18   ar
    22    18    19   ar
    23    19    20   ar
    24    19    22    1
    25    20    21   ar
