@<TRIPOS>MOLECULE
24271_ChemDiv_8015-7322
 26 30 0 0 0
SMALL
GASTEIGER
Energy = 0

@<TRIPOS>ATOM
      1 C          -0.3880    0.9540    0.0000 C.ar    1  LIG1        0.0512
      2 N          -1.2250    0.4670    0.0000 N.ar    1  LIG1       -0.3277
      3 C          -2.0500    0.9540    0.0000 C.ar    1  LIG1        0.0594
      4 C          -2.0500    1.9080    0.0000 C.ar    1  LIG1        0.0126
      5 C          -0.3880    1.9080    0.0000 C.ar    1  LIG1       -0.0075
      6 C           0.4500    2.3880    0.0000 C.3     1  LIG1        0.0277
      7 C           1.2750    1.9080    0.0000 C.3     1  LIG1        0.0068
      8 C           1.2750    0.9540    0.0000 C.3     1  LIG1        0.0262
      9 C           0.4630    0.4670    0.0000 C.3     1  LIG1        0.1135
     10 N           0.4630   -0.4920    0.0000 N.am    1  LIG1       -0.2692
     11 C           1.3000   -0.9790    0.0000 C.2     1  LIG1        0.2837
     12 C           2.1540   -0.4920    0.0000 C.3     1  LIG1        0.2249
     13 N           2.9830   -0.9790    0.0000 N.4     1  LIG1        0.3844
     14 C           2.9830   -1.9500    0.0000 C.3     1  LIG1        0.1393
     15 C           3.8210   -2.4380    0.0000 C.3     1  LIG1        0.0629
     16 C           4.6750   -1.9500    0.0000 C.3     1  LIG1        0.0123
     17 C           4.6750   -0.9790    0.0000 C.3     1  LIG1        0.0629
     18 C           3.8210   -0.4920    0.0000 C.3     1  LIG1        0.1393
     19 O           1.3000   -1.9500    0.0000 O.2     1  LIG1       -0.2684
     20 C          -0.3750   -0.9790    0.0000 C.3     1  LIG1        0.1183
     21 C          -1.2250   -0.4920    0.0000 C.3     1  LIG1        0.1272
     22 C          -2.9210    2.4420    0.0000 C.ar    1  LIG1       -0.0031
     23 C          -3.8040    1.9420    0.0000 C.ar    1  LIG1       -0.0218
     24 C          -3.8040    0.9290    0.0000 C.ar    1  LIG1       -0.0028
     25 C          -2.9210    0.4080    0.0000 C.ar    1  LIG1        0.0168
     26 C          -4.6790    2.4420    0.0000 C.3     1  LIG1        0.0310
@<TRIPOS>BOND
     1     1     2   ar
     2     1     5   ar
     3     1     9    1
     4     2     3   ar
     5     2    21    1
     6     3     4   ar
     7     3    25   ar
     8     4     5   ar
     9     4    22   ar
    10     5     6    1
    11     6     7    1
    12     7     8    1
    13     8     9    1
    14     9    10    1
    15    10    11   am
    16    10    20    1
    17    11    12    1
    18    11    19    2
    19    12    13    1
    20    13    14    1
    21    13    18    1
    22    14    15    1
    23    15    16    1
    24    16    17    1
    25    17    18    1
    26    20    21    1
    27    22    23   ar
    28    23    24   ar
    29    23    26    1
    30    24    25   ar
