@<TRIPOS>MOLECULE
24289_ChemDiv_8015-7327
 33 38 0 0 0
SMALL
GASTEIGER
Energy = 0

@<TRIPOS>ATOM
      1 C          -2.0830    1.6790    0.0000 C.ar    1  LIG1        0.0512
      2 N          -2.9330    1.2040    0.0000 N.ar    1  LIG1       -0.3277
      3 C          -3.7460    1.6790    0.0000 C.ar    1  LIG1        0.0594
      4 C          -3.7460    2.6540    0.0000 C.ar    1  LIG1        0.0126
      5 C          -2.0830    2.6540    0.0000 C.ar    1  LIG1       -0.0075
      6 C          -1.2500    3.1380    0.0000 C.3     1  LIG1        0.0277
      7 C          -0.4000    2.6540    0.0000 C.3     1  LIG1        0.0068
      8 C          -0.4000    1.6790    0.0000 C.3     1  LIG1        0.0262
      9 C          -1.2330    1.2040    0.0000 C.3     1  LIG1        0.1135
     10 N          -1.2330    0.2330    0.0000 N.am    1  LIG1       -0.2692
     11 C          -0.3880   -0.2670    0.0000 C.2     1  LIG1        0.2837
     12 C           0.4580    0.2330    0.0000 C.3     1  LIG1        0.2251
     13 N           1.3000   -0.2670    0.0000 N.4     1  LIG1        0.3871
     14 C           1.3000   -1.2380    0.0000 C.3     1  LIG1        0.1612
     15 C           2.1500   -1.7250    0.0000 C.3     1  LIG1        0.1544
     16 N           2.9960   -1.2380    0.0000 N.pl3   1  LIG1       -0.2972
     17 C           3.8460   -1.7250    0.0000 C.ar    1  LIG1        0.0490
     18 C           4.6880   -1.2380    0.0000 C.ar    1  LIG1        0.0259
     19 C           5.5380   -1.7250    0.0000 C.ar    1  LIG1        0.0589
     20 CL          6.3880   -1.2380    0.0000 Cl      1  LIG1       -0.0822
     21 C           5.5380   -2.6920    0.0000 C.ar    1  LIG1        0.0115
     22 C           4.6880   -3.1790    0.0000 C.ar    1  LIG1        0.0021
     23 C           3.8460   -2.6920    0.0000 C.ar    1  LIG1        0.0146
     24 C           2.9960   -0.2670    0.0000 C.3     1  LIG1        0.1544
     25 C           2.1500    0.2330    0.0000 C.3     1  LIG1        0.1612
     26 O          -0.3880   -1.2380    0.0000 O.2     1  LIG1       -0.2684
     27 C          -2.0830   -0.2500    0.0000 C.3     1  LIG1        0.1183
     28 C          -2.9330    0.2330    0.0000 C.3     1  LIG1        0.1272
     29 C          -4.6420    3.1830    0.0000 C.ar    1  LIG1       -0.0031
     30 C          -5.5210    2.6670    0.0000 C.ar    1  LIG1       -0.0218
     31 C          -5.5210    1.6670    0.0000 C.ar    1  LIG1       -0.0028
     32 C          -4.6420    1.1420    0.0000 C.ar    1  LIG1        0.0168
     33 C          -6.3880    3.1830    0.0000 C.3     1  LIG1        0.0310
@<TRIPOS>BOND
     1     1     2   ar
     2     1     5   ar
     3     1     9    1
     4     2     3   ar
     5     2    28    1
     6     3     4   ar
     7     3    32   ar
     8     4     5   ar
     9     4    29   ar
    10     5     6    1
    11     6     7    1
    12     7     8    1
    13     8     9    1
    14     9    10    1
    15    10    11   am
    16    10    27    1
    17    11    12    1
    18    11    26    2
    19    12    13    1
    20    13    14    1
    21    13    25    1
    22    14    15    1
    23    15    16    1
    24    16    17    1
    25    16    24    1
    26    17    18   ar
    27    17    23   ar
    28    18    19   ar
    29    19    20    1
    30    19    21   ar
    31    21    22   ar
    32    22    23   ar
    33    24    25    1
    34    27    28    1
    35    29    30   ar
    36    30    31   ar
    37    30    33    1
    38    31    32   ar
