@<TRIPOS>MOLECULE
24280_ChemDiv_K284-2457
 32 34 0 0 0
SMALL
GASTEIGER
Energy = 0

@<TRIPOS>ATOM
      1 N          -0.4380    1.0130    0.0000 N.ar    1  LIG1       -0.2756
      2 C          -0.4380    0.0130    0.0000 C.ar    1  LIG1        0.1739
      3 N          -1.3130   -0.4830    0.0000 N.ar    1  LIG1       -0.2224
      4 C          -2.1750    0.0130    0.0000 C.ar    1  LIG1        0.0880
      5 C          -2.1750    1.0130    0.0000 C.ar    1  LIG1        0.0739
      6 C          -1.3130    1.5130    0.0000 C.ar    1  LIG1        0.2637
      7 O          -1.3130    2.5130    0.0000 O.2     1  LIG1       -0.2669
      8 C          -3.0380    1.5130    0.0000 C.ar    1  LIG1        0.0063
      9 C          -3.9000    1.0130    0.0000 C.ar    1  LIG1        0.0003
     10 C          -3.9000    0.0130    0.0000 C.ar    1  LIG1        0.0015
     11 C          -3.0380   -0.4830    0.0000 C.ar    1  LIG1        0.0193
     12 S           0.4290   -0.5000    0.0000 S.3     1  LIG1       -0.0674
     13 C           0.4290   -1.5000    0.0000 C.3     1  LIG1        0.1515
     14 C           1.2920   -2.0000    0.0000 C.2     1  LIG1        0.2528
     15 O           2.1540   -1.5000    0.0000 O.2     1  LIG1       -0.2724
     16 N           1.2920   -3.0080    0.0000 N.am    1  LIG1       -0.2047
     17 C           2.1540   -3.5080    0.0000 C.3     1  LIG1        0.1152
     18 C           2.1540   -4.5130    0.0000 C.3     1  LIG1        0.0234
     19 C           3.0170   -5.0130    0.0000 C.3     1  LIG1        0.0018
     20 C           3.0170   -6.0080    0.0000 C.3     1  LIG1        0.0001
     21 C           0.4290    1.5130    0.0000 C.3     1  LIG1        0.1127
     22 C           0.4420    2.5130    0.0000 C.3     1  LIG1        0.0460
     23 C           1.3040    3.0130    0.0000 C.3     1  LIG1        0.0928
     24 N           1.3040    4.0080    0.0000 N.pl3   1  LIG1       -0.3074
     25 C           2.1670    4.5080    0.0000 C.ar    1  LIG1        0.0478
     26 C           3.0290    4.0080    0.0000 C.ar    1  LIG1        0.0145
     27 C           3.8960    4.5080    0.0000 C.ar    1  LIG1        0.0013
     28 C           3.8960    5.5130    0.0000 C.ar    1  LIG1        0.0001
     29 C           3.0290    6.0080    0.0000 C.ar    1  LIG1        0.0013
     30 C           2.1670    5.5130    0.0000 C.ar    1  LIG1        0.0145
     31 C           0.4290    4.5080    0.0000 C.3     1  LIG1        0.0908
     32 C          -0.4330    4.0080    0.0000 C.3     1  LIG1        0.0232
@<TRIPOS>BOND
     1     1     2   ar
     2     1     6   ar
     3     1    21    1
     4     2     3   ar
     5     2    12    1
     6     3     4   ar
     7     4     5   ar
     8     4    11   ar
     9     5     6   ar
    10     5     8   ar
    11     6     7    2
    12     8     9   ar
    13     9    10   ar
    14    10    11   ar
    15    12    13    1
    16    13    14    1
    17    14    15    2
    18    14    16   am
    19    16    17    1
    20    17    18    1
    21    18    19    1
    22    19    20    1
    23    21    22    1
    24    22    23    1
    25    23    24    1
    26    24    25    1
    27    24    31    1
    28    25    26   ar
    29    25    30   ar
    30    26    27   ar
    31    27    28   ar
    32    28    29   ar
    33    29    30   ar
    34    31    32    1
