@<TRIPOS>MOLECULE
24282_ChemDiv_K284-3737
 41 44 0 0 0
SMALL
GASTEIGER
Energy = 0

@<TRIPOS>ATOM
      1 N          -2.1670   -0.4960    0.0000 N.ar    1  LIG1       -0.2752
      2 C          -2.1670   -1.4920    0.0000 C.ar    1  LIG1        0.1739
      3 N          -3.0290   -1.9920    0.0000 N.ar    1  LIG1       -0.2224
      4 C          -3.8920   -1.4920    0.0000 C.ar    1  LIG1        0.0880
      5 C          -3.8920   -0.4960    0.0000 C.ar    1  LIG1        0.0739
      6 C          -3.0290    0.0130    0.0000 C.ar    1  LIG1        0.2637
      7 O          -3.0290    1.0040    0.0000 O.2     1  LIG1       -0.2669
      8 C          -4.7540    0.0130    0.0000 C.ar    1  LIG1        0.0063
      9 C          -5.6210   -0.4960    0.0000 C.ar    1  LIG1        0.0003
     10 C          -5.6210   -1.4920    0.0000 C.ar    1  LIG1        0.0015
     11 C          -4.7540   -1.9920    0.0000 C.ar    1  LIG1        0.0193
     12 S          -1.2920   -1.9960    0.0000 S.3     1  LIG1       -0.0674
     13 C          -1.2960   -3.0040    0.0000 C.3     1  LIG1        0.1515
     14 C          -0.4330   -3.5040    0.0000 C.2     1  LIG1        0.2528
     15 O          -0.4420   -4.5040    0.0000 O.2     1  LIG1       -0.2724
     16 N           0.4330   -3.0040    0.0000 N.am    1  LIG1       -0.2043
     17 C           1.2960   -3.5080    0.0000 C.3     1  LIG1        0.1198
     18 C           2.1580   -3.0130    0.0000 C.3     1  LIG1        0.0499
     19 C           3.0290   -3.5080    0.0000 C.ar    1  LIG1       -0.0172
     20 C           3.8830   -3.0130    0.0000 C.ar    1  LIG1        0.0358
     21 C           4.7460   -3.5040    0.0000 C.ar    1  LIG1        0.1721
     22 C           4.7460   -4.5080    0.0000 C.ar    1  LIG1        0.1724
     23 C           3.8830   -5.0080    0.0000 C.ar    1  LIG1        0.0397
     24 C           3.0210   -4.5080    0.0000 C.ar    1  LIG1       -0.0009
     25 O           5.6170   -5.0080    0.0000 O.3     1  LIG1       -0.4684
     26 C           5.6170   -6.0080    0.0000 C.3     1  LIG1        0.2526
     27 O           5.6170   -3.0040    0.0000 O.3     1  LIG1       -0.4684
     28 C           5.6080   -2.0080    0.0000 C.3     1  LIG1        0.2526
     29 C          -1.2920    0.0130    0.0000 C.3     1  LIG1        0.1206
     30 C          -1.2920    1.0040    0.0000 C.3     1  LIG1        0.1114
     31 C          -0.4290    1.5040    0.0000 C.2     1  LIG1        0.2434
     32 O           0.4460    1.0040    0.0000 O.2     1  LIG1       -0.2733
     33 N          -0.4290    2.5130    0.0000 N.am    1  LIG1       -0.2050
     34 C           0.4330    3.0080    0.0000 C.3     1  LIG1        0.1198
     35 C           0.4330    4.0040    0.0000 C.3     1  LIG1        0.0498
     36 C           1.2960    4.5040    0.0000 C.ar    1  LIG1       -0.0204
     37 C           2.1580    4.0040    0.0000 C.ar    1  LIG1       -0.0042
     38 C           3.0290    4.5040    0.0000 C.ar    1  LIG1       -0.0003
     39 C           3.0290    5.5080    0.0000 C.ar    1  LIG1       -0.0000
     40 C           2.1580    6.0080    0.0000 C.ar    1  LIG1       -0.0003
     41 C           1.2960    5.5080    0.0000 C.ar    1  LIG1       -0.0042
@<TRIPOS>BOND
     1     1     2   ar
     2     1     6   ar
     3     1    29    1
     4     2     3   ar
     5     2    12    1
     6     3     4   ar
     7     4     5   ar
     8     4    11   ar
     9     5     6   ar
    10     5     8   ar
    11     6     7    2
    12     8     9   ar
    13     9    10   ar
    14    10    11   ar
    15    12    13    1
    16    13    14    1
    17    14    15    2
    18    14    16   am
    19    16    17    1
    20    17    18    1
    21    18    19    1
    22    19    20   ar
    23    19    24   ar
    24    20    21   ar
    25    21    22   ar
    26    21    27    1
    27    22    23   ar
    28    22    25    1
    29    23    24   ar
    30    25    26    1
    31    27    28    1
    32    29    30    1
    33    30    31    1
    34    31    32    2
    35    31    33   am
    36    33    34    1
    37    34    35    1
    38    35    36    1
    39    36    37   ar
    40    36    41   ar
    41    37    38   ar
    42    38    39   ar
    43    39    40   ar
    44    40    41   ar
