@<TRIPOS>MOLECULE
24288_ChemDiv_K284-6047
 38 40 0 0 0
SMALL
GASTEIGER
Energy = 0

@<TRIPOS>ATOM
      1 N          -0.4290   -0.2500    0.0000 N.ar    1  LIG1       -0.2753
      2 C          -0.4290   -1.2460    0.0000 C.ar    1  LIG1        0.1739
      3 N          -1.3000   -1.7460    0.0000 N.ar    1  LIG1       -0.2223
      4 C          -2.1630   -1.2460    0.0000 C.ar    1  LIG1        0.0912
      5 C          -2.1630   -0.2500    0.0000 C.ar    1  LIG1        0.0771
      6 C          -1.3000    0.2500    0.0000 C.ar    1  LIG1        0.2638
      7 O          -1.3000    1.2460    0.0000 O.2     1  LIG1       -0.2669
      8 C          -3.0250    0.2500    0.0000 C.ar    1  LIG1        0.0463
      9 C          -3.8830   -0.2500    0.0000 C.ar    1  LIG1        0.1726
     10 C          -3.8830   -1.2460    0.0000 C.ar    1  LIG1        0.1739
     11 C          -3.0250   -1.7460    0.0000 C.ar    1  LIG1        0.0593
     12 O          -4.7630   -1.7580    0.0000 O.3     1  LIG1       -0.4683
     13 C          -5.6290   -1.2580    0.0000 C.3     1  LIG1        0.2526
     14 O          -4.7630    0.2500    0.0000 O.3     1  LIG1       -0.4684
     15 C          -5.6250   -0.2500    0.0000 C.3     1  LIG1        0.2526
     16 S           0.4380   -1.7580    0.0000 S.3     1  LIG1       -0.0688
     17 C           0.4380   -2.7580    0.0000 C.3     1  LIG1        0.1325
     18 C           1.3000   -3.2580    0.0000 C.2     1  LIG1        0.2515
     19 O           1.3000   -4.2540    0.0000 O.2     1  LIG1       -0.2724
     20 N           2.1630   -2.7580    0.0000 N.am    1  LIG1       -0.2020
     21 C           3.0330   -3.2580    0.0000 C.3     1  LIG1        0.1471
     22 C           3.8960   -2.7580    0.0000 C.3     1  LIG1        0.1656
     23 O           4.7580   -3.2580    0.0000 O.3     1  LIG1       -0.3492
     24 C           5.6250   -2.7540    0.0000 C.3     1  LIG1        0.1742
     25 C          -0.4210   -3.2580    0.0000 C.3     1  LIG1        0.0205
     26 C          -1.2920   -2.7580    0.0000 C.3     1  LIG1        0.0014
     27 C           0.4380    0.2500    0.0000 C.3     1  LIG1        0.1156
     28 C           0.4500    1.2460    0.0000 C.3     1  LIG1        0.0511
     29 C           1.3130    1.7460    0.0000 C.ar    1  LIG1       -0.0170
     30 C           2.1710    1.2460    0.0000 C.ar    1  LIG1        0.0358
     31 C           3.0380    1.7460    0.0000 C.ar    1  LIG1        0.1721
     32 C           3.0380    2.7500    0.0000 C.ar    1  LIG1        0.1724
     33 C           2.1710    3.2460    0.0000 C.ar    1  LIG1        0.0397
     34 C           1.3130    2.7500    0.0000 C.ar    1  LIG1       -0.0009
     35 O           3.9130    3.2580    0.0000 O.3     1  LIG1       -0.4684
     36 C           3.9000    4.2540    0.0000 C.3     1  LIG1        0.2526
     37 O           3.9130    1.2380    0.0000 O.3     1  LIG1       -0.4684
     38 C           3.9000    0.2330    0.0000 C.3     1  LIG1        0.2526
@<TRIPOS>BOND
     1     1     2   ar
     2     1     6   ar
     3     1    27    1
     4     2     3   ar
     5     2    16    1
     6     3     4   ar
     7     4     5   ar
     8     4    11   ar
     9     5     6   ar
    10     5     8   ar
    11     6     7    2
    12     8     9   ar
    13     9    10   ar
    14     9    14    1
    15    10    11   ar
    16    10    12    1
    17    12    13    1
    18    14    15    1
    19    16    17    1
    20    17    18    1
    21    17    25    1
    22    18    19    2
    23    18    20   am
    24    20    21    1
    25    21    22    1
    26    22    23    1
    27    23    24    1
    28    25    26    1
    29    27    28    1
    30    28    29    1
    31    29    30   ar
    32    29    34   ar
    33    30    31   ar
    34    31    32   ar
    35    31    37    1
    36    32    33   ar
    37    32    35    1
    38    33    34   ar
    39    35    36    1
    40    37    38    1
