@<TRIPOS>MOLECULE
24295_ChemDiv_D090-0007
 20 23 0 0 0
SMALL
GASTEIGER
Energy = 0

@<TRIPOS>ATOM
      1 C           0.8380    0.7250    0.0000 C.ar    1  LIG1        0.0513
      2 N           0.0000    0.2460    0.0000 N.ar    1  LIG1       -0.3277
      3 C          -0.8460    0.7330    0.0000 C.ar    1  LIG1        0.0594
      4 C          -0.8460    1.7000    0.0000 C.ar    1  LIG1        0.0126
      5 C           0.8420    1.7000    0.0000 C.ar    1  LIG1       -0.0075
      6 C           1.6790    2.1880    0.0000 C.3     1  LIG1        0.0277
      7 C           2.5290    1.6960    0.0000 C.3     1  LIG1        0.0068
      8 C           2.5250    0.7210    0.0000 C.3     1  LIG1        0.0263
      9 C           1.6750    0.2460    0.0000 C.3     1  LIG1        0.1149
     10 N           1.6670   -0.7330    0.0000 N.am    1  LIG1       -0.2560
     11 C           2.5040   -1.2170    0.0000 C.2     1  LIG1        0.3432
     12 O           3.3420   -0.7330    0.0000 O.2     1  LIG1       -0.2490
     13 N           2.5000   -2.1830    0.0000 N.am    1  LIG1       -0.0691
     14 C           0.8290   -1.2080    0.0000 C.3     1  LIG1        0.1198
     15 C          -0.0080   -0.7210    0.0000 C.3     1  LIG1        0.1273
     16 C          -1.6750    2.1880    0.0000 C.ar    1  LIG1       -0.0031
     17 C          -2.5130    1.7080    0.0000 C.ar    1  LIG1       -0.0218
     18 C          -2.5130    0.7330    0.0000 C.ar    1  LIG1       -0.0028
     19 C          -1.6750    0.2460    0.0000 C.ar    1  LIG1        0.0168
     20 C          -3.3460    2.1830    0.0000 C.3     1  LIG1        0.0310
@<TRIPOS>BOND
     1     1     2   ar
     2     1     5   ar
     3     1     9    1
     4     2     3   ar
     5     2    15    1
     6     3     4   ar
     7     3    19   ar
     8     4     5   ar
     9     4    16   ar
    10     5     6    1
    11     6     7    1
    12     7     8    1
    13     8     9    1
    14     9    10    1
    15    10    11   am
    16    10    14    1
    17    11    12    2
    18    11    13   am
    19    14    15    1
    20    16    17   ar
    21    17    18   ar
    22    17    20    1
    23    18    19   ar
