@<TRIPOS>MOLECULE
24290_ChemDiv_8017-1086
 21 24 0 0 0
SMALL
GASTEIGER
Energy = 0

@<TRIPOS>ATOM
      1 C           0.5460    0.8790    0.0000 C.3     1  LIG1        0.0218
      2 C          -0.3210    0.3790    0.0000 C.ar    1  LIG1        0.0112
      3 C          -0.3210   -0.6330    0.0000 C.ar    1  LIG1       -0.0002
      4 C          -1.1830   -1.1330    0.0000 C.ar    1  LIG1        0.0139
      5 C          -1.1830   -2.1330    0.0000 C.2     1  LIG1        0.0729
      6 O          -0.3210   -2.6330    0.0000 O.co2   1  LIG1       -0.5446
      7 O          -2.0500   -2.6330    0.0000 O.co2   1  LIG1       -0.5446
      8 C          -2.0500   -0.6330    0.0000 C.ar    1  LIG1        0.0042
      9 C          -2.0500    0.3710    0.0000 C.ar    1  LIG1        0.0366
     10 C          -1.1880    0.8710    0.0000 C.ar    1  LIG1        0.1347
     11 O          -1.1830    1.8710    0.0000 O.3     1  LIG1       -0.4717
     12 C          -2.0580    2.3670    0.0000 C.3     1  LIG1        0.2525
     13 C           1.4330    1.1080    0.0000 C.3     1  LIG1        0.0041
     14 C           2.0540    1.8080    0.0000 C.3     1  LIG1        0.0003
     15 C           1.4960    2.6380    0.0000 C.3     1  LIG1        0.0000
     16 C           0.5330    2.4210    0.0000 C.3     1  LIG1        0.0003
     17 C          -0.0080    1.6790    0.0000 C.3     1  LIG1        0.0041
     18 C           0.4330    1.3790    0.0000 C.3     1  LIG1        0.0000
     19 C           1.0210    0.5330    0.0000 C.3     1  LIG1        0.0003
     20 C           0.3790   -0.2420    0.0000 C.3     1  LIG1        0.0041
     21 C           1.9830    0.7540    0.0000 C.3     1  LIG1        0.0000
@<TRIPOS>BOND
     1     1     2    1
     2     1    13    1
     3     1    17    1
     4     1    20    1
     5     2     3   ar
     6     2    10   ar
     7     3     4   ar
     8     4     5    1
     9     4     8   ar
    10     5     6   ar
    11     5     7   ar
    12     8     9   ar
    13     9    10   ar
    14    10    11    1
    15    11    12    1
    16    13    14    1
    17    14    15    1
    18    14    21    1
    19    15    16    1
    20    16    17    1
    21    16    18    1
    22    18    19    1
    23    19    20    1
    24    19    21    1
