@<TRIPOS>MOLECULE
24292_ChemDiv_8018-0352
 18 21 0 0 0
SMALL
GASTEIGER
Energy = 0

@<TRIPOS>ATOM
      1 C          -0.4580    0.0790    0.0000 C.3     1  LIG1        0.0189
      2 C           0.4040   -0.4210    0.0000 C.ar    1  LIG1       -0.0213
      3 C           1.2670    0.0790    0.0000 C.ar    1  LIG1        0.0170
      4 C           2.1330   -0.4170    0.0000 C.ar    1  LIG1        0.1275
      5 C           2.1330   -1.4210    0.0000 C.ar    1  LIG1        0.2122
      6 C           1.2670   -1.9210    0.0000 C.ar    1  LIG1        0.0431
      7 C           0.4040   -1.4210    0.0000 C.ar    1  LIG1       -0.0009
      8 O           3.0040   -1.9210    0.0000 O.3     1  LIG1       -0.2851
      9 N           3.0000    0.0830    0.0000 N.pl3   1  LIG1       -0.1247
     10 C          -1.3500    0.3710    0.0000 C.3     1  LIG1        0.0040
     11 C          -1.9080    1.1040    0.0000 C.3     1  LIG1        0.0003
     12 C          -3.0080    0.8170    0.0000 C.3     1  LIG1        0.0000
     13 C          -2.0460    0.5290    0.0000 C.3     1  LIG1        0.0003
     14 C          -1.4630   -0.2710    0.0000 C.3     1  LIG1        0.0040
     15 C          -1.4960    1.4040    0.0000 C.3     1  LIG1        0.0000
     16 C          -0.4960    1.7210    0.0000 C.3     1  LIG1        0.0003
     17 C           0.0750    0.9210    0.0000 C.3     1  LIG1        0.0040
     18 C          -1.4000    1.9250    0.0000 C.3     1  LIG1        0.0000
@<TRIPOS>BOND
     1     1     2    1
     2     1    10    1
     3     1    14    1
     4     1    17    1
     5     2     3   ar
     6     2     7   ar
     7     3     4   ar
     8     4     5   ar
     9     4     9    1
    10     5     6   ar
    11     5     8    1
    12     6     7   ar
    13    10    11    1
    14    11    12    1
    15    11    18    1
    16    12    13    1
    17    13    14    1
    18    13    15    1
    19    15    16    1
    20    16    17    1
    21    16    18    1
