@<TRIPOS>MOLECULE
24293_ChemDiv_D090-0003
 26 29 0 0 0
SMALL
GASTEIGER
Energy = 0

@<TRIPOS>ATOM
      1 N          -1.6880   -0.2380    0.0000 N.ar    1  LIG1       -0.3208
      2 C          -0.8460    0.2500    0.0000 C.ar    1  LIG1        0.0846
      3 C          -0.8330    1.2330    0.0000 C.ar    1  LIG1       -0.0037
      4 C          -2.5330    1.2330    0.0000 C.ar    1  LIG1        0.0128
      5 C          -2.5330    0.2580    0.0000 C.ar    1  LIG1        0.0596
      6 C          -3.3750   -0.2290    0.0000 C.ar    1  LIG1        0.0169
      7 C          -4.2210    0.2580    0.0000 C.ar    1  LIG1       -0.0028
      8 C          -4.2210    1.2330    0.0000 C.ar    1  LIG1       -0.0218
      9 C          -3.3750    1.7210    0.0000 C.ar    1  LIG1       -0.0031
     10 C          -5.0580    1.7210    0.0000 C.3     1  LIG1        0.0310
     11 C           0.0040    1.7210    0.0000 C.3     1  LIG1        0.0280
     12 C           0.8580    1.2250    0.0000 C.3     1  LIG1        0.0111
     13 C           0.8580    0.2460    0.0000 C.3     1  LIG1        0.0635
     14 C           0.0040   -0.2380    0.0000 C.3     1  LIG1        0.1257
     15 N          -0.0080   -1.2130    0.0000 N.4     1  LIG1        0.3809
     16 C           0.8290   -1.7040    0.0000 C.3     1  LIG1        0.1785
     17 C           1.6830   -1.2170    0.0000 C.3     1  LIG1        0.2642
     18 C           2.5210   -1.7130    0.0000 C.3     1  LIG1        0.1782
     19 N           3.3710   -1.2290    0.0000 N.4     1  LIG1        0.3794
     20 C           4.2080   -1.7170    0.0000 C.3     1  LIG1        0.1389
     21 C           5.0540   -1.2380    0.0000 C.3     1  LIG1        0.0688
     22 C           3.3710   -0.2540    0.0000 C.3     1  LIG1        0.1389
     23 C           4.2210    0.2250    0.0000 C.3     1  LIG1        0.0688
     24 O           1.6790   -0.2420    0.0000 O.3     1  LIG1       -0.2102
     25 C          -0.8500   -1.6920    0.0000 C.3     1  LIG1        0.1638
     26 C          -1.6960   -1.2040    0.0000 C.3     1  LIG1        0.1689
@<TRIPOS>BOND
     1     1     2   ar
     2     1     5   ar
     3     1    26    1
     4     2     3   ar
     5     2    14    1
     6     3     4   ar
     7     3    11    1
     8     4     5   ar
     9     4     9   ar
    10     5     6   ar
    11     6     7   ar
    12     7     8   ar
    13     8     9   ar
    14     8    10    1
    15    11    12    1
    16    12    13    1
    17    13    14    1
    18    14    15    1
    19    15    16    1
    20    15    25    1
    21    16    17    1
    22    17    18    1
    23    17    24    1
    24    18    19    1
    25    19    20    1
    26    19    22    1
    27    20    21    1
    28    22    23    1
    29    25    26    1
