@<TRIPOS>MOLECULE
24291_ChemDiv_8016-6407
 24 27 0 0 0
SMALL
GASTEIGER
Energy = 0

@<TRIPOS>ATOM
      1 C           1.6460   -0.3920    0.0000 C.ar    1  LIG1        0.0512
      2 N           0.9080   -1.0330    0.0000 N.ar    1  LIG1       -0.3277
      3 C           0.0420   -0.3960    0.0000 C.ar    1  LIG1        0.0594
      4 C           0.3290    0.5500    0.0000 C.ar    1  LIG1        0.0132
      5 C           1.3460    0.5500    0.0000 C.ar    1  LIG1       -0.0075
      6 C           1.9670    1.2250    0.0000 C.3     1  LIG1        0.0277
      7 C           2.9830    1.0750    0.0000 C.3     1  LIG1        0.0068
      8 C           3.2920    0.1130    0.0000 C.3     1  LIG1        0.0262
      9 C           2.6170   -0.6080    0.0000 C.3     1  LIG1        0.1133
     10 N           2.9210   -1.5580    0.0000 N.am    1  LIG1       -0.2740
     11 C           3.9080   -1.7580    0.0000 C.2     1  LIG1        0.2264
     12 O           4.5830   -1.0210    0.0000 O.2     1  LIG1       -0.2748
     13 C           4.2080   -2.7080    0.0000 C.3     1  LIG1        0.0948
     14 C           2.2540   -2.2830    0.0000 C.3     1  LIG1        0.1181
     15 C           1.3080   -2.1420    0.0000 C.3     1  LIG1        0.1272
     16 C          -0.3460    1.2830    0.0000 C.ar    1  LIG1        0.0076
     17 C          -1.3080    1.0460    0.0000 C.ar    1  LIG1        0.0757
     18 C          -1.9790    1.7710    0.0000 C.2     1  LIG1        0.3412
     19 O          -1.6790    2.7130    0.0000 O.2     1  LIG1       -0.2449
     20 O          -2.9460    1.5580    0.0000 O.3     1  LIG1       -0.4454
     21 C          -3.6210    2.2880    0.0000 C.3     1  LIG1        0.2089
     22 C          -4.5880    2.0710    0.0000 C.3     1  LIG1        0.0513
     23 C          -1.6040    0.1080    0.0000 C.ar    1  LIG1        0.0079
     24 C          -0.9420   -0.6080    0.0000 C.ar    1  LIG1        0.0174
@<TRIPOS>BOND
     1     1     2   ar
     2     1     5   ar
     3     1     9    1
     4     2     3   ar
     5     2    15    1
     6     3     4   ar
     7     3    24   ar
     8     4     5   ar
     9     4    16   ar
    10     5     6    1
    11     6     7    1
    12     7     8    1
    13     8     9    1
    14     9    10    1
    15    10    11   am
    16    10    14    1
    17    11    12    2
    18    11    13    1
    19    14    15    1
    20    16    17   ar
    21    17    18    1
    22    17    23   ar
    23    18    19    2
    24    18    20    1
    25    20    21    1
    26    21    22    1
    27    23    24   ar
