@<TRIPOS>MOLECULE
24298_ChemDiv_0094-0334
 26 29 0 0 0
SMALL
GASTEIGER
Energy = 0

@<TRIPOS>ATOM
      1 C           0.2670    0.6540    0.0000 C.2     1  LIG1        0.1518
      2 C           1.2170    0.9040    0.0000 C.2     1  LIG1        0.0735
      3 C           1.2750    1.8750    0.0000 C.2     1  LIG1        0.1986
      4 C           0.3250    2.2630    0.0000 C.ar    1  LIG1        0.0420
      5 C          -0.3040    1.4710    0.0000 C.ar    1  LIG1        0.0379
      6 C          -1.2790    1.6380    0.0000 C.ar    1  LIG1        0.0031
      7 C          -1.6630    2.5630    0.0000 C.ar    1  LIG1        0.0001
      8 C          -1.0080    3.3460    0.0000 C.ar    1  LIG1        0.0001
      9 C          -0.0330    3.1880    0.0000 C.ar    1  LIG1        0.0033
     10 O           2.1500    2.4210    0.0000 O.2     1  LIG1       -0.2865
     11 C           1.9540    0.2210    0.0000 C.ar    1  LIG1        0.0060
     12 C           2.9040    0.5460    0.0000 C.ar    1  LIG1        0.0002
     13 C           3.6670   -0.1080    0.0000 C.ar    1  LIG1        0.0000
     14 C           3.4500   -1.0830    0.0000 C.ar    1  LIG1        0.0000
     15 C           2.5250   -1.4080    0.0000 C.ar    1  LIG1        0.0000
     16 C           1.7670   -0.7540    0.0000 C.ar    1  LIG1        0.0002
     17 O          -0.0630   -0.3290    0.0000 O.3     1  LIG1       -0.4209
     18 C          -1.0330   -0.5170    0.0000 C.2     1  LIG1        0.3457
     19 C          -1.3630   -1.4670    0.0000 C.ar    1  LIG1        0.0757
     20 C          -2.3420   -1.6540    0.0000 C.ar    1  LIG1        0.0022
     21 C          -2.6710   -2.6130    0.0000 C.ar    1  LIG1       -0.0216
     22 C          -2.0170   -3.3420    0.0000 C.ar    1  LIG1       -0.0043
     23 C          -1.0330   -3.1290    0.0000 C.ar    1  LIG1       -0.0001
     24 C          -0.7080   -2.2040    0.0000 C.ar    1  LIG1        0.0064
     25 C          -3.6710   -2.8000    0.0000 C.3     1  LIG1        0.0310
     26 O          -1.6920    0.2210    0.0000 O.2     1  LIG1       -0.2445
@<TRIPOS>BOND
     1     1     2    2
     2     1     5    1
     3     1    17    1
     4     2     3    1
     5     2    11    1
     6     3     4    1
     7     3    10    2
     8     4     5   ar
     9     4     9   ar
    10     5     6   ar
    11     6     7   ar
    12     7     8   ar
    13     8     9   ar
    14    11    12   ar
    15    11    16   ar
    16    12    13   ar
    17    13    14   ar
    18    14    15   ar
    19    15    16   ar
    20    17    18    1
    21    18    19    1
    22    18    26    2
    23    19    20   ar
    24    19    24   ar
    25    20    21   ar
    26    21    22   ar
    27    21    25    1
    28    22    23   ar
    29    23    24   ar
