@<TRIPOS>MOLECULE
24297_ChemDiv_D090-0012
 26 30 0 0 0
SMALL
GASTEIGER
Energy = 0

@<TRIPOS>ATOM
      1 N           0.8460   -0.2380    0.0000 N.ar    1  LIG1       -0.3208
      2 C           1.6920    0.2420    0.0000 C.ar    1  LIG1        0.0846
      3 C           1.6960    1.2290    0.0000 C.ar    1  LIG1       -0.0037
      4 C           0.0000    1.2290    0.0000 C.ar    1  LIG1        0.0128
      5 C           0.0000    0.2460    0.0000 C.ar    1  LIG1        0.0596
      6 C          -0.8380   -0.2330    0.0000 C.ar    1  LIG1        0.0168
      7 C          -1.6880    0.2580    0.0000 C.ar    1  LIG1       -0.0028
      8 C          -1.6790    1.2290    0.0000 C.ar    1  LIG1       -0.0224
      9 C          -0.8420    1.7170    0.0000 C.ar    1  LIG1       -0.0031
     10 C          -2.5250    1.7170    0.0000 C.3     1  LIG1        0.0223
     11 C          -2.5250    2.6960    0.0000 C.3     1  LIG1        0.0044
     12 C          -3.3630    3.1790    0.0000 C.3     1  LIG1        0.0003
     13 C          -4.2040    2.6960    0.0000 C.3     1  LIG1        0.0000
     14 C          -4.2130    1.7210    0.0000 C.3     1  LIG1        0.0003
     15 C          -3.3630    1.2290    0.0000 C.3     1  LIG1        0.0044
     16 C           2.5460    1.7170    0.0000 C.3     1  LIG1        0.0280
     17 C           3.3960    1.2210    0.0000 C.3     1  LIG1        0.0111
     18 C           3.3920    0.2420    0.0000 C.3     1  LIG1        0.0635
     19 C           2.5330   -0.2380    0.0000 C.3     1  LIG1        0.1262
     20 N           2.5290   -1.2170    0.0000 N.4     1  LIG1        0.3860
     21 C           3.3710   -1.7040    0.0000 C.3     1  LIG1        0.2286
     22 C           3.3670   -2.6790    0.0000 C.2     1  LIG1        0.3184
     23 O           2.5210   -3.1670    0.0000 O.2     1  LIG1       -0.2652
     24 N           4.2080   -3.1750    0.0000 N.am    1  LIG1       -0.0826
     25 C           1.6830   -1.7040    0.0000 C.3     1  LIG1        0.1644
     26 C           0.8420   -1.2040    0.0000 C.3     1  LIG1        0.1689
@<TRIPOS>BOND
     1     1     2   ar
     2     1     5   ar
     3     1    26    1
     4     2     3   ar
     5     2    19    1
     6     3     4   ar
     7     3    16    1
     8     4     5   ar
     9     4     9   ar
    10     5     6   ar
    11     6     7   ar
    12     7     8   ar
    13     8     9   ar
    14     8    10    1
    15    10    11    1
    16    10    15    1
    17    11    12    1
    18    12    13    1
    19    13    14    1
    20    14    15    1
    21    16    17    1
    22    17    18    1
    23    18    19    1
    24    19    20    1
    25    20    21    1
    26    20    25    1
    27    21    22    1
    28    22    23    2
    29    22    24   am
    30    25    26    1
