@<TRIPOS>MOLECULE
24301_ChemDiv_8005-2387
 22 25 0 0 0
SMALL
GASTEIGER
Energy = 0

@<TRIPOS>ATOM
      1 C           1.3920    0.7540    0.0000 C.ar    1  LIG1        0.1366
      2 C           1.3920   -0.2540    0.0000 C.ar    1  LIG1        0.0468
      3 C           0.4250   -0.5500    0.0000 C.2     1  LIG1        0.1491
      4 O          -0.1380    0.2710    0.0000 O.3     1  LIG1       -0.4209
      5 C           0.4630    1.0330    0.0000 C.2     1  LIG1        0.3505
      6 O           0.1500    1.9960    0.0000 O.2     1  LIG1       -0.2443
      7 C           0.0250   -1.4170    0.0000 C.2     1  LIG1        0.0377
      8 C          -0.9750   -1.4170    0.0000 C.ar    1  LIG1        0.0063
      9 C          -1.4750   -0.5500    0.0000 C.ar    1  LIG1        0.0403
     10 C          -2.4710   -0.5500    0.0000 C.ar    1  LIG1        0.1764
     11 C          -2.9580   -1.4170    0.0000 C.ar    1  LIG1        0.1764
     12 O          -3.9580   -1.1960    0.0000 O.3     1  LIG1       -0.4346
     13 C          -4.0290   -0.2130    0.0000 C.3     1  LIG1        0.4294
     14 O          -3.1580    0.2000    0.0000 O.3     1  LIG1       -0.4346
     15 C          -2.4540   -2.2750    0.0000 C.ar    1  LIG1        0.0402
     16 C          -1.4670   -2.2750    0.0000 C.ar    1  LIG1        0.0034
     17 C           2.2630   -0.7750    0.0000 C.ar    1  LIG1        0.0182
     18 C           3.1630   -0.2420    0.0000 C.ar    1  LIG1        0.0627
     19 N           3.1750    0.7540    0.0000 N.ar    1  LIG1       -0.2121
     20 C           2.2630    1.2790    0.0000 C.ar    1  LIG1        0.2853
     21 O           2.2630    2.2790    0.0000 O.2     1  LIG1       -0.2650
     22 C           4.0250   -0.7330    0.0000 C.3     1  LIG1        0.0522
@<TRIPOS>BOND
     1     1     2   ar
     2     1     5    1
     3     1    20   ar
     4     2     3    1
     5     2    17   ar
     6     3     4    1
     7     3     7    2
     8     4     5    1
     9     5     6    2
    10     7     8    1
    11     8     9   ar
    12     8    16   ar
    13     9    10   ar
    14    10    11   ar
    15    10    14    1
    16    11    12    1
    17    11    15   ar
    18    12    13    1
    19    13    14    1
    20    15    16   ar
    21    17    18   ar
    22    18    19   ar
    23    18    22    1
    24    19    20   ar
    25    20    21    2
