@<TRIPOS>MOLECULE
24303_ChemDiv_8010-6197
 23 25 0 0 0
SMALL
GASTEIGER
Energy = 0

@<TRIPOS>ATOM
      1 C           2.9750    0.5210    0.0000 C.ar    1  LIG1        0.1032
      2 C           2.3130   -0.1830    0.0000 C.ar    1  LIG1        0.0441
      3 C           1.4250    0.1920    0.0000 C.2     1  LIG1        0.1490
      4 O           1.5250    1.1830    0.0000 O.3     1  LIG1       -0.4210
      5 C           2.4710    1.4000    0.0000 C.2     1  LIG1        0.3478
      6 O           2.8630    2.3460    0.0000 O.2     1  LIG1       -0.2444
      7 C           0.5460   -0.2670    0.0000 C.2     1  LIG1        0.0377
      8 C          -0.3040    0.2210    0.0000 C.ar    1  LIG1        0.0063
      9 C          -1.1830   -0.2250    0.0000 C.ar    1  LIG1        0.0403
     10 C          -2.0580    0.2670    0.0000 C.ar    1  LIG1        0.1772
     11 C          -2.0250    1.2580    0.0000 C.ar    1  LIG1        0.2293
     12 C          -1.1540    1.7750    0.0000 C.ar    1  LIG1        0.0452
     13 C          -0.2750    1.2290    0.0000 C.ar    1  LIG1        0.0036
     14 O          -2.8880    1.7170    0.0000 O.3     1  LIG1       -0.2833
     15 O          -2.9290   -0.2130    0.0000 O.3     1  LIG1       -0.4722
     16 C          -3.7880    0.2960    0.0000 C.3     1  LIG1        0.2057
     17 C          -4.6750   -0.1960    0.0000 C.3     1  LIG1        0.0512
     18 C           2.6250   -1.1290    0.0000 C.ar    1  LIG1        0.0180
     19 C           3.6130   -1.3250    0.0000 C.ar    1  LIG1        0.0600
     20 N           4.3040   -0.5460    0.0000 N.ar    1  LIG1       -0.2424
     21 C           3.9500    0.3380    0.0000 C.ar    1  LIG1        0.1226
     22 S           4.6710    1.0880    0.0000 S.2     1  LIG1       -0.0298
     23 C           3.8670   -2.3420    0.0000 C.3     1  LIG1        0.0521
@<TRIPOS>BOND
     1     1     2   ar
     2     1     5    1
     3     1    21   ar
     4     2     3    1
     5     2    18   ar
     6     3     4    1
     7     3     7    2
     8     4     5    1
     9     5     6    2
    10     7     8    1
    11     8     9   ar
    12     8    13   ar
    13     9    10   ar
    14    10    11   ar
    15    10    15    1
    16    11    12   ar
    17    11    14    1
    18    12    13   ar
    19    15    16    1
    20    16    17    1
    21    18    19   ar
    22    19    20   ar
    23    19    23    1
    24    20    21   ar
    25    21    22    2
