@<TRIPOS>MOLECULE
24309_ChemDiv_0855-0023
 21 23 0 0 0
SMALL
GASTEIGER
Energy = 0

@<TRIPOS>ATOM
      1 N          -0.4540    1.0210    0.0000 N.pl3   1  LIG1       -0.2859
      2 C           0.4330    1.5250    0.0000 C.ar    1  LIG1        0.0585
      3 C           0.4330    2.5130    0.0000 C.ar    1  LIG1        0.0431
      4 S          -0.4540    3.0080    0.0000 S.3     1  LIG1       -0.0844
      5 C          -1.3130    2.5130    0.0000 C.ar    1  LIG1        0.0431
      6 C          -1.3130    1.5250    0.0000 C.ar    1  LIG1        0.0576
      7 C          -2.1830    1.0210    0.0000 C.ar    1  LIG1        0.0153
      8 C          -3.0460    1.5250    0.0000 C.ar    1  LIG1        0.0013
      9 C          -3.0460    2.5130    0.0000 C.ar    1  LIG1        0.0006
     10 C          -2.1830    3.0080    0.0000 C.ar    1  LIG1        0.0077
     11 C           1.2960    3.0080    0.0000 C.ar    1  LIG1        0.0086
     12 C           2.1630    2.4920    0.0000 C.ar    1  LIG1        0.0120
     13 C           2.1630    1.5380    0.0000 C.ar    1  LIG1        0.0589
     14 C           1.2960    1.0210    0.0000 C.ar    1  LIG1        0.0267
     15 CL          3.0420    1.0880    0.0000 Cl      1  LIG1       -0.0822
     16 C          -0.4540    0.0080    0.0000 C.3     1  LIG1        0.1017
     17 C           0.4330   -0.4830    0.0000 C.3     1  LIG1        0.0844
     18 C           0.4330   -1.4960    0.0000 C.3     1  LIG1        0.1410
     19 N           1.2960   -1.9960    0.0000 N.4     1  LIG1        0.3867
     20 C           2.1630   -1.4750    0.0000 C.3     1  LIG1        0.2025
     21 C           1.2960   -3.0040    0.0000 C.3     1  LIG1        0.2025
@<TRIPOS>BOND
     1     1     2    1
     2     1     6    1
     3     1    16    1
     4     2     3   ar
     5     2    14   ar
     6     3     4    1
     7     3    11   ar
     8     4     5    1
     9     5     6   ar
    10     5    10   ar
    11     6     7   ar
    12     7     8   ar
    13     8     9   ar
    14     9    10   ar
    15    11    12   ar
    16    12    13   ar
    17    13    14   ar
    18    13    15    1
    19    16    17    1
    20    17    18    1
    21    18    19    1
    22    19    20    1
    23    19    21    1
