@<TRIPOS>MOLECULE
24302_ChemDiv_0290-0139
 26 29 0 0 0
SMALL
GASTEIGER
Energy = 0

@<TRIPOS>ATOM
      1 C           0.3670    1.8540    0.0000 C.2     1  LIG1        0.0735
      2 C          -0.3500    1.1710    0.0000 C.2     1  LIG1        0.1515
      3 C          -1.2250    1.6420    0.0000 C.ar    1  LIG1        0.0378
      4 C          -1.0710    2.6080    0.0000 C.ar    1  LIG1        0.0420
      5 C          -0.0750    2.7670    0.0000 C.2     1  LIG1        0.1986
      6 O           0.3830    3.6710    0.0000 O.2     1  LIG1       -0.2865
      7 C          -1.8330    3.2380    0.0000 C.ar    1  LIG1        0.0033
      8 C          -2.7630    2.8960    0.0000 C.ar    1  LIG1        0.0001
      9 C          -2.9420    1.9290    0.0000 C.ar    1  LIG1        0.0001
     10 C          -2.1580    1.2920    0.0000 C.ar    1  LIG1        0.0031
     11 O          -0.1790    0.1580    0.0000 O.3     1  LIG1       -0.4238
     12 C          -0.9500   -0.4710    0.0000 C.2     1  LIG1        0.3260
     13 O          -1.8880   -0.0710    0.0000 O.2     1  LIG1       -0.2493
     14 C          -0.8210   -1.4460    0.0000 C.3     1  LIG1        0.1363
     15 C          -1.6130   -2.0630    0.0000 C.ar    1  LIG1       -0.0111
     16 C          -1.4750   -3.0580    0.0000 C.ar    1  LIG1       -0.0037
     17 C          -2.2920   -3.6670    0.0000 C.ar    1  LIG1       -0.0003
     18 C          -3.1960   -3.2830    0.0000 C.ar    1  LIG1       -0.0000
     19 C          -3.3380   -2.2880    0.0000 C.ar    1  LIG1       -0.0003
     20 C          -2.5380   -1.6750    0.0000 C.ar    1  LIG1       -0.0037
     21 C           1.3420    1.7460    0.0000 C.ar    1  LIG1        0.0060
     22 C           1.9500    2.5170    0.0000 C.ar    1  LIG1        0.0002
     23 C           2.9460    2.4000    0.0000 C.ar    1  LIG1        0.0000
     24 C           3.3330    1.4880    0.0000 C.ar    1  LIG1        0.0000
     25 C           2.7250    0.6830    0.0000 C.ar    1  LIG1        0.0000
     26 C           1.7420    0.8000    0.0000 C.ar    1  LIG1        0.0002
@<TRIPOS>BOND
     1     1     2    2
     2     1     5    1
     3     1    21    1
     4     2     3    1
     5     2    11    1
     6     3     4   ar
     7     3    10   ar
     8     4     5    1
     9     4     7   ar
    10     5     6    2
    11     7     8   ar
    12     8     9   ar
    13     9    10   ar
    14    11    12    1
    15    12    13    2
    16    12    14    1
    17    14    15    1
    18    15    16   ar
    19    15    20   ar
    20    16    17   ar
    21    17    18   ar
    22    18    19   ar
    23    19    20   ar
    24    21    22   ar
    25    21    26   ar
    26    22    23   ar
    27    23    24   ar
    28    24    25   ar
    29    25    26   ar
