@<TRIPOS>MOLECULE
24307_ChemDiv_0344-0036
 15 17 0 0 0
SMALL
GASTEIGER
Energy = 0

@<TRIPOS>ATOM
      1 N          -0.4540   -1.0000    0.0000 N.pl3   1  LIG1       -0.2114
      2 C           0.4080   -0.4880    0.0000 C.ar    1  LIG1        0.0773
      3 C           0.4080    0.5130    0.0000 C.ar    1  LIG1        0.0448
      4 S          -0.4540    1.0040    0.0000 S.3     1  LIG1       -0.0843
      5 C          -1.3210    0.5130    0.0000 C.ar    1  LIG1        0.0447
      6 C          -1.3210   -0.5080    0.0000 C.ar    1  LIG1        0.0764
      7 C          -2.1880   -1.0000    0.0000 C.ar    1  LIG1        0.0170
      8 C          -3.0500   -0.4880    0.0000 C.ar    1  LIG1        0.0014
      9 C          -3.0500    0.5130    0.0000 C.ar    1  LIG1        0.0006
     10 C          -2.1880    1.0040    0.0000 C.ar    1  LIG1        0.0078
     11 C           1.2750    1.0040    0.0000 C.ar    1  LIG1        0.0086
     12 C           2.1420    0.4880    0.0000 C.ar    1  LIG1        0.0120
     13 C           2.1420   -0.4880    0.0000 C.ar    1  LIG1        0.0590
     14 C           1.2750   -0.9830    0.0000 C.ar    1  LIG1        0.0284
     15 CL          3.0460   -0.9580    0.0000 Cl      1  LIG1       -0.0822
@<TRIPOS>BOND
     1     1     2    1
     2     1     6    1
     3     2     3   ar
     4     2    14   ar
     5     3     4    1
     6     3    11   ar
     7     4     5    1
     8     5     6   ar
     9     5    10   ar
    10     6     7   ar
    11     7     8   ar
    12     8     9   ar
    13     9    10   ar
    14    11    12   ar
    15    12    13   ar
    16    13    14   ar
    17    13    15    1
