@<TRIPOS>MOLECULE
24317_ChemDiv_3258-0335
 25 28 0 0 0
SMALL
GASTEIGER
Energy = 0

@<TRIPOS>ATOM
      1 N           0.0040    1.2460    0.0000 N.pl3   1  LIG1       -0.2832
      2 C           0.8670    1.7380    0.0000 C.ar    1  LIG1        0.0577
      3 C           0.8710    2.7420    0.0000 C.ar    1  LIG1        0.0431
      4 S           0.0040    3.2460    0.0000 S.3     1  LIG1       -0.0844
      5 C          -0.8630    2.7540    0.0000 C.ar    1  LIG1        0.0431
      6 C          -0.8630    1.7460    0.0000 C.ar    1  LIG1        0.0577
      7 C          -1.7290    1.2540    0.0000 C.ar    1  LIG1        0.0153
      8 C          -2.5880    1.7460    0.0000 C.ar    1  LIG1        0.0013
      9 C          -2.5880    2.7540    0.0000 C.ar    1  LIG1        0.0006
     10 C          -1.7290    3.2580    0.0000 C.ar    1  LIG1        0.0077
     11 C           1.7380    3.2420    0.0000 C.ar    1  LIG1        0.0077
     12 C           2.6000    2.7420    0.0000 C.ar    1  LIG1        0.0006
     13 C           2.5960    1.7380    0.0000 C.ar    1  LIG1        0.0013
     14 C           1.7210    1.2380    0.0000 C.ar    1  LIG1        0.0153
     15 C           0.0040    0.2420    0.0000 C.3     1  LIG1        0.1346
     16 C           0.8710   -0.2580    0.0000 C.3     1  LIG1        0.2281
     17 C           0.8710   -1.2500    0.0000 C.3     1  LIG1        0.1736
     18 N           0.0000   -1.7500    0.0000 N.4     1  LIG1        0.3793
     19 C           0.0000   -2.7500    0.0000 C.3     1  LIG1        0.1387
     20 C          -0.8750   -3.2540    0.0000 C.3     1  LIG1        0.0629
     21 C          -1.7420   -2.7460    0.0000 C.3     1  LIG1        0.0119
     22 C          -1.7290   -1.7460    0.0000 C.3     1  LIG1        0.0629
     23 C          -0.8630   -1.2500    0.0000 C.3     1  LIG1        0.1387
     24 C          -2.6040   -3.2380    0.0000 C.3     1  LIG1        0.0004
     25 O           1.7380    0.2420    0.0000 O.3     1  LIG1       -0.2149
@<TRIPOS>BOND
     1     1     2    1
     2     1     6    1
     3     1    15    1
     4     2     3   ar
     5     2    14   ar
     6     3     4    1
     7     3    11   ar
     8     4     5    1
     9     5     6   ar
    10     5    10   ar
    11     6     7   ar
    12     7     8   ar
    13     8     9   ar
    14     9    10   ar
    15    11    12   ar
    16    12    13   ar
    17    13    14   ar
    18    15    16    1
    19    16    17    1
    20    16    25    1
    21    17    18    1
    22    18    19    1
    23    18    23    1
    24    19    20    1
    25    20    21    1
    26    21    22    1
    27    21    24    1
    28    22    23    1
