@<TRIPOS>MOLECULE
24319_ChemDiv_4063-0036
 18 21 0 0 0
SMALL
GASTEIGER
Energy = 0

@<TRIPOS>ATOM
      1 S           0.4330    0.2330    0.0000 S.3     1  LIG1       -0.0843
      2 C          -0.4380   -0.2580    0.0000 C.ar    1  LIG1        0.0447
      3 C          -0.4380   -1.2540    0.0000 C.ar    1  LIG1        0.0764
      4 N           0.4330   -1.7460    0.0000 N.pl3   1  LIG1       -0.2115
      5 C           1.3040   -1.2540    0.0000 C.ar    1  LIG1        0.0764
      6 C           1.3040   -0.2580    0.0000 C.ar    1  LIG1        0.0447
      7 C           2.1750    0.2330    0.0000 C.ar    1  LIG1        0.0078
      8 C           3.0420   -0.2580    0.0000 C.ar    1  LIG1        0.0006
      9 C           3.0420   -1.2540    0.0000 C.ar    1  LIG1        0.0014
     10 C           2.1750   -1.7460    0.0000 C.ar    1  LIG1        0.0170
     11 C          -1.3040   -1.7460    0.0000 C.ar    1  LIG1        0.0170
     12 C          -2.1750   -1.2540    0.0000 C.ar    1  LIG1        0.0014
     13 C          -2.1750   -0.2580    0.0000 C.ar    1  LIG1        0.0006
     14 C          -1.3040    0.2330    0.0000 C.ar    1  LIG1        0.0073
     15 C          -1.3040    1.2210    0.0000 C.ar    1  LIG1        0.0005
     16 C          -2.1580    1.7500    0.0000 C.ar    1  LIG1        0.0000
     17 C          -3.0460    1.2420    0.0000 C.ar    1  LIG1        0.0000
     18 C          -3.0460    0.2330    0.0000 C.ar    1  LIG1        0.0000
@<TRIPOS>BOND
     1     1     2    1
     2     1     6    1
     3     2     3   ar
     4     2    14   ar
     5     3     4    1
     6     3    11   ar
     7     4     5    1
     8     5     6   ar
     9     5    10   ar
    10     6     7   ar
    11     7     8   ar
    12     8     9   ar
    13     9    10   ar
    14    11    12   ar
    15    12    13   ar
    16    13    14   ar
    17    13    18   ar
    18    14    15   ar
    19    15    16   ar
    20    16    17   ar
    21    17    18   ar
