@<TRIPOS>MOLECULE
24311_ChemDiv_0855-0025
 20 22 0 0 0
SMALL
GASTEIGER
Energy = 0

@<TRIPOS>ATOM
      1 N          -0.0130    0.5170    0.0000 N.pl3   1  LIG1       -0.2806
      2 C           0.8750    1.0210    0.0000 C.ar    1  LIG1        0.0578
      3 C           0.8750    2.0080    0.0000 C.ar    1  LIG1        0.0431
      4 S          -0.0130    2.5080    0.0000 S.3     1  LIG1       -0.0844
      5 C          -0.8750    2.0080    0.0000 C.ar    1  LIG1        0.0431
      6 C          -0.8750    1.0210    0.0000 C.ar    1  LIG1        0.0578
      7 C          -1.7460    0.5170    0.0000 C.ar    1  LIG1        0.0153
      8 C          -2.6080    1.0210    0.0000 C.ar    1  LIG1        0.0013
      9 C          -2.6080    2.0080    0.0000 C.ar    1  LIG1        0.0006
     10 C          -1.7460    2.5080    0.0000 C.ar    1  LIG1        0.0077
     11 C           1.7380    2.5080    0.0000 C.ar    1  LIG1        0.0077
     12 C           2.6040    1.9920    0.0000 C.ar    1  LIG1        0.0006
     13 C           2.6040    1.0330    0.0000 C.ar    1  LIG1        0.0013
     14 C           1.7380    0.5170    0.0000 C.ar    1  LIG1        0.0153
     15 C          -0.0130   -0.4960    0.0000 C.3     1  LIG1        0.1524
     16 C           0.8750   -0.9920    0.0000 C.3     1  LIG1        0.1082
     17 N           0.8790   -1.9880    0.0000 N.4     1  LIG1        0.3837
     18 C           0.0250   -2.5040    0.0000 C.3     1  LIG1        0.2023
     19 C           1.7540   -2.4330    0.0000 C.3     1  LIG1        0.2023
     20 C           1.7380   -0.4540    0.0000 C.3     1  LIG1        0.0645
@<TRIPOS>BOND
     1     1     2    1
     2     1     6    1
     3     1    15    1
     4     2     3   ar
     5     2    14   ar
     6     3     4    1
     7     3    11   ar
     8     4     5    1
     9     5     6   ar
    10     5    10   ar
    11     6     7   ar
    12     7     8   ar
    13     8     9   ar
    14     9    10   ar
    15    11    12   ar
    16    12    13   ar
    17    13    14   ar
    18    15    16    1
    19    16    17    1
    20    16    20    1
    21    17    18    1
    22    17    19    1
