@<TRIPOS>MOLECULE
24315_ChemDiv_1893-0170
 16 18 0 0 0
SMALL
GASTEIGER
Energy = 0

@<TRIPOS>ATOM
      1 N          -0.4170   -0.4960    0.0000 N.pl3   1  LIG1       -0.2843
      2 C           0.4540   -0.0040    0.0000 C.ar    1  LIG1        0.0578
      3 C           0.4540    1.0080    0.0000 C.ar    1  LIG1        0.0444
      4 S          -0.4170    1.4960    0.0000 S.3     1  LIG1       -0.0844
      5 C          -1.2790    1.0080    0.0000 C.ar    1  LIG1        0.0431
      6 C          -1.2790   -0.0040    0.0000 C.ar    1  LIG1        0.0577
      7 C          -2.1630   -0.4960    0.0000 C.ar    1  LIG1        0.0153
      8 C          -3.0330   -0.0040    0.0000 C.ar    1  LIG1        0.0013
      9 C          -3.0330    1.0080    0.0000 C.ar    1  LIG1        0.0006
     10 C          -2.1630    1.4960    0.0000 C.ar    1  LIG1        0.0077
     11 C           1.3130    1.4960    0.0000 C.ar    1  LIG1        0.0258
     12 C           2.1750    1.0080    0.0000 C.ar    1  LIG1        0.0897
     13 C           2.1750   -0.0040    0.0000 C.ar    1  LIG1        0.0194
     14 C           1.3130   -0.4960    0.0000 C.ar    1  LIG1        0.0167
     15 N           3.0290    1.5080    0.0000 N.pl3   1  LIG1       -0.1280
     16 C          -0.4170   -1.5040    0.0000 C.3     1  LIG1        0.1173
@<TRIPOS>BOND
     1     1     2    1
     2     1     6    1
     3     1    16    1
     4     2     3   ar
     5     2    14   ar
     6     3     4    1
     7     3    11   ar
     8     4     5    1
     9     5     6   ar
    10     5    10   ar
    11     6     7   ar
    12     7     8   ar
    13     8     9   ar
    14     9    10   ar
    15    11    12   ar
    16    12    13   ar
    17    12    15    1
    18    13    14   ar
