@<TRIPOS>MOLECULE
24325_ChemDiv_8016-5819
 25 28 0 0 0
SMALL
GASTEIGER
Energy = 0

@<TRIPOS>ATOM
      1 C           1.9880    0.9210    0.0000 C.ar    1  LIG1        0.1366
      2 C           0.9790    0.9210    0.0000 C.ar    1  LIG1        0.0468
      3 C           0.6750    1.8750    0.0000 C.2     1  LIG1        0.1491
      4 O           1.4880    2.4630    0.0000 O.3     1  LIG1       -0.4209
      5 C           2.3000    1.8750    0.0000 C.2     1  LIG1        0.3505
      6 O           3.1670    2.3750    0.0000 O.2     1  LIG1       -0.2443
      7 C          -0.1960    2.3750    0.0000 C.2     1  LIG1        0.0391
      8 C          -0.9960    1.9250    0.0000 C.ar    1  LIG1        0.0217
      9 C          -1.3080    0.9710    0.0000 C.ar    1  LIG1        0.0203
     10 C          -2.3080    0.9710    0.0000 C.ar    1  LIG1        0.0602
     11 N          -2.6210    1.9250    0.0000 N.ar    1  LIG1       -0.3240
     12 C          -1.8080    2.5080    0.0000 C.ar    1  LIG1        0.0760
     13 C          -3.4960    2.4250    0.0000 C.3     1  LIG1        0.1305
     14 C          -2.8130    0.1000    0.0000 C.ar    1  LIG1        0.0203
     15 C          -2.3080   -0.7670    0.0000 C.ar    1  LIG1        0.0384
     16 C          -1.3080   -0.7670    0.0000 C.ar    1  LIG1        0.1388
     17 C          -0.8080    0.1000    0.0000 C.ar    1  LIG1        0.0384
     18 O          -0.8080   -1.6380    0.0000 O.3     1  LIG1       -0.4714
     19 C          -1.3080   -2.5040    0.0000 C.3     1  LIG1        0.2525
     20 C           0.4790    0.0580    0.0000 C.ar    1  LIG1        0.0182
     21 C           0.9790   -0.8130    0.0000 C.ar    1  LIG1        0.0627
     22 N           1.9880   -0.8130    0.0000 N.ar    1  LIG1       -0.2121
     23 C           2.4920    0.0580    0.0000 C.ar    1  LIG1        0.2853
     24 O           3.4920    0.0580    0.0000 O.2     1  LIG1       -0.2650
     25 C           0.4790   -1.6790    0.0000 C.3     1  LIG1        0.0522
@<TRIPOS>BOND
     1     1     2   ar
     2     1     5    1
     3     1    23   ar
     4     2     3    1
     5     2    20   ar
     6     3     4    1
     7     3     7    2
     8     4     5    1
     9     5     6    2
    10     7     8    1
    11     8     9   ar
    12     8    12   ar
    13     9    10   ar
    14     9    17   ar
    15    10    11   ar
    16    10    14   ar
    17    11    12   ar
    18    11    13    1
    19    14    15   ar
    20    15    16   ar
    21    16    17   ar
    22    16    18    1
    23    18    19    1
    24    20    21   ar
    25    21    22   ar
    26    21    25    1
    27    22    23   ar
    28    23    24    2
