@<TRIPOS>MOLECULE
24329_ChemDiv_000A-0825
 36 40 0 0 0
SMALL
GASTEIGER
Energy = 0

@<TRIPOS>ATOM
      1 C          -3.3040    1.2790    0.0000 C.ar    1  LIG1        0.1656
      2 C          -3.3040    2.2920    0.0000 C.ar    1  LIG1        0.1383
      3 C          -4.2460    2.5880    0.0000 C.ar    1  LIG1        0.0382
      4 C          -4.8250    1.7960    0.0000 C.ar    1  LIG1        0.0626
      5 N          -4.2460    0.9580    0.0000 N.ar    1  LIG1       -0.3110
      6 C          -4.5250    0.0170    0.0000 C.3     1  LIG1        0.1122
      7 C          -3.8460   -0.6960    0.0000 C.3     1  LIG1        0.0509
      8 C          -4.1250   -1.6790    0.0000 C.ar    1  LIG1       -0.0202
      9 C          -3.4750   -2.4000    0.0000 C.ar    1  LIG1       -0.0042
     10 C          -3.7540   -3.3500    0.0000 C.ar    1  LIG1       -0.0003
     11 C          -4.7000   -3.6080    0.0000 C.ar    1  LIG1       -0.0000
     12 C          -5.4040   -2.8790    0.0000 C.ar    1  LIG1       -0.0003
     13 C          -5.1170   -1.9130    0.0000 C.ar    1  LIG1       -0.0042
     14 C          -5.8210    1.8750    0.0000 C.ar    1  LIG1        0.0173
     15 C          -6.2670    2.7790    0.0000 C.ar    1  LIG1        0.0015
     16 C          -5.6670    3.6130    0.0000 C.ar    1  LIG1        0.0001
     17 C          -4.6790    3.5040    0.0000 C.ar    1  LIG1        0.0031
     18 N          -2.4290    2.7790    0.0000 N.ar    1  LIG1       -0.1429
     19 N          -1.5670    2.2920    0.0000 N.ar    1  LIG1       -0.1217
     20 C          -1.5670    1.2790    0.0000 C.ar    1  LIG1        0.2123
     21 N          -2.4290    0.7670    0.0000 N.ar    1  LIG1       -0.2008
     22 S          -0.6920    0.7670    0.0000 S.3     1  LIG1       -0.0641
     23 C           0.1880    1.2540    0.0000 C.3     1  LIG1        0.1520
     24 C           1.0580    0.7670    0.0000 C.2     1  LIG1        0.2570
     25 N           1.9210    1.2540    0.0000 N.am    1  LIG1       -0.1785
     26 C           2.7790    0.7500    0.0000 C.ar    1  LIG1        0.0735
     27 C           3.6420    1.2380    0.0000 C.ar    1  LIG1        0.0180
     28 C           4.5000    0.7500    0.0000 C.ar    1  LIG1        0.0213
     29 C           4.5330   -0.2420    0.0000 C.ar    1  LIG1        0.1251
     30 S           5.4000   -0.7130    0.0000 S.O2    1  LIG1        0.0935
     31 O           5.8830    0.1710    0.0000 O.2     1  LIG1       -0.1503
     32 O           4.9290   -1.5960    0.0000 O.2     1  LIG1       -0.1503
     33 N           6.2670   -1.1790    0.0000 N.3     1  LIG1        0.0392
     34 C           3.6460   -0.7420    0.0000 C.ar    1  LIG1        0.0213
     35 C           2.7960   -0.2460    0.0000 C.ar    1  LIG1        0.0180
     36 O           1.0580   -0.2460    0.0000 O.2     1  LIG1       -0.2720
@<TRIPOS>BOND
     1     1     2   ar
     2     1     5   ar
     3     1    21   ar
     4     2     3   ar
     5     2    18   ar
     6     3     4   ar
     7     3    17   ar
     8     4     5   ar
     9     4    14   ar
    10     5     6    1
    11     6     7    1
    12     7     8    1
    13     8     9   ar
    14     8    13   ar
    15     9    10   ar
    16    10    11   ar
    17    11    12   ar
    18    12    13   ar
    19    14    15   ar
    20    15    16   ar
    21    16    17   ar
    22    18    19   ar
    23    19    20   ar
    24    20    21   ar
    25    20    22    1
    26    22    23    1
    27    23    24    1
    28    24    25   am
    29    24    36    2
    30    25    26    1
    31    26    27   ar
    32    26    35   ar
    33    27    28   ar
    34    28    29   ar
    35    29    30    1
    36    29    34   ar
    37    30    31    2
    38    30    32    2
    39    30    33    1
    40    34    35   ar
