@<TRIPOS>MOLECULE
24321_ChemDiv_8013-2853
 22 24 0 0 0
SMALL
GASTEIGER
Energy = 0

@<TRIPOS>ATOM
      1 C          -2.5830   -0.4710    0.0000 C.ar    1  LIG1        0.1032
      2 C          -2.0250    0.3380    0.0000 C.ar    1  LIG1        0.0441
      3 C          -1.0420    0.0540    0.0000 C.2     1  LIG1        0.1490
      4 C          -0.2580    0.6500    0.0000 C.2     1  LIG1        0.0385
      5 C           0.6580    0.2630    0.0000 C.ar    1  LIG1        0.0148
      6 C           1.4670    0.8500    0.0000 C.ar    1  LIG1        0.0069
      7 C           2.2880    0.2960    0.0000 C.ar    1  LIG1        0.1448
      8 N           2.0130   -0.6380    0.0000 N.ar    1  LIG1       -0.2397
      9 C           1.0080   -0.6580    0.0000 C.ar    1  LIG1        0.0599
     10 C           0.4420   -1.4790    0.0000 C.3     1  LIG1        0.0521
     11 C           3.2290    0.6080    0.0000 C.1     1  LIG1        0.1194
     12 N           4.1670    0.9290    0.0000 N.1     1  LIG1       -0.1893
     13 C           1.4670    1.8420    0.0000 C.3     1  LIG1        0.0334
     14 O          -1.0420   -0.9420    0.0000 O.3     1  LIG1       -0.4210
     15 C          -1.9830   -1.2880    0.0000 C.2     1  LIG1        0.3478
     16 O          -2.2750   -2.2540    0.0000 O.2     1  LIG1       -0.2444
     17 C          -2.4420    1.2540    0.0000 C.ar    1  LIG1        0.0180
     18 C          -3.4670    1.3210    0.0000 C.ar    1  LIG1        0.0600
     19 N          -4.0290    0.5080    0.0000 N.ar    1  LIG1       -0.2424
     20 C          -3.6130   -0.4040    0.0000 C.ar    1  LIG1        0.1226
     21 S          -4.1710   -1.2170    0.0000 S.2     1  LIG1       -0.0298
     22 C          -3.8830    2.2580    0.0000 C.3     1  LIG1        0.0521
@<TRIPOS>BOND
     1     1     2   ar
     2     1    15    1
     3     1    20   ar
     4     2     3    1
     5     2    17   ar
     6     3     4    2
     7     3    14    1
     8     4     5    1
     9     5     6   ar
    10     5     9   ar
    11     6     7   ar
    12     6    13    1
    13     7     8   ar
    14     7    11    1
    15     8     9   ar
    16     9    10    1
    17    11    12    3
    18    14    15    1
    19    15    16    2
    20    17    18   ar
    21    18    19   ar
    22    18    22    1
    23    19    20   ar
    24    20    21    2
