@<TRIPOS>MOLECULE
24322_ChemDiv_8009-4540
 29 33 0 0 0
SMALL
GASTEIGER
Energy = 0

@<TRIPOS>ATOM
      1 C           0.5670    2.0790    0.0000 C.2     1  LIG1        0.0728
      2 C           1.4380    1.5750    0.0000 C.2     1  LIG1        0.1423
      3 O           1.4380    0.5830    0.0000 O.2     1  LIG1       -0.4702
      4 C           0.5670    0.0750    0.0000 C.3     1  LIG1        0.2106
      5 C          -0.3040    0.5830    0.0000 C.ar    1  LIG1        0.0249
      6 C          -0.3040    1.5750    0.0000 C.ar    1  LIG1        0.0089
      7 C          -1.1710    2.0790    0.0000 C.ar    1  LIG1        0.0401
      8 C          -2.0250    1.5750    0.0000 C.ar    1  LIG1        0.1724
      9 C          -2.0250    0.5830    0.0000 C.ar    1  LIG1        0.1722
     10 C          -1.1710    0.0750    0.0000 C.ar    1  LIG1        0.0396
     11 O          -2.8960    0.0540    0.0000 O.3     1  LIG1       -0.4684
     12 C          -3.7670    0.5630    0.0000 C.3     1  LIG1        0.2526
     13 O          -2.8960    2.0790    0.0000 O.3     1  LIG1       -0.4684
     14 C          -3.7670    1.6000    0.0000 C.3     1  LIG1        0.2526
     15 C           0.5670   -0.9380    0.0000 C.ar    1  LIG1        0.0215
     16 C           1.4380   -1.4250    0.0000 C.ar    1  LIG1        0.0004
     17 C           1.4380   -2.4420    0.0000 C.ar    1  LIG1        0.0112
     18 C           0.5670   -2.9250    0.0000 C.ar    1  LIG1        0.0577
     19 C          -0.3040   -2.4420    0.0000 C.ar    1  LIG1        0.0112
     20 C          -0.3040   -1.4250    0.0000 C.ar    1  LIG1        0.0004
     21 CL          0.5670   -3.9420    0.0000 Cl      1  LIG1       -0.0822
     22 C           2.1710    2.2500    0.0000 C.ar    1  LIG1        0.0372
     23 C           1.7750    3.1420    0.0000 C.ar    1  LIG1        0.0420
     24 C           0.7790    3.0500    0.0000 C.2     1  LIG1        0.1986
     25 O           0.1250    3.8000    0.0000 O.2     1  LIG1       -0.2865
     26 C           2.3630    3.9460    0.0000 C.ar    1  LIG1        0.0033
     27 C           3.3540    3.8420    0.0000 C.ar    1  LIG1        0.0001
     28 C           3.7630    2.9750    0.0000 C.ar    1  LIG1        0.0001
     29 C           3.1750    2.1500    0.0000 C.ar    1  LIG1        0.0031
@<TRIPOS>BOND
     1     1     2    2
     2     1     6    1
     3     1    24    1
     4     2     3    1
     5     2    22    1
     6     3     4    1
     7     4     5    1
     8     4    15    1
     9     5     6   ar
    10     5    10   ar
    11     6     7   ar
    12     7     8   ar
    13     8     9   ar
    14     8    13    1
    15     9    10   ar
    16     9    11    1
    17    11    12    1
    18    13    14    1
    19    15    16   ar
    20    15    20   ar
    21    16    17   ar
    22    17    18   ar
    23    18    19   ar
    24    18    21    1
    25    19    20   ar
    26    22    23   ar
    27    22    29   ar
    28    23    24    1
    29    23    26   ar
    30    24    25    2
    31    26    27   ar
    32    27    28   ar
    33    28    29   ar
