@<TRIPOS>MOLECULE
24327_ChemDiv_8017-3616
 12 13 0 0 0
SMALL
GASTEIGER
Energy = 0

@<TRIPOS>ATOM
      1 C           0.4250   -0.0130    0.0000 C.ar    1  LIG1        0.0994
      2 C           0.4250   -1.0250    0.0000 C.ar    1  LIG1        0.1223
      3 N          -0.4330   -1.5170    0.0000 N.ar    1  LIG1       -0.2425
      4 C          -1.2960   -1.0420    0.0000 C.ar    1  LIG1        0.0597
      5 C          -1.2960   -0.0290    0.0000 C.ar    1  LIG1        0.0143
      6 C          -0.4330    0.4830    0.0000 C.ar    1  LIG1        0.0307
      7 C          -0.2460    1.4500    0.0000 C.3     1  LIG1        0.2357
      8 O           0.7500    1.5580    0.0000 O.3     1  LIG1       -0.4404
      9 C           1.1540    0.6580    0.0000 C.2     1  LIG1        0.3433
     10 O           2.1670    0.4830    0.0000 O.2     1  LIG1       -0.2448
     11 C          -2.1710   -1.5540    0.0000 C.3     1  LIG1        0.0521
     12 S           1.2880   -1.5420    0.0000 S.2     1  LIG1       -0.0298
@<TRIPOS>BOND
     1     1     2   ar
     2     1     6   ar
     3     1     9    1
     4     2     3   ar
     5     2    12    2
     6     3     4   ar
     7     4     5   ar
     8     4    11    1
     9     5     6   ar
    10     6     7    1
    11     7     8    1
    12     8     9    1
    13     9    10    2
