@<TRIPOS>MOLECULE
24337_ChemDiv_4119-0018
 22 25 0 0 0
SMALL
GASTEIGER
Energy = 0

@<TRIPOS>ATOM
      1 N           0.0000    0.9960    0.0000 N.pl3   1  LIG1       -0.2859
      2 C           0.8750    1.4830    0.0000 C.ar    1  LIG1        0.0576
      3 C           0.8750    2.4790    0.0000 C.ar    1  LIG1        0.0431
      4 S           0.0000    2.9790    0.0000 S.3     1  LIG1       -0.0844
      5 C          -0.8710    2.4790    0.0000 C.ar    1  LIG1        0.0431
      6 C          -0.8710    1.4830    0.0000 C.ar    1  LIG1        0.0576
      7 C          -1.7500    0.9960    0.0000 C.ar    1  LIG1        0.0153
      8 C          -2.6210    1.4830    0.0000 C.ar    1  LIG1        0.0013
      9 C          -2.6210    2.4790    0.0000 C.ar    1  LIG1        0.0006
     10 C          -1.7500    2.9790    0.0000 C.ar    1  LIG1        0.0077
     11 C           1.7460    2.9790    0.0000 C.ar    1  LIG1        0.0077
     12 C           2.6170    2.4790    0.0000 C.ar    1  LIG1        0.0006
     13 C           2.6170    1.4830    0.0000 C.ar    1  LIG1        0.0013
     14 C           1.7460    0.9960    0.0000 C.ar    1  LIG1        0.0153
     15 C           0.0000   -0.0040    0.0000 C.3     1  LIG1        0.1015
     16 C           0.8500   -0.4920    0.0000 C.3     1  LIG1        0.0773
     17 C           0.8500   -1.5080    0.0000 C.3     1  LIG1        0.1404
     18 N           1.7170   -2.0000    0.0000 N.4     1  LIG1        0.3820
     19 C           2.5920   -1.5080    0.0000 C.3     1  LIG1        0.1389
     20 C           2.5920   -0.4920    0.0000 C.3     1  LIG1        0.0630
     21 C           1.7170   -0.0040    0.0000 C.3     1  LIG1        0.0138
     22 C           1.7170   -2.9750    0.0000 C.3     1  LIG1        0.2022
@<TRIPOS>BOND
     1     1     2    1
     2     1     6    1
     3     1    15    1
     4     2     3   ar
     5     2    14   ar
     6     3     4    1
     7     3    11   ar
     8     4     5    1
     9     5     6   ar
    10     5    10   ar
    11     6     7   ar
    12     7     8   ar
    13     8     9   ar
    14     9    10   ar
    15    11    12   ar
    16    12    13   ar
    17    13    14   ar
    18    15    16    1
    19    16    17    1
    20    16    21    1
    21    17    18    1
    22    18    19    1
    23    18    22    1
    24    19    20    1
    25    20    21    1
