@<TRIPOS>MOLECULE
24335_ChemDiv_3698-0108
 31 35 0 0 0
SMALL
GASTEIGER
Energy = 0

@<TRIPOS>ATOM
      1 C          -2.7830    0.6710    0.0000 C.ar    1  LIG1        0.1658
      2 N          -3.7290    0.3500    0.0000 N.ar    1  LIG1       -0.3072
      3 C          -4.2960    1.1790    0.0000 C.ar    1  LIG1        0.0629
      4 C          -3.7290    1.9830    0.0000 C.ar    1  LIG1        0.0382
      5 C          -2.7830    1.6790    0.0000 C.ar    1  LIG1        0.1383
      6 N          -1.9080    2.1710    0.0000 N.ar    1  LIG1       -0.1429
      7 N          -1.0500    1.6790    0.0000 N.ar    1  LIG1       -0.1217
      8 C          -1.0500    0.6710    0.0000 C.ar    1  LIG1        0.2123
      9 N          -1.9080    0.1540    0.0000 N.ar    1  LIG1       -0.2008
     10 S          -0.1750    0.1540    0.0000 S.3     1  LIG1       -0.0641
     11 C           0.6830    0.6420    0.0000 C.3     1  LIG1        0.1516
     12 C           1.5540    0.1540    0.0000 C.2     1  LIG1        0.2532
     13 N           2.4250    0.6420    0.0000 N.am    1  LIG1       -0.1964
     14 C           3.2960    0.1540    0.0000 C.3     1  LIG1        0.1791
     15 C           4.1460    0.6580    0.0000 C.ar    1  LIG1        0.1449
     16 O           5.0420    0.2630    0.0000 O.2     1  LIG1       -0.4529
     17 C           5.7460    0.9330    0.0000 C.ar    1  LIG1        0.1792
     18 C           5.2960    1.8210    0.0000 C.ar    1  LIG1        0.0435
     19 C           4.2630    1.6630    0.0000 C.ar    1  LIG1        0.0380
     20 O           1.5540   -0.8580    0.0000 O.2     1  LIG1       -0.2724
     21 C          -4.1540    2.9000    0.0000 C.ar    1  LIG1        0.0031
     22 C          -5.1460    3.0000    0.0000 C.ar    1  LIG1        0.0001
     23 C          -5.7500    2.1710    0.0000 C.ar    1  LIG1        0.0015
     24 C          -5.3000    1.2580    0.0000 C.ar    1  LIG1        0.0173
     25 C          -4.0330   -0.5790    0.0000 C.3     1  LIG1        0.1342
     26 C          -3.3630   -1.3080    0.0000 C.ar    1  LIG1        0.0004
     27 C          -2.3880   -1.1130    0.0000 C.ar    1  LIG1       -0.0024
     28 C          -1.7250   -1.8250    0.0000 C.ar    1  LIG1       -0.0003
     29 C          -2.0000   -2.7920    0.0000 C.ar    1  LIG1       -0.0000
     30 C          -2.9920   -2.9960    0.0000 C.ar    1  LIG1       -0.0003
     31 C          -3.6460   -2.2790    0.0000 C.ar    1  LIG1       -0.0024
@<TRIPOS>BOND
     1     1     2   ar
     2     1     5   ar
     3     1     9   ar
     4     2     3   ar
     5     2    25    1
     6     3     4   ar
     7     3    24   ar
     8     4     5   ar
     9     4    21   ar
    10     5     6   ar
    11     6     7   ar
    12     7     8   ar
    13     8     9   ar
    14     8    10    1
    15    10    11    1
    16    11    12    1
    17    12    13   am
    18    12    20    2
    19    13    14    1
    20    14    15    1
    21    15    16   ar
    22    15    19   ar
    23    16    17   ar
    24    17    18   ar
    25    18    19   ar
    26    21    22   ar
    27    22    23   ar
    28    23    24   ar
    29    25    26    1
    30    26    27   ar
    31    26    31   ar
    32    27    28   ar
    33    28    29   ar
    34    29    30   ar
    35    30    31   ar
