@<TRIPOS>MOLECULE
24333_ChemDiv_2683-0099
 30 33 0 0 0
SMALL
GASTEIGER
Energy = 0

@<TRIPOS>ATOM
      1 C          -3.1420    0.1880    0.0000 C.ar    1  LIG1        0.1656
      2 C          -3.6250    1.0500    0.0000 C.ar    1  LIG1        0.1383
      3 C          -4.5880    0.8330    0.0000 C.ar    1  LIG1        0.0382
      4 C          -4.7210   -0.1500    0.0000 C.ar    1  LIG1        0.0626
      5 N          -3.8130   -0.5580    0.0000 N.ar    1  LIG1       -0.3114
      6 C          -3.5920   -1.5790    0.0000 C.3     1  LIG1        0.1076
      7 C          -2.6540   -1.9000    0.0000 C.3     1  LIG1        0.0265
      8 C          -5.6380   -0.5580    0.0000 C.ar    1  LIG1        0.0173
      9 C          -6.4040    0.0290    0.0000 C.ar    1  LIG1        0.0015
     10 C          -6.3040    1.0250    0.0000 C.ar    1  LIG1        0.0001
     11 C          -5.3960    1.4290    0.0000 C.ar    1  LIG1        0.0031
     12 N          -3.1420    1.9040    0.0000 N.ar    1  LIG1       -0.1429
     13 N          -2.1210    1.9040    0.0000 N.ar    1  LIG1       -0.1217
     14 C          -1.6380    1.0500    0.0000 C.ar    1  LIG1        0.2123
     15 N          -2.1210    0.1880    0.0000 N.ar    1  LIG1       -0.2008
     16 S          -0.6170    1.0500    0.0000 S.3     1  LIG1       -0.0641
     17 C          -0.1420    0.1880    0.0000 C.3     1  LIG1        0.1520
     18 C           0.8790    0.1880    0.0000 C.2     1  LIG1        0.2570
     19 N           1.3960   -0.6670    0.0000 N.am    1  LIG1       -0.1785
     20 C           2.3830   -0.6670    0.0000 C.ar    1  LIG1        0.0735
     21 C           2.8920   -1.5210    0.0000 C.ar    1  LIG1        0.0180
     22 C           3.8790   -1.5210    0.0000 C.ar    1  LIG1        0.0213
     23 C           4.3920   -0.6670    0.0000 C.ar    1  LIG1        0.1251
     24 S           5.3880   -0.6670    0.0000 S.O2    1  LIG1        0.0935
     25 O           5.3880    0.3580    0.0000 O.2     1  LIG1       -0.1503
     26 O           5.3880   -1.6880    0.0000 O.2     1  LIG1       -0.1503
     27 N           6.4040   -0.6670    0.0000 N.3     1  LIG1        0.0392
     28 C           3.8790    0.1880    0.0000 C.ar    1  LIG1        0.0213
     29 C           2.8920    0.1880    0.0000 C.ar    1  LIG1        0.0180
     30 O           1.3960    1.0500    0.0000 O.2     1  LIG1       -0.2720
@<TRIPOS>BOND
     1     1     2   ar
     2     1     5   ar
     3     1    15   ar
     4     2     3   ar
     5     2    12   ar
     6     3     4   ar
     7     3    11   ar
     8     4     5   ar
     9     4     8   ar
    10     5     6    1
    11     6     7    1
    12     8     9   ar
    13     9    10   ar
    14    10    11   ar
    15    12    13   ar
    16    13    14   ar
    17    14    15   ar
    18    14    16    1
    19    16    17    1
    20    17    18    1
    21    18    19   am
    22    18    30    2
    23    19    20    1
    24    20    21   ar
    25    20    29   ar
    26    21    22   ar
    27    22    23   ar
    28    23    24    1
    29    23    28   ar
    30    24    25    2
    31    24    26    2
    32    24    27    1
    33    28    29   ar
