@<TRIPOS>MOLECULE
24331_ChemDiv_2683-0073
 29 32 0 0 0
SMALL
GASTEIGER
Energy = 0

@<TRIPOS>ATOM
      1 C          -3.1080    0.0580    0.0000 C.ar    1  LIG1        0.1656
      2 C          -3.6130    0.9210    0.0000 C.ar    1  LIG1        0.1383
      3 C          -4.5920    0.7080    0.0000 C.ar    1  LIG1        0.0382
      4 C          -4.6830   -0.2670    0.0000 C.ar    1  LIG1        0.0627
      5 N          -3.7790   -0.6790    0.0000 N.ar    1  LIG1       -0.3094
      6 C          -3.6130   -1.6790    0.0000 C.3     1  LIG1        0.1319
      7 C          -5.5670   -0.7000    0.0000 C.ar    1  LIG1        0.0173
      8 C          -6.3960   -0.1500    0.0000 C.ar    1  LIG1        0.0015
      9 C          -6.3000    0.8670    0.0000 C.ar    1  LIG1        0.0001
     10 C          -5.4290    1.2790    0.0000 C.ar    1  LIG1        0.0031
     11 N          -3.1080    1.8000    0.0000 N.ar    1  LIG1       -0.1429
     12 N          -2.1130    1.8000    0.0000 N.ar    1  LIG1       -0.1217
     13 C          -1.6170    0.9420    0.0000 C.ar    1  LIG1        0.2123
     14 N          -2.1130    0.0580    0.0000 N.ar    1  LIG1       -0.2008
     15 S          -0.6080    0.9420    0.0000 S.3     1  LIG1       -0.0641
     16 C          -0.1130    0.0580    0.0000 C.3     1  LIG1        0.1520
     17 C           0.8880    0.0880    0.0000 C.2     1  LIG1        0.2570
     18 N           1.3920   -0.8000    0.0000 N.am    1  LIG1       -0.1785
     19 C           2.3920   -0.8000    0.0000 C.ar    1  LIG1        0.0735
     20 C           2.8920   -1.6540    0.0000 C.ar    1  LIG1        0.0180
     21 C           3.8960   -1.6540    0.0000 C.ar    1  LIG1        0.0213
     22 C           4.3960   -0.8000    0.0000 C.ar    1  LIG1        0.1251
     23 S           5.3920   -0.8000    0.0000 S.O2    1  LIG1        0.0935
     24 O           5.3920    0.2080    0.0000 O.2     1  LIG1       -0.1503
     25 O           5.3920   -1.7960    0.0000 O.2     1  LIG1       -0.1503
     26 N           6.3960   -0.8000    0.0000 N.3     1  LIG1        0.0392
     27 C           3.8960    0.0580    0.0000 C.ar    1  LIG1        0.0213
     28 C           2.8920    0.0580    0.0000 C.ar    1  LIG1        0.0180
     29 O           1.3920    0.9420    0.0000 O.2     1  LIG1       -0.2720
@<TRIPOS>BOND
     1     1     2   ar
     2     1     5   ar
     3     1    14   ar
     4     2     3   ar
     5     2    11   ar
     6     3     4   ar
     7     3    10   ar
     8     4     5   ar
     9     4     7   ar
    10     5     6    1
    11     7     8   ar
    12     8     9   ar
    13     9    10   ar
    14    11    12   ar
    15    12    13   ar
    16    13    14   ar
    17    13    15    1
    18    15    16    1
    19    16    17    1
    20    17    18   am
    21    17    29    2
    22    18    19    1
    23    19    20   ar
    24    19    28   ar
    25    20    21   ar
    26    21    22   ar
    27    22    23    1
    28    22    27   ar
    29    23    24    2
    30    23    25    2
    31    23    26    1
    32    27    28   ar
