@<TRIPOS>MOLECULE
24347_ChemDiv_5936-0084
 25 27 0 0 0
SMALL
GASTEIGER
Energy = 0

@<TRIPOS>ATOM
      1 N           0.0000    1.7460    0.0000 N.pl3   1  LIG1       -0.2832
      2 C           0.8580    2.2460    0.0000 C.ar    1  LIG1        0.0577
      3 C           0.8580    3.2500    0.0000 C.ar    1  LIG1        0.0431
      4 S           0.0000    3.7380    0.0000 S.3     1  LIG1       -0.0844
      5 C          -0.8880    3.2500    0.0000 C.ar    1  LIG1        0.0431
      6 C          -0.8880    2.2460    0.0000 C.ar    1  LIG1        0.0577
      7 C          -1.7380    1.7460    0.0000 C.ar    1  LIG1        0.0153
      8 C          -2.6000    2.2460    0.0000 C.ar    1  LIG1        0.0013
      9 C          -2.6000    3.2500    0.0000 C.ar    1  LIG1        0.0006
     10 C          -1.7380    3.7540    0.0000 C.ar    1  LIG1        0.0077
     11 C           1.7250    3.7380    0.0000 C.ar    1  LIG1        0.0077
     12 C           2.5960    3.2500    0.0000 C.ar    1  LIG1        0.0006
     13 C           2.5830    2.2460    0.0000 C.ar    1  LIG1        0.0013
     14 C           1.7080    1.7420    0.0000 C.ar    1  LIG1        0.0153
     15 C           0.0000    0.7460    0.0000 C.3     1  LIG1        0.1346
     16 C           0.8580    0.2380    0.0000 C.3     1  LIG1        0.2281
     17 C           0.8580   -0.7500    0.0000 C.3     1  LIG1        0.1739
     18 N          -0.0130   -1.2580    0.0000 N.4     1  LIG1        0.3835
     19 C          -0.8880   -0.7500    0.0000 C.3     1  LIG1        0.1750
     20 C          -1.7380   -1.2580    0.0000 C.3     1  LIG1        0.2442
     21 O          -2.6000   -0.7500    0.0000 O.3     1  LIG1       -0.2137
     22 C          -0.0130   -2.2460    0.0000 C.3     1  LIG1        0.1750
     23 C          -0.8880   -2.7420    0.0000 C.3     1  LIG1        0.2442
     24 O          -0.8880   -3.7500    0.0000 O.3     1  LIG1       -0.2137
     25 O           1.7250    0.7460    0.0000 O.3     1  LIG1       -0.2149
@<TRIPOS>BOND
     1     1     2    1
     2     1     6    1
     3     1    15    1
     4     2     3   ar
     5     2    14   ar
     6     3     4    1
     7     3    11   ar
     8     4     5    1
     9     5     6   ar
    10     5    10   ar
    11     6     7   ar
    12     7     8   ar
    13     8     9   ar
    14     9    10   ar
    15    11    12   ar
    16    12    13   ar
    17    13    14   ar
    18    15    16    1
    19    16    17    1
    20    16    25    1
    21    17    18    1
    22    18    19    1
    23    18    22    1
    24    19    20    1
    25    20    21    1
    26    22    23    1
    27    23    24    1
