@<TRIPOS>MOLECULE
24345_ChemDiv_5936-0065
 26 28 0 0 0
SMALL
GASTEIGER
Energy = 0

@<TRIPOS>ATOM
      1 N           0.0080    1.7500    0.0000 N.pl3   1  LIG1       -0.2832
      2 C           0.8630    2.2330    0.0000 C.ar    1  LIG1        0.0577
      3 C           0.8630    3.2420    0.0000 C.ar    1  LIG1        0.0431
      4 S           0.0080    3.7540    0.0000 S.3     1  LIG1       -0.0844
      5 C          -0.8670    3.2420    0.0000 C.ar    1  LIG1        0.0431
      6 C          -0.8670    2.2500    0.0000 C.ar    1  LIG1        0.0577
      7 C          -1.7500    1.7500    0.0000 C.ar    1  LIG1        0.0153
      8 C          -2.6000    2.2500    0.0000 C.ar    1  LIG1        0.0013
      9 C          -2.6000    3.2420    0.0000 C.ar    1  LIG1        0.0006
     10 C          -1.7500    3.7540    0.0000 C.ar    1  LIG1        0.0077
     11 C           1.7290    3.7290    0.0000 C.ar    1  LIG1        0.0077
     12 C           2.5960    3.2380    0.0000 C.ar    1  LIG1        0.0006
     13 C           2.5960    2.2330    0.0000 C.ar    1  LIG1        0.0013
     14 C           1.7130    1.7250    0.0000 C.ar    1  LIG1        0.0153
     15 C           0.0080    0.7500    0.0000 C.3     1  LIG1        0.1348
     16 C           0.8630    0.2580    0.0000 C.3     1  LIG1        0.2341
     17 C           0.8630   -0.7540    0.0000 C.3     1  LIG1        0.2353
     18 N           0.0080   -1.2540    0.0000 N.4     1  LIG1        0.4473
     19 C           0.0080   -2.2460    0.0000 C.3     1  LIG1        0.1904
     20 C          -0.8830   -2.7540    0.0000 C.3     1  LIG1        0.2435
     21 O          -0.8830   -3.7500    0.0000 O.3     1  LIG1       -0.2138
     22 C           0.8630   -2.7540    0.0000 C.3     1  LIG1        0.2435
     23 O           0.8630   -3.7500    0.0000 O.3     1  LIG1       -0.2138
     24 C          -0.9630   -1.9880    0.0000 C.3     1  LIG1        0.2435
     25 O          -1.2330   -1.0170    0.0000 O.3     1  LIG1       -0.2138
     26 O           1.7290    0.7500    0.0000 O.3     1  LIG1       -0.2146
@<TRIPOS>BOND
     1     1     2    1
     2     1     6    1
     3     1    15    1
     4     2     3   ar
     5     2    14   ar
     6     3     4    1
     7     3    11   ar
     8     4     5    1
     9     5     6   ar
    10     5    10   ar
    11     6     7   ar
    12     7     8   ar
    13     8     9   ar
    14     9    10   ar
    15    11    12   ar
    16    12    13   ar
    17    13    14   ar
    18    15    16    1
    19    16    17    1
    20    16    26    1
    21    17    18    1
    22    18    19    1
    23    19    20    1
    24    19    22    1
    25    19    24    1
    26    20    21    1
    27    22    23    1
    28    24    25    1
