@<TRIPOS>MOLECULE
24357_ChemDiv_5471-0111
 35 39 0 0 0
SMALL
GASTEIGER
Energy = 0

@<TRIPOS>ATOM
      1 C          -3.3790    0.8250    0.0000 C.ar    1  LIG1        0.1658
      2 N          -4.0500    0.0710    0.0000 N.ar    1  LIG1       -0.3072
      3 C          -4.9670    0.4710    0.0000 C.ar    1  LIG1        0.0629
      4 C          -4.8330    1.4630    0.0000 C.ar    1  LIG1        0.0382
      5 C          -3.8670    1.6790    0.0000 C.ar    1  LIG1        0.1383
      6 N          -3.3790    2.5330    0.0000 N.ar    1  LIG1       -0.1429
      7 N          -2.3670    2.5330    0.0000 N.ar    1  LIG1       -0.1217
      8 C          -1.8790    1.6790    0.0000 C.ar    1  LIG1        0.2123
      9 N          -2.3670    0.8250    0.0000 N.ar    1  LIG1       -0.2008
     10 S          -0.8580    1.6790    0.0000 S.3     1  LIG1       -0.0641
     11 C          -0.3750    0.8250    0.0000 C.3     1  LIG1        0.1520
     12 C           0.6460    0.8250    0.0000 C.2     1  LIG1        0.2570
     13 N           1.1540   -0.0420    0.0000 N.am    1  LIG1       -0.1785
     14 C           2.1460   -0.0420    0.0000 C.ar    1  LIG1        0.0735
     15 C           2.6580   -0.9210    0.0000 C.ar    1  LIG1        0.0179
     16 C           3.6500   -0.9210    0.0000 C.ar    1  LIG1        0.0179
     17 C           4.1580   -0.0420    0.0000 C.ar    1  LIG1        0.0734
     18 N           5.1460   -0.0420    0.0000 N.am    1  LIG1       -0.1792
     19 C           5.6630   -0.9210    0.0000 C.2     1  LIG1        0.2461
     20 O           6.6580   -0.9210    0.0000 O.2     1  LIG1       -0.2730
     21 C           5.1460   -1.7880    0.0000 C.3     1  LIG1        0.0968
     22 C           3.6500    0.8250    0.0000 C.ar    1  LIG1        0.0179
     23 C           2.6580    0.8250    0.0000 C.ar    1  LIG1        0.0179
     24 O           1.1540    1.6790    0.0000 O.2     1  LIG1       -0.2720
     25 C          -5.6380    2.0540    0.0000 C.ar    1  LIG1        0.0031
     26 C          -6.5460    1.6500    0.0000 C.ar    1  LIG1        0.0001
     27 C          -6.6580    0.6580    0.0000 C.ar    1  LIG1        0.0015
     28 C          -5.8790    0.0710    0.0000 C.ar    1  LIG1        0.0173
     29 C          -3.8420   -0.9540    0.0000 C.3     1  LIG1        0.1342
     30 C          -2.8880   -1.2540    0.0000 C.ar    1  LIG1        0.0004
     31 C          -2.6710   -2.2290    0.0000 C.ar    1  LIG1       -0.0024
     32 C          -1.7170   -2.5290    0.0000 C.ar    1  LIG1       -0.0003
     33 C          -0.9790   -1.8540    0.0000 C.ar    1  LIG1       -0.0000
     34 C          -1.1920   -0.9000    0.0000 C.ar    1  LIG1       -0.0003
     35 C          -2.1670   -0.6000    0.0000 C.ar    1  LIG1       -0.0024
@<TRIPOS>BOND
     1     1     2   ar
     2     1     5   ar
     3     1     9   ar
     4     2     3   ar
     5     2    29    1
     6     3     4   ar
     7     3    28   ar
     8     4     5   ar
     9     4    25   ar
    10     5     6   ar
    11     6     7   ar
    12     7     8   ar
    13     8     9   ar
    14     8    10    1
    15    10    11    1
    16    11    12    1
    17    12    13   am
    18    12    24    2
    19    13    14    1
    20    14    15   ar
    21    14    23   ar
    22    15    16   ar
    23    16    17   ar
    24    17    18    1
    25    17    22   ar
    26    18    19   am
    27    19    20    2
    28    19    21    1
    29    22    23   ar
    30    25    26   ar
    31    26    27   ar
    32    27    28   ar
    33    29    30    1
    34    30    31   ar
    35    30    35   ar
    36    31    32   ar
    37    32    33   ar
    38    33    34   ar
    39    34    35   ar
