@<TRIPOS>MOLECULE
24359_ChemDiv_6290-0058
 32 35 0 0 0
SMALL
GASTEIGER
Energy = 0

@<TRIPOS>ATOM
      1 C           3.7330   -0.3040    0.0000 C.ar    1  LIG1        0.1656
      2 C           3.7960    0.6880    0.0000 C.ar    1  LIG1        0.1383
      3 C           4.7580    0.9420    0.0000 C.ar    1  LIG1        0.0382
      4 C           5.2920    0.1040    0.0000 C.ar    1  LIG1        0.0626
      5 N           4.6710   -0.6670    0.0000 N.ar    1  LIG1       -0.3114
      6 C           4.9380   -1.6330    0.0000 C.3     1  LIG1        0.1076
      7 C           5.8960   -1.8880    0.0000 C.3     1  LIG1        0.0265
      8 C           6.3000    0.1500    0.0000 C.ar    1  LIG1        0.0173
      9 C           6.7710    1.0290    0.0000 C.ar    1  LIG1        0.0015
     10 C           6.2170    1.8920    0.0000 C.ar    1  LIG1        0.0001
     11 C           5.2170    1.8380    0.0000 C.ar    1  LIG1        0.0031
     12 N           2.9540    1.2290    0.0000 N.ar    1  LIG1       -0.1429
     13 N           2.0630    0.7750    0.0000 N.ar    1  LIG1       -0.1217
     14 C           2.0080   -0.2130    0.0000 C.ar    1  LIG1        0.2122
     15 N           2.8500   -0.7580    0.0000 N.ar    1  LIG1       -0.2008
     16 S           1.1000   -0.6500    0.0000 S.3     1  LIG1       -0.0655
     17 C           0.2670   -0.0920    0.0000 C.3     1  LIG1        0.1329
     18 C          -0.6250   -0.5290    0.0000 C.2     1  LIG1        0.2556
     19 N          -1.4580    0.0290    0.0000 N.am    1  LIG1       -0.1785
     20 C          -2.3540   -0.4040    0.0000 C.ar    1  LIG1        0.0735
     21 C          -2.4170   -1.4040    0.0000 C.ar    1  LIG1        0.0179
     22 C          -3.3170   -1.8420    0.0000 C.ar    1  LIG1        0.0179
     23 C          -4.1500   -1.2830    0.0000 C.ar    1  LIG1        0.0734
     24 N          -5.0500   -1.7210    0.0000 N.am    1  LIG1       -0.1792
     25 C          -5.8750   -1.1630    0.0000 C.2     1  LIG1        0.2461
     26 O          -5.8040   -0.1670    0.0000 O.2     1  LIG1       -0.2730
     27 C          -6.7710   -1.6000    0.0000 C.3     1  LIG1        0.0968
     28 C          -4.0790   -0.2830    0.0000 C.ar    1  LIG1        0.0179
     29 C          -3.1830    0.1540    0.0000 C.ar    1  LIG1        0.0179
     30 O          -0.7000   -1.5290    0.0000 O.2     1  LIG1       -0.2721
     31 C           0.3380    0.9080    0.0000 C.3     1  LIG1        0.0205
     32 C          -0.4880    1.4580    0.0000 C.3     1  LIG1        0.0014
@<TRIPOS>BOND
     1     1     2   ar
     2     1     5   ar
     3     1    15   ar
     4     2     3   ar
     5     2    12   ar
     6     3     4   ar
     7     3    11   ar
     8     4     5   ar
     9     4     8   ar
    10     5     6    1
    11     6     7    1
    12     8     9   ar
    13     9    10   ar
    14    10    11   ar
    15    12    13   ar
    16    13    14   ar
    17    14    15   ar
    18    14    16    1
    19    16    17    1
    20    17    18    1
    21    17    31    1
    22    18    19   am
    23    18    30    2
    24    19    20    1
    25    20    21   ar
    26    20    29   ar
    27    21    22   ar
    28    22    23   ar
    29    23    24    1
    30    23    28   ar
    31    24    25   am
    32    25    26    2
    33    25    27    1
    34    28    29   ar
    35    31    32    1
