@<TRIPOS>MOLECULE
24355_ChemDiv_3698-0113
 25 28 0 0 0
SMALL
GASTEIGER
Energy = 0

@<TRIPOS>ATOM
      1 C          -0.5000    0.1080    0.0000 C.ar    1  LIG1        0.1658
      2 N          -1.4380   -0.2130    0.0000 N.ar    1  LIG1       -0.3072
      3 C          -2.0000    0.5960    0.0000 C.ar    1  LIG1        0.0629
      4 C          -1.4380    1.4250    0.0000 C.ar    1  LIG1        0.0382
      5 C          -0.5000    1.1040    0.0000 C.ar    1  LIG1        0.1383
      6 N           0.3540    1.6080    0.0000 N.ar    1  LIG1       -0.1429
      7 N           1.2420    1.1040    0.0000 N.ar    1  LIG1       -0.1217
      8 C           1.2420    0.1080    0.0000 C.ar    1  LIG1        0.2122
      9 N           0.3540   -0.3960    0.0000 N.ar    1  LIG1       -0.2008
     10 S           2.1290   -0.4080    0.0000 S.3     1  LIG1       -0.0679
     11 C           3.0000    0.0920    0.0000 C.3     1  LIG1        0.1066
     12 C           3.8710   -0.4080    0.0000 C.2     1  LIG1        0.0617
     13 O           3.8710   -1.4080    0.0000 O.co2   1  LIG1       -0.5483
     14 O           4.7380    0.0920    0.0000 O.co2   1  LIG1       -0.5483
     15 C          -1.8670    2.3210    0.0000 C.ar    1  LIG1        0.0031
     16 C          -2.8540    2.4040    0.0000 C.ar    1  LIG1        0.0001
     17 C          -3.4420    1.5960    0.0000 C.ar    1  LIG1        0.0015
     18 C          -3.0130    0.6790    0.0000 C.ar    1  LIG1        0.0173
     19 C          -1.7710   -1.1420    0.0000 C.3     1  LIG1        0.1342
     20 C          -2.7500   -1.3250    0.0000 C.ar    1  LIG1        0.0004
     21 C          -3.1170   -2.2420    0.0000 C.ar    1  LIG1       -0.0024
     22 C          -4.0790   -2.4000    0.0000 C.ar    1  LIG1       -0.0003
     23 C          -4.7420   -1.6670    0.0000 C.ar    1  LIG1       -0.0000
     24 C          -4.4130   -0.7290    0.0000 C.ar    1  LIG1       -0.0003
     25 C          -3.4380   -0.5460    0.0000 C.ar    1  LIG1       -0.0024
@<TRIPOS>BOND
     1     1     2   ar
     2     1     5   ar
     3     1     9   ar
     4     2     3   ar
     5     2    19    1
     6     3     4   ar
     7     3    18   ar
     8     4     5   ar
     9     4    15   ar
    10     5     6   ar
    11     6     7   ar
    12     7     8   ar
    13     8     9   ar
    14     8    10    1
    15    10    11    1
    16    11    12    1
    17    12    13   ar
    18    12    14   ar
    19    15    16   ar
    20    16    17   ar
    21    17    18   ar
    22    19    20    1
    23    20    21   ar
    24    20    25   ar
    25    21    22   ar
    26    22    23   ar
    27    23    24   ar
    28    24    25   ar
