@<TRIPOS>MOLECULE
24358_ChemDiv_8017-6863
 18 20 0 0 0
SMALL
GASTEIGER
Energy = 0

@<TRIPOS>ATOM
      1 C           0.4670   -0.2460    0.0000 C.ar    1  LIG1        0.0941
      2 C          -0.3960    0.2540    0.0000 C.ar    1  LIG1        0.0941
      3 N          -1.3460   -0.0580    0.0000 N.2     1  LIG1       -0.2524
      4 C          -1.9420    0.7540    0.0000 C.2     1  LIG1        0.0403
      5 C          -1.3460    1.5670    0.0000 C.3     1  LIG1        0.0519
      6 C          -0.3960    1.2540    0.0000 C.ar    1  LIG1        0.0012
      7 C           0.4670    1.7540    0.0000 C.ar    1  LIG1       -0.0027
      8 C           1.3380    1.2540    0.0000 C.ar    1  LIG1       -0.0027
      9 C           1.3380    0.2540    0.0000 C.ar    1  LIG1        0.0012
     10 C           2.0790   -0.4130    0.0000 C.3     1  LIG1        0.0519
     11 C           1.6670   -1.3250    0.0000 C.2     1  LIG1        0.0403
     12 N           0.6790   -1.2170    0.0000 N.2     1  LIG1       -0.2524
     13 C           1.9170   -2.2790    0.0000 C.3     1  LIG1        0.0476
     14 C           2.9380    0.0960    0.0000 C.3     1  LIG1        0.0100
     15 C           2.9380   -0.9040    0.0000 C.3     1  LIG1        0.0100
     16 C          -2.3170    1.8290    0.0000 C.3     1  LIG1        0.0100
     17 C          -0.6420    2.2830    0.0000 C.3     1  LIG1        0.0100
     18 C          -2.9420    0.7540    0.0000 C.3     1  LIG1        0.0476
@<TRIPOS>BOND
     1     1     2   ar
     2     1     9   ar
     3     1    12    1
     4     2     3    1
     5     2     6   ar
     6     3     4    2
     7     4     5    1
     8     4    18    1
     9     5     6    1
    10     5    16    1
    11     5    17    1
    12     6     7   ar
    13     7     8   ar
    14     8     9   ar
    15     9    10    1
    16    10    11    1
    17    10    14    1
    18    10    15    1
    19    11    12    2
    20    11    13    1
