@<TRIPOS>MOLECULE
24353_ChemDiv_3698-0111
 29 33 0 0 0
SMALL
GASTEIGER
Energy = 0

@<TRIPOS>ATOM
      1 C          -1.9790    0.6710    0.0000 C.ar    1  LIG1        0.1658
      2 N          -2.9250    0.3500    0.0000 N.ar    1  LIG1       -0.3072
      3 C          -3.4960    1.1830    0.0000 C.ar    1  LIG1        0.0629
      4 C          -2.9250    1.9830    0.0000 C.ar    1  LIG1        0.0382
      5 C          -1.9790    1.6830    0.0000 C.ar    1  LIG1        0.1383
      6 N          -1.1040    2.1750    0.0000 N.ar    1  LIG1       -0.1429
      7 N          -0.2420    1.6830    0.0000 N.ar    1  LIG1       -0.1217
      8 C          -0.2420    0.6710    0.0000 C.ar    1  LIG1        0.2120
      9 N          -1.1040    0.1540    0.0000 N.ar    1  LIG1       -0.2008
     10 S           0.6330    0.1540    0.0000 S.3     1  LIG1       -0.0677
     11 C           1.4920    0.6420    0.0000 C.3     1  LIG1        0.1277
     12 C           2.3630    0.1500    0.0000 C.3     1  LIG1        0.1511
     13 N           3.2130    0.6420    0.0000 N.4     1  LIG1        0.3819
     14 C           4.1130    0.1920    0.0000 C.3     1  LIG1        0.1713
     15 C           4.9500    0.6710    0.0000 C.3     1  LIG1        0.2047
     16 O           4.9500    1.6710    0.0000 O.3     1  LIG1       -0.3411
     17 C           4.0750    2.1500    0.0000 C.3     1  LIG1        0.2047
     18 C           3.2130    1.6380    0.0000 C.3     1  LIG1        0.1713
     19 C          -3.3540    2.9040    0.0000 C.ar    1  LIG1        0.0031
     20 C          -4.3460    3.0040    0.0000 C.ar    1  LIG1        0.0001
     21 C          -4.9540    2.1750    0.0000 C.ar    1  LIG1        0.0015
     22 C          -4.5000    1.2630    0.0000 C.ar    1  LIG1        0.0173
     23 C          -3.2330   -0.5790    0.0000 C.3     1  LIG1        0.1342
     24 C          -2.5630   -1.3130    0.0000 C.ar    1  LIG1        0.0004
     25 C          -1.5830   -1.1170    0.0000 C.ar    1  LIG1       -0.0024
     26 C          -0.9170   -1.8290    0.0000 C.ar    1  LIG1       -0.0003
     27 C          -1.1960   -2.8000    0.0000 C.ar    1  LIG1       -0.0000
     28 C          -2.1880   -3.0000    0.0000 C.ar    1  LIG1       -0.0003
     29 C          -2.8420   -2.2830    0.0000 C.ar    1  LIG1       -0.0024
@<TRIPOS>BOND
     1     1     2   ar
     2     1     5   ar
     3     1     9   ar
     4     2     3   ar
     5     2    23    1
     6     3     4   ar
     7     3    22   ar
     8     4     5   ar
     9     4    19   ar
    10     5     6   ar
    11     6     7   ar
    12     7     8   ar
    13     8     9   ar
    14     8    10    1
    15    10    11    1
    16    11    12    1
    17    12    13    1
    18    13    14    1
    19    13    18    1
    20    14    15    1
    21    15    16    1
    22    16    17    1
    23    17    18    1
    24    19    20   ar
    25    20    21   ar
    26    21    22   ar
    27    23    24    1
    28    24    25   ar
    29    24    29   ar
    30    25    26   ar
    31    26    27   ar
    32    27    28   ar
    33    28    29   ar
