@<TRIPOS>MOLECULE
24369_ChemDiv_6640-0077
 20 22 0 0 0
SMALL
GASTEIGER
Energy = 0

@<TRIPOS>ATOM
      1 N          -0.0040    1.0080    0.0000 N.am    1  LIG1       -0.2364
      2 C           0.8580    1.5080    0.0000 C.ar    1  LIG1        0.0640
      3 C           0.8580    2.5040    0.0000 C.ar    1  LIG1        0.0435
      4 S          -0.0040    3.0040    0.0000 S.3     1  LIG1       -0.0844
      5 C          -0.8670    2.5040    0.0000 C.ar    1  LIG1        0.0435
      6 C          -0.8670    1.5080    0.0000 C.ar    1  LIG1        0.0640
      7 C          -1.7380    1.0000    0.0000 C.ar    1  LIG1        0.0157
      8 C          -2.5960    1.5000    0.0000 C.ar    1  LIG1        0.0013
      9 C          -2.5960    2.5130    0.0000 C.ar    1  LIG1        0.0006
     10 C          -1.7250    3.0040    0.0000 C.ar    1  LIG1        0.0077
     11 C           1.7210    3.0040    0.0000 C.ar    1  LIG1        0.0077
     12 C           2.5920    2.5130    0.0000 C.ar    1  LIG1        0.0006
     13 C           2.5920    1.5080    0.0000 C.ar    1  LIG1        0.0013
     14 C           1.7210    1.0000    0.0000 C.ar    1  LIG1        0.0157
     15 C           0.0000    0.0000    0.0000 C.2     1  LIG1        0.2333
     16 O          -0.8670   -0.4960    0.0000 O.2     1  LIG1       -0.2742
     17 C           0.8710   -0.4960    0.0000 C.3     1  LIG1        0.0927
     18 C           0.8710   -1.5000    0.0000 C.3     1  LIG1        0.0902
     19 C           1.7380   -1.9960    0.0000 C.3     1  LIG1        0.3157
     20 N           1.7380   -3.0000    0.0000 N.4     1  LIG1        0.5972
@<TRIPOS>BOND
     1     1     2    1
     2     1     6    1
     3     1    15   am
     4     2     3   ar
     5     2    14   ar
     6     3     4    1
     7     3    11   ar
     8     4     5    1
     9     5     6   ar
    10     5    10   ar
    11     6     7   ar
    12     7     8   ar
    13     8     9   ar
    14     9    10   ar
    15    11    12   ar
    16    12    13   ar
    17    13    14   ar
    18    15    16    2
    19    15    17    1
    20    17    18    1
    21    18    19    1
    22    19    20    1
