@<TRIPOS>MOLECULE
24361_ChemDiv_6927-0949
 22 25 0 0 0
SMALL
GASTEIGER
Energy = 0

@<TRIPOS>ATOM
      1 C           0.8380    0.9670    0.0000 C.ar    1  LIG1        0.1628
      2 N          -0.0080    0.4750    0.0000 N.ar    1  LIG1       -0.3072
      3 C          -0.8460    0.9670    0.0000 C.ar    1  LIG1        0.0631
      4 C          -0.8540    1.9460    0.0000 C.ar    1  LIG1        0.0404
      5 C           0.8330    1.9460    0.0000 C.ar    1  LIG1        0.1382
      6 N           1.6750    2.4380    0.0000 N.ar    1  LIG1       -0.1457
      7 N           2.5250    1.9500    0.0000 N.ar    1  LIG1       -0.1611
      8 C           2.5250    0.9710    0.0000 C.ar    1  LIG1        0.0159
      9 N           1.6790    0.4880    0.0000 N.ar    1  LIG1       -0.2381
     10 S           3.3630    0.4880    0.0000 S.3     1  LIG1       -0.7172
     11 C          -1.6880    2.4250    0.0000 C.ar    1  LIG1        0.0327
     12 C          -2.5250    1.9420    0.0000 C.ar    1  LIG1        0.1403
     13 C          -2.5250    0.9670    0.0000 C.ar    1  LIG1        0.0311
     14 C          -1.6880    0.4880    0.0000 C.ar    1  LIG1        0.0196
     15 F          -3.3670    2.4250    0.0000 F       1  LIG1       -0.2042
     16 C          -0.0080   -0.4920    0.0000 C.3     1  LIG1        0.1342
     17 C          -0.8460   -0.9790    0.0000 C.ar    1  LIG1        0.0004
     18 C          -1.6790   -0.4920    0.0000 C.ar    1  LIG1       -0.0024
     19 C          -2.5210   -0.9790    0.0000 C.ar    1  LIG1       -0.0003
     20 C          -2.5210   -1.9460    0.0000 C.ar    1  LIG1       -0.0000
     21 C          -1.6750   -2.4330    0.0000 C.ar    1  LIG1       -0.0003
     22 C          -0.8380   -1.9460    0.0000 C.ar    1  LIG1       -0.0024
@<TRIPOS>BOND
     1     1     2   ar
     2     1     5   ar
     3     1     9   ar
     4     2     3   ar
     5     2    16    1
     6     3     4   ar
     7     3    14   ar
     8     4     5   ar
     9     4    11   ar
    10     5     6   ar
    11     6     7   ar
    12     7     8   ar
    13     8     9   ar
    14     8    10    1
    15    11    12   ar
    16    12    13   ar
    17    12    15    1
    18    13    14   ar
    19    16    17    1
    20    17    18   ar
    21    17    22   ar
    22    18    19   ar
    23    19    20   ar
    24    20    21   ar
    25    21    22   ar
