@<TRIPOS>MOLECULE
24366_ChemDiv_0385-0638
 33 36 0 0 0
SMALL
GASTEIGER
Energy = 0

@<TRIPOS>ATOM
      1 S          -1.3460    1.4830    0.0000 S.O2    1  LIG1       -0.0563
      2 C          -2.2250    2.0080    0.0000 C.ar    1  LIG1        0.1090
      3 C          -3.0790    1.5000    0.0000 C.ar    1  LIG1        0.1244
      4 N          -3.3000    0.5380    0.0000 N.ar    1  LIG1       -0.1889
      5 S          -4.2670    0.4290    0.0000 S.2     1  LIG1        0.1165
      6 N          -4.6960    1.3330    0.0000 N.ar    1  LIG1       -0.1901
      7 C          -3.9380    2.0080    0.0000 C.ar    1  LIG1        0.1101
      8 C          -3.9380    2.9960    0.0000 C.ar    1  LIG1        0.0214
      9 C          -3.0790    3.5000    0.0000 C.ar    1  LIG1        0.0029
     10 C          -2.2250    2.9960    0.0000 C.ar    1  LIG1        0.0186
     11 N          -0.4670    0.9750    0.0000 N.pl3   1  LIG1       -0.5356
     12 C          -0.4960   -0.0330    0.0000 C.ar    1  LIG1       -0.1078
     13 C           0.3830   -0.5330    0.0000 C.ar    1  LIG1        0.0324
     14 C           1.2580   -0.0130    0.0000 C.2     1  LIG1        0.2473
     15 N           2.1210   -0.5170    0.0000 N.am    1  LIG1       -0.2767
     16 C           2.1210   -1.5210    0.0000 C.3     1  LIG1        0.0757
     17 C           1.2580   -2.0080    0.0000 C.3     1  LIG1        0.0198
     18 C           1.2580   -3.0170    0.0000 C.3     1  LIG1        0.0017
     19 C           2.1210   -3.4960    0.0000 C.3     1  LIG1        0.0001
     20 C           2.9750   -3.0170    0.0000 C.3     1  LIG1        0.0017
     21 C           2.9750   -2.0080    0.0000 C.3     1  LIG1        0.0198
     22 C           2.9750   -0.0130    0.0000 C.3     1  LIG1        0.1098
     23 C           2.9750    0.9750    0.0000 C.3     1  LIG1        0.1268
     24 C           3.8330    1.4830    0.0000 C.1     1  LIG1        0.0750
     25 N           4.6920    1.9920    0.0000 N.1     1  LIG1       -0.1958
     26 O           1.2580    1.0040    0.0000 O.2     1  LIG1       -0.2700
     27 C           0.3830   -1.5500    0.0000 C.ar    1  LIG1        0.0141
     28 C          -0.4960   -2.0290    0.0000 C.ar    1  LIG1        0.0577
     29 C          -1.3460   -1.5500    0.0000 C.ar    1  LIG1        0.0095
     30 C          -1.3460   -0.5330    0.0000 C.ar    1  LIG1       -0.0228
     31 CL         -0.4960   -3.0380    0.0000 Cl      1  LIG1       -0.0822
     32 O          -1.8830    0.6040    0.0000 O.2     1  LIG1       -0.1841
     33 O          -0.8420    2.3630    0.0000 O.2     1  LIG1       -0.1841
@<TRIPOS>BOND
     1     1     2    1
     2     1    11    1
     3     1    32    2
     4     1    33    2
     5     2     3   ar
     6     2    10   ar
     7     3     4   ar
     8     3     7   ar
     9     4     5   ar
    10     5     6   ar
    11     6     7   ar
    12     7     8   ar
    13     8     9   ar
    14     9    10   ar
    15    11    12    1
    16    12    13   ar
    17    12    30   ar
    18    13    14    1
    19    13    27   ar
    20    14    15   am
    21    14    26    2
    22    15    16    1
    23    15    22    1
    24    16    17    1
    25    16    21    1
    26    17    18    1
    27    18    19    1
    28    19    20    1
    29    20    21    1
    30    22    23    1
    31    23    24    1
    32    24    25    3
    33    27    28   ar
    34    28    29   ar
    35    28    31    1
    36    29    30   ar
