@<TRIPOS>MOLECULE
24364_ChemDiv_0075-0018
 32 36 0 0 0
SMALL
GASTEIGER
Energy = 0

@<TRIPOS>ATOM
      1 S          -0.4710   -2.2460    0.0000 S.O2    1  LIG1       -0.0563
      2 C          -1.3630   -1.7830    0.0000 C.ar    1  LIG1        0.1090
      3 C          -2.2380   -2.2670    0.0000 C.ar    1  LIG1        0.1244
      4 N          -2.4500   -3.2580    0.0000 N.ar    1  LIG1       -0.1889
      5 S          -3.4290   -3.3710    0.0000 S.2     1  LIG1        0.1165
      6 N          -3.8380   -2.4790    0.0000 N.ar    1  LIG1       -0.1901
      7 C          -3.0920   -1.7830    0.0000 C.ar    1  LIG1        0.1101
      8 C          -3.1080   -0.7920    0.0000 C.ar    1  LIG1        0.0214
      9 C          -2.2380   -0.3000    0.0000 C.ar    1  LIG1        0.0029
     10 C          -1.3630   -0.7920    0.0000 C.ar    1  LIG1        0.0186
     11 N           0.4290   -2.7420    0.0000 N.pl3   1  LIG1       -0.5356
     12 C           1.3040   -2.2080    0.0000 C.ar    1  LIG1       -0.1078
     13 C           1.2540   -1.1920    0.0000 C.ar    1  LIG1        0.0342
     14 C           0.3790   -0.6790    0.0000 C.2     1  LIG1        0.2673
     15 N           0.3790    0.3330    0.0000 N.am    1  LIG1       -0.1739
     16 C          -0.4710    0.8170    0.0000 C.ar    1  LIG1        0.0934
     17 C          -0.4920    1.8080    0.0000 C.ar    1  LIG1        0.1241
     18 N           0.2540    2.5040    0.0000 N.ar    1  LIG1       -0.1888
     19 S          -0.1540    3.3750    0.0000 S.2     1  LIG1        0.1166
     20 N          -1.1460    3.2880    0.0000 N.ar    1  LIG1       -0.1901
     21 C          -1.3460    2.3040    0.0000 C.ar    1  LIG1        0.1101
     22 C          -2.2170    1.8080    0.0000 C.ar    1  LIG1        0.0214
     23 C          -2.2000    0.8170    0.0000 C.ar    1  LIG1        0.0030
     24 C          -1.3460    0.3330    0.0000 C.ar    1  LIG1        0.0183
     25 O          -0.4920   -1.1750    0.0000 O.2     1  LIG1       -0.2681
     26 C           2.1080   -0.6790    0.0000 C.ar    1  LIG1        0.0141
     27 C           2.9830   -1.1750    0.0000 C.ar    1  LIG1        0.0577
     28 C           3.0290   -2.1580    0.0000 C.ar    1  LIG1        0.0095
     29 C           2.1750   -2.6750    0.0000 C.ar    1  LIG1       -0.0228
     30 CL          3.8330   -0.6290    0.0000 Cl      1  LIG1       -0.0822
     31 O           0.0080   -1.3540    0.0000 O.2     1  LIG1       -0.1841
     32 O          -0.9630   -3.1380    0.0000 O.2     1  LIG1       -0.1841
@<TRIPOS>BOND
     1     1     2    1
     2     1    11    1
     3     1    31    2
     4     1    32    2
     5     2     3   ar
     6     2    10   ar
     7     3     4   ar
     8     3     7   ar
     9     4     5   ar
    10     5     6   ar
    11     6     7   ar
    12     7     8   ar
    13     8     9   ar
    14     9    10   ar
    15    11    12    1
    16    12    13   ar
    17    12    29   ar
    18    13    14    1
    19    13    26   ar
    20    14    15   am
    21    14    25    2
    22    15    16    1
    23    16    17   ar
    24    16    24   ar
    25    17    18   ar
    26    17    21   ar
    27    18    19   ar
    28    19    20   ar
    29    20    21   ar
    30    21    22   ar
    31    22    23   ar
    32    23    24   ar
    33    26    27   ar
    34    27    28   ar
    35    27    30    1
    36    28    29   ar
