@<TRIPOS>MOLECULE
24362_ChemDiv_0074-0031
 16 16 0 0 0
SMALL
GASTEIGER
Energy = 0

@<TRIPOS>ATOM
      1 N          -0.8670    0.2670    0.0000 N.ar    1  LIG1       -0.2323
      2 C          -1.7330    0.7630    0.0000 C.ar    1  LIG1        0.1568
      3 C          -2.6210    0.2670    0.0000 C.2     1  LIG1        0.3591
      4 O          -3.4630    0.7630    0.0000 O.2     1  LIG1       -0.2432
      5 O          -2.6210   -0.7630    0.0000 O.3     1  LIG1       -0.4444
      6 C          -3.4630   -1.2580    0.0000 C.3     1  LIG1        0.2089
      7 C          -3.4630   -2.2540    0.0000 C.3     1  LIG1        0.0513
      8 C          -1.7580    1.7580    0.0000 C.ar    1  LIG1        0.0258
      9 C          -0.8670    2.2580    0.0000 C.ar    1  LIG1        0.0035
     10 C          -0.0250    1.7580    0.0000 C.ar    1  LIG1        0.0258
     11 C          -0.0250    0.7630    0.0000 C.ar    1  LIG1        0.1568
     12 C           0.8630    0.2670    0.0000 C.2     1  LIG1        0.3591
     13 O           0.8630   -0.7630    0.0000 O.2     1  LIG1       -0.2432
     14 O           1.7290    0.7630    0.0000 O.3     1  LIG1       -0.4444
     15 C           2.5960    0.2670    0.0000 C.3     1  LIG1        0.2089
     16 C           3.4580    0.7630    0.0000 C.3     1  LIG1        0.0513
@<TRIPOS>BOND
     1     1     2   ar
     2     1    11   ar
     3     2     3    1
     4     2     8   ar
     5     3     4    2
     6     3     5    1
     7     5     6    1
     8     6     7    1
     9     8     9   ar
    10     9    10   ar
    11    10    11   ar
    12    11    12    1
    13    12    13    2
    14    12    14    1
    15    14    15    1
    16    15    16    1
