@<TRIPOS>MOLECULE
24365_ChemDiv_8008-9355
 34 38 0 0 0
SMALL
GASTEIGER
Energy = 0

@<TRIPOS>ATOM
      1 C          -1.1710    0.4080    0.0000 C.ar    1  LIG1        0.1658
      2 N          -2.1080    0.0830    0.0000 N.ar    1  LIG1       -0.3072
      3 C          -2.6880    0.9040    0.0000 C.ar    1  LIG1        0.0629
      4 C          -2.1080    1.7210    0.0000 C.ar    1  LIG1        0.0382
      5 C          -1.1710    1.3960    0.0000 C.ar    1  LIG1        0.1383
      6 N          -0.2960    1.8960    0.0000 N.ar    1  LIG1       -0.1429
      7 N           0.5790    1.3960    0.0000 N.ar    1  LIG1       -0.1217
      8 C           0.5790    0.4080    0.0000 C.ar    1  LIG1        0.2123
      9 N          -0.2960   -0.0920    0.0000 N.ar    1  LIG1       -0.2008
     10 S           1.4540   -0.0920    0.0000 S.3     1  LIG1       -0.0641
     11 C           1.4540   -1.0630    0.0000 C.3     1  LIG1        0.1520
     12 C           2.3290   -1.6000    0.0000 C.2     1  LIG1        0.2570
     13 N           3.2040   -1.0750    0.0000 N.am    1  LIG1       -0.1785
     14 C           3.2040   -0.0920    0.0000 C.ar    1  LIG1        0.0734
     15 C           4.1080    0.4080    0.0000 C.ar    1  LIG1        0.0167
     16 C           4.1080    1.3960    0.0000 C.ar    1  LIG1        0.0042
     17 C           3.2330    1.8960    0.0000 C.ar    1  LIG1        0.0348
     18 C           3.2330    2.8880    0.0000 C.2     1  LIG1        0.1735
     19 O           2.3710    3.3540    0.0000 O.2     1  LIG1       -0.2913
     20 C           4.0960    3.3540    0.0000 C.3     1  LIG1        0.0773
     21 C           2.3540    1.3960    0.0000 C.ar    1  LIG1        0.0042
     22 C           2.3540    0.4080    0.0000 C.ar    1  LIG1        0.0167
     23 O           2.3290   -2.5920    0.0000 O.2     1  LIG1       -0.2720
     24 C          -2.5380    2.6250    0.0000 C.ar    1  LIG1        0.0031
     25 C          -3.5290    2.7130    0.0000 C.ar    1  LIG1        0.0001
     26 C          -4.1130    1.8960    0.0000 C.ar    1  LIG1        0.0015
     27 C          -3.6790    0.9920    0.0000 C.ar    1  LIG1        0.0173
     28 C          -2.4580   -0.8750    0.0000 C.3     1  LIG1        0.1342
     29 C          -1.7880   -1.6630    0.0000 C.ar    1  LIG1        0.0004
     30 C          -0.7920   -1.4580    0.0000 C.ar    1  LIG1       -0.0024
     31 C          -0.1540   -2.2170    0.0000 C.ar    1  LIG1       -0.0003
     32 C          -0.4750   -3.1460    0.0000 C.ar    1  LIG1       -0.0000
     33 C          -1.4330   -3.3500    0.0000 C.ar    1  LIG1       -0.0003
     34 C          -2.1080   -2.5920    0.0000 C.ar    1  LIG1       -0.0024
@<TRIPOS>BOND
     1     1     2   ar
     2     1     5   ar
     3     1     9   ar
     4     2     3   ar
     5     2    28    1
     6     3     4   ar
     7     3    27   ar
     8     4     5   ar
     9     4    24   ar
    10     5     6   ar
    11     6     7   ar
    12     7     8   ar
    13     8     9   ar
    14     8    10    1
    15    10    11    1
    16    11    12    1
    17    12    13   am
    18    12    23    2
    19    13    14    1
    20    14    15   ar
    21    14    22   ar
    22    15    16   ar
    23    16    17   ar
    24    17    18    1
    25    17    21   ar
    26    18    19    2
    27    18    20    1
    28    21    22   ar
    29    24    25   ar
    30    25    26   ar
    31    26    27   ar
    32    28    29    1
    33    29    30   ar
    34    29    34   ar
    35    30    31   ar
    36    31    32   ar
    37    32    33   ar
    38    33    34   ar
