@<TRIPOS>MOLECULE
24368_ChemDiv_3174-0504
 21 23 0 0 0
SMALL
GASTEIGER
Energy = 0

@<TRIPOS>ATOM
      1 S           0.0830    0.7420    0.0000 S.O2    1  LIG1       -0.0577
      2 N           0.9130    0.2580    0.0000 N.pl3   1  LIG1       -0.5348
      3 C           0.9130   -0.7420    0.0000 C.ar    1  LIG1       -0.0960
      4 C           1.7830   -1.2540    0.0000 C.ar    1  LIG1        0.0865
      5 C           1.7830   -2.2540    0.0000 C.ar    1  LIG1        0.1070
      6 N           2.7500   -2.5710    0.0000 N.ar    1  LIG1       -0.1902
      7 S           3.3330   -1.7580    0.0000 S.2     1  LIG1        0.1165
      8 N           2.7500   -0.9420    0.0000 N.ar    1  LIG1       -0.1920
      9 C           0.9130   -2.7580    0.0000 C.ar    1  LIG1        0.0209
     10 C           0.0630   -2.2540    0.0000 C.ar    1  LIG1       -0.0044
     11 C           0.0630   -1.2540    0.0000 C.ar    1  LIG1       -0.0424
     12 C          -0.8210   -0.7580    0.0000 C.3     1  LIG1        0.0292
     13 C          -0.7830    1.2420    0.0000 C.ar    1  LIG1        0.0893
     14 C          -0.7670    2.2420    0.0000 C.ar    1  LIG1        0.0166
     15 C          -1.6040    2.7460    0.0000 C.ar    1  LIG1       -0.0030
     16 C          -2.4880    2.2580    0.0000 C.ar    1  LIG1       -0.0218
     17 C          -2.4880    1.2580    0.0000 C.ar    1  LIG1       -0.0030
     18 C          -1.6330    0.7460    0.0000 C.ar    1  LIG1        0.0166
     19 C          -3.3380    2.7630    0.0000 C.3     1  LIG1        0.0310
     20 O           0.5790    1.6290    0.0000 O.2     1  LIG1       -0.1842
     21 O          -0.4330   -0.1420    0.0000 O.2     1  LIG1       -0.1842
@<TRIPOS>BOND
     1     1     2    1
     2     1    13    1
     3     1    20    2
     4     1    21    2
     5     2     3    1
     6     3     4   ar
     7     3    11   ar
     8     4     5   ar
     9     4     8   ar
    10     5     6   ar
    11     5     9   ar
    12     6     7   ar
    13     7     8   ar
    14     9    10   ar
    15    10    11   ar
    16    11    12    1
    17    13    14   ar
    18    13    18   ar
    19    14    15   ar
    20    15    16   ar
    21    16    17   ar
    22    16    19    1
    23    17    18   ar
