@<TRIPOS>MOLECULE
24367_ChemDiv_8009-1544
 37 41 0 0 0
SMALL
GASTEIGER
Energy = 0

@<TRIPOS>ATOM
      1 C          -0.5500   -0.2130    0.0000 C.ar    1  LIG1        0.1658
      2 N          -1.4880   -0.5130    0.0000 N.ar    1  LIG1       -0.3072
      3 C          -2.0500    0.2880    0.0000 C.ar    1  LIG1        0.0629
      4 C          -1.4880    1.1130    0.0000 C.ar    1  LIG1        0.0382
      5 C          -0.5500    0.7880    0.0000 C.ar    1  LIG1        0.1383
      6 N           0.3380    1.2920    0.0000 N.ar    1  LIG1       -0.1429
      7 N           1.1960    0.8000    0.0000 N.ar    1  LIG1       -0.1217
      8 C           1.1960   -0.2130    0.0000 C.ar    1  LIG1        0.2122
      9 N           0.3380   -0.7130    0.0000 N.ar    1  LIG1       -0.2008
     10 S           2.1250   -0.7130    0.0000 S.3     1  LIG1       -0.0655
     11 C           2.1130   -1.7170    0.0000 C.3     1  LIG1        0.1329
     12 C           2.9710   -2.2170    0.0000 C.2     1  LIG1        0.2556
     13 N           3.8250   -1.7170    0.0000 N.am    1  LIG1       -0.1785
     14 C           3.8250   -0.7250    0.0000 C.ar    1  LIG1        0.0735
     15 C           4.7000   -0.2330    0.0000 C.ar    1  LIG1        0.0180
     16 C           4.7000    0.7420    0.0000 C.ar    1  LIG1        0.0213
     17 C           3.8250    1.2380    0.0000 C.ar    1  LIG1        0.1251
     18 S           3.8250    2.2210    0.0000 S.O2    1  LIG1        0.0935
     19 O           2.7750    2.2210    0.0000 O.2     1  LIG1       -0.1503
     20 O           4.7670    2.2210    0.0000 O.2     1  LIG1       -0.1503
     21 N           3.8420    3.2290    0.0000 N.3     1  LIG1        0.0392
     22 C           2.9540    0.7420    0.0000 C.ar    1  LIG1        0.0213
     23 C           2.9540   -0.2330    0.0000 C.ar    1  LIG1        0.0180
     24 O           2.9710   -3.2250    0.0000 O.2     1  LIG1       -0.2721
     25 C           1.2540   -2.2040    0.0000 C.3     1  LIG1        0.0205
     26 C           0.3960   -1.7040    0.0000 C.3     1  LIG1        0.0014
     27 C          -1.9040    2.0330    0.0000 C.ar    1  LIG1        0.0031
     28 C          -2.8790    2.1210    0.0000 C.ar    1  LIG1        0.0001
     29 C          -3.5000    1.2920    0.0000 C.ar    1  LIG1        0.0015
     30 C          -3.0580    0.3790    0.0000 C.ar    1  LIG1        0.0173
     31 C          -1.8170   -1.4790    0.0000 C.3     1  LIG1        0.1342
     32 C          -2.8170   -1.6880    0.0000 C.ar    1  LIG1        0.0004
     33 C          -3.4710   -0.9170    0.0000 C.ar    1  LIG1       -0.0024
     34 C          -4.4420   -1.1000    0.0000 C.ar    1  LIG1       -0.0003
     35 C          -4.7710   -2.0130    0.0000 C.ar    1  LIG1       -0.0000
     36 C          -4.1210   -2.7830    0.0000 C.ar    1  LIG1       -0.0003
     37 C          -3.1460   -2.6040    0.0000 C.ar    1  LIG1       -0.0024
@<TRIPOS>BOND
     1     1     2   ar
     2     1     5   ar
     3     1     9   ar
     4     2     3   ar
     5     2    31    1
     6     3     4   ar
     7     3    30   ar
     8     4     5   ar
     9     4    27   ar
    10     5     6   ar
    11     6     7   ar
    12     7     8   ar
    13     8     9   ar
    14     8    10    1
    15    10    11    1
    16    11    12    1
    17    11    25    1
    18    12    13   am
    19    12    24    2
    20    13    14    1
    21    14    15   ar
    22    14    23   ar
    23    15    16   ar
    24    16    17   ar
    25    17    18    1
    26    17    22   ar
    27    18    19    2
    28    18    20    2
    29    18    21    1
    30    22    23   ar
    31    25    26    1
    32    27    28   ar
    33    28    29   ar
    34    29    30   ar
    35    31    32    1
    36    32    33   ar
    37    32    37   ar
    38    33    34   ar
    39    34    35   ar
    40    35    36   ar
    41    36    37   ar
