@<TRIPOS>MOLECULE
24375_ChemDiv_0407-0054
 20 22 0 0 0
SMALL
GASTEIGER
Energy = 0

@<TRIPOS>ATOM
      1 C          -0.4630   -0.1380    0.0000 C.ar    1  LIG1        0.2047
      2 C          -1.3330    0.3380    0.0000 C.ar    1  LIG1        0.1126
      3 C          -1.3330    1.3330    0.0000 C.ar    1  LIG1        0.1548
      4 O          -0.4630    1.8380    0.0000 O.2     1  LIG1       -0.4500
      5 C           0.3750    1.3330    0.0000 C.ar    1  LIG1        0.1826
      6 C           0.3750    0.3380    0.0000 C.ar    1  LIG1        0.0767
      7 C           1.2210   -0.1710    0.0000 C.ar    1  LIG1        0.0064
      8 C           1.2040   -1.1790    0.0000 C.ar    1  LIG1        0.0035
      9 C           2.0580   -1.7040    0.0000 C.ar    1  LIG1        0.0420
     10 C           2.9170   -1.2080    0.0000 C.ar    1  LIG1        0.1957
     11 C           2.9500   -0.2000    0.0000 C.ar    1  LIG1        0.0420
     12 C           2.0920    0.3130    0.0000 C.ar    1  LIG1        0.0035
     13 O           3.8830   -1.8670    0.0000 O.3     1  LIG1       -0.2866
     14 C          -2.1790    1.8380    0.0000 C.ar    1  LIG1        0.0798
     15 C          -3.0170    1.3330    0.0000 C.ar    1  LIG1        0.2020
     16 C          -3.0170    0.3380    0.0000 C.ar    1  LIG1        0.0843
     17 C          -2.1790   -0.1380    0.0000 C.ar    1  LIG1        0.2049
     18 O          -2.2040   -1.1330    0.0000 O.3     1  LIG1       -0.2862
     19 O          -3.8880    1.8710    0.0000 O.3     1  LIG1       -0.2864
     20 O          -0.4290   -1.1330    0.0000 O.2     1  LIG1       -0.2862
@<TRIPOS>BOND
     1     1     2   ar
     2     1     6   ar
     3     1    20    2
     4     2     3   ar
     5     2    17   ar
     6     3     4   ar
     7     3    14   ar
     8     4     5   ar
     9     5     6   ar
    10     6     7    1
    11     7     8   ar
    12     7    12   ar
    13     8     9   ar
    14     9    10   ar
    15    10    11   ar
    16    10    13    1
    17    11    12   ar
    18    14    15   ar
    19    15    16   ar
    20    15    19    1
    21    16    17   ar
    22    17    18    1
