@<TRIPOS>MOLECULE
24373_ChemDiv_0407-0050
 21 23 0 0 0
SMALL
GASTEIGER
Energy = 0

@<TRIPOS>ATOM
      1 C          -1.3080   -0.7580    0.0000 C.ar    1  LIG1        0.1126
      2 C          -0.4540   -1.2420    0.0000 C.ar    1  LIG1        0.2048
      3 C           0.3920   -0.7580    0.0000 C.ar    1  LIG1        0.0797
      4 C           0.3920    0.2460    0.0000 C.ar    1  LIG1        0.1485
      5 O          -0.4540    0.7580    0.0000 O.2     1  LIG1       -0.4531
      6 C          -1.3080    0.2460    0.0000 C.ar    1  LIG1        0.1546
      7 C          -2.1880    0.7580    0.0000 C.ar    1  LIG1        0.0798
      8 C          -3.0330    0.2460    0.0000 C.ar    1  LIG1        0.2020
      9 C          -3.0330   -0.7580    0.0000 C.ar    1  LIG1        0.0843
     10 C          -2.1880   -1.2420    0.0000 C.ar    1  LIG1        0.2049
     11 O          -2.2170   -2.2460    0.0000 O.3     1  LIG1       -0.2862
     12 O          -3.8880    0.7880    0.0000 O.3     1  LIG1       -0.2864
     13 C           1.2710    0.7580    0.0000 C.ar    1  LIG1        0.0381
     14 C           2.1500    0.2460    0.0000 C.ar    1  LIG1        0.0484
     15 C           3.0040    0.7580    0.0000 C.ar    1  LIG1        0.2344
     16 C           3.0040    1.7330    0.0000 C.ar    1  LIG1        0.2343
     17 C           2.1500    2.2500    0.0000 C.ar    1  LIG1        0.0455
     18 C           1.2710    1.7330    0.0000 C.ar    1  LIG1        0.0065
     19 O           3.8830    2.2500    0.0000 O.3     1  LIG1       -0.2831
     20 O           3.8830    0.2460    0.0000 O.3     1  LIG1       -0.2831
     21 O          -0.4290   -2.2460    0.0000 O.2     1  LIG1       -0.2862
@<TRIPOS>BOND
     1     1     2   ar
     2     1     6   ar
     3     1    10   ar
     4     2     3   ar
     5     2    21    2
     6     3     4   ar
     7     4     5   ar
     8     4    13    1
     9     5     6   ar
    10     6     7   ar
    11     7     8   ar
    12     8     9   ar
    13     8    12    1
    14     9    10   ar
    15    10    11    1
    16    13    14   ar
    17    13    18   ar
    18    14    15   ar
    19    15    16   ar
    20    15    20    1
    21    16    17   ar
    22    16    19    1
    23    17    18   ar
