@<TRIPOS>MOLECULE
24371_ChemDiv_000A-0929
 19 21 0 0 0
SMALL
GASTEIGER
Energy = 0

@<TRIPOS>ATOM
      1 C          -0.8670   -1.7380    0.0000 C.ar    1  LIG1        0.3457
      2 O          -0.0040   -1.2630    0.0000 O.2     1  LIG1       -0.4210
      3 C          -0.0040   -0.2500    0.0000 C.ar    1  LIG1        0.1487
      4 C          -0.8670    0.2540    0.0000 C.ar    1  LIG1        0.0378
      5 C          -1.7330   -0.2500    0.0000 C.ar    1  LIG1        0.0093
      6 C          -1.7330   -1.2630    0.0000 C.ar    1  LIG1        0.0761
      7 C          -2.6000   -1.7380    0.0000 C.ar    1  LIG1        0.0065
      8 C          -3.4630   -1.2630    0.0000 C.ar    1  LIG1        0.0002
      9 C          -3.4630   -0.2500    0.0000 C.ar    1  LIG1        0.0000
     10 C          -2.6000    0.2540    0.0000 C.ar    1  LIG1        0.0003
     11 C           0.8630    0.2540    0.0000 C.ar    1  LIG1        0.0349
     12 C           0.8630    1.2380    0.0000 C.ar    1  LIG1        0.0061
     13 C           1.7250    1.7420    0.0000 C.ar    1  LIG1        0.0370
     14 C           2.5920    1.2380    0.0000 C.ar    1  LIG1        0.1387
     15 C           2.5920    0.2540    0.0000 C.ar    1  LIG1        0.0370
     16 C           1.7250   -0.2500    0.0000 C.ar    1  LIG1        0.0061
     17 O           3.4580    1.7420    0.0000 O.3     1  LIG1       -0.4714
     18 C           3.4580    2.7540    0.0000 C.3     1  LIG1        0.2525
     19 O          -0.8670   -2.7500    0.0000 O.2     1  LIG1       -0.2445
@<TRIPOS>BOND
     1     1     2   ar
     2     1     6   ar
     3     1    19    2
     4     2     3   ar
     5     3     4   ar
     6     3    11    1
     7     4     5   ar
     8     5     6   ar
     9     5    10   ar
    10     6     7   ar
    11     7     8   ar
    12     8     9   ar
    13     9    10   ar
    14    11    12   ar
    15    11    16   ar
    16    12    13   ar
    17    13    14   ar
    18    14    15   ar
    19    14    17    1
    20    15    16   ar
    21    17    18    1
