@<TRIPOS>MOLECULE
24378_ChemDiv_K623-0769
 38 43 0 0 0
SMALL
GASTEIGER
Energy = 0

@<TRIPOS>ATOM
      1 N          -4.2420   -0.7250    0.0000 N.ar    1  LIG1       -0.2991
      2 C          -4.2210    0.2710    0.0000 C.ar    1  LIG1        0.0411
      3 C          -3.3460    0.7750    0.0000 C.3     1  LIG1        0.0583
      4 C          -2.4750    1.2540    0.0000 C.3     1  LIG1        0.0966
      5 N          -1.6330    0.7420    0.0000 N.pl3   1  LIG1       -0.3060
      6 C          -0.7630    1.2290    0.0000 C.ar    1  LIG1        0.0634
      7 C           0.1290    0.7250    0.0000 C.ar    1  LIG1        0.0871
      8 N           0.1290   -0.2540    0.0000 N.am    1  LIG1       -0.1742
      9 C           1.0040   -0.7580    0.0000 C.2     1  LIG1        0.2691
     10 O           1.8630   -0.2420    0.0000 O.2     1  LIG1       -0.2680
     11 C           1.0210   -1.7500    0.0000 C.ar    1  LIG1        0.0585
     12 C           1.9000   -2.2420    0.0000 C.ar    1  LIG1        0.0253
     13 C           1.9000   -3.2330    0.0000 C.ar    1  LIG1        0.0990
     14 N           1.0460   -3.7460    0.0000 N.ar    1  LIG1       -0.2423
     15 C           0.1750   -3.2750    0.0000 C.ar    1  LIG1        0.0990
     16 C           0.1630   -2.2630    0.0000 C.ar    1  LIG1        0.0253
     17 C           0.9880    1.2290    0.0000 C.ar    1  LIG1        0.0224
     18 C           0.9880    2.2460    0.0000 C.ar    1  LIG1        0.0564
     19 C           1.8630    2.7540    0.0000 C.2     1  LIG1        0.2652
     20 N           2.7330    2.2380    0.0000 N.am    1  LIG1       -0.1934
     21 C           3.5960    2.7380    0.0000 C.3     1  LIG1        0.1794
     22 C           4.4540    2.2380    0.0000 C.ar    1  LIG1        0.1449
     23 O           5.4000    2.5420    0.0000 O.2     1  LIG1       -0.4529
     24 C           5.9710    1.7250    0.0000 C.ar    1  LIG1        0.1792
     25 C           5.4000    0.9250    0.0000 C.ar    1  LIG1        0.0435
     26 C           4.4460    1.2290    0.0000 C.ar    1  LIG1        0.0380
     27 O           1.8630    3.7500    0.0000 O.2     1  LIG1       -0.2684
     28 C           0.1080    2.7380    0.0000 C.ar    1  LIG1        0.0059
     29 C          -0.7630    2.2380    0.0000 C.ar    1  LIG1        0.0160
     30 C          -1.6330   -0.2540    0.0000 C.3     1  LIG1        0.0927
     31 C          -2.5170   -0.7580    0.0000 C.3     1  LIG1        0.0429
     32 C          -3.3750   -1.2210    0.0000 C.3     1  LIG1        0.1104
     33 C          -3.3500   -0.2290    0.0000 C.3     1  LIG1        0.0112
     34 C          -5.0830    0.7830    0.0000 C.ar    1  LIG1        0.0130
     35 C          -5.9710    0.3040    0.0000 C.ar    1  LIG1        0.0060
     36 C          -5.9750   -0.7000    0.0000 C.ar    1  LIG1        0.0608
     37 C          -5.1170   -1.2130    0.0000 C.ar    1  LIG1        0.2607
     38 O          -5.1420   -2.2080    0.0000 O.2     1  LIG1       -0.2670
@<TRIPOS>BOND
     1     1     2   ar
     2     1    32    1
     3     1    37   ar
     4     2     3    1
     5     2    34   ar
     6     3     4    1
     7     3    33    1
     8     4     5    1
     9     5     6    1
    10     5    30    1
    11     6     7   ar
    12     6    29   ar
    13     7     8    1
    14     7    17   ar
    15     8     9   am
    16     9    10    2
    17     9    11    1
    18    11    12   ar
    19    11    16   ar
    20    12    13   ar
    21    13    14   ar
    22    14    15   ar
    23    15    16   ar
    24    17    18   ar
    25    18    19    1
    26    18    28   ar
    27    19    20   am
    28    19    27    2
    29    20    21    1
    30    21    22    1
    31    22    23   ar
    32    22    26   ar
    33    23    24   ar
    34    24    25   ar
    35    25    26   ar
    36    28    29   ar
    37    30    31    1
    38    31    32    1
    39    31    33    1
    40    34    35   ar
    41    35    36   ar
    42    36    37   ar
    43    37    38    2
