@<TRIPOS>MOLECULE
24387_ChemDiv_8009-9742
 32 35 0 0 0
SMALL
GASTEIGER
Energy = 0

@<TRIPOS>ATOM
      1 C           2.2540   -0.0330    0.0000 C.ar    1  LIG1        0.1656
      2 C           2.2540    0.9080    0.0000 C.ar    1  LIG1        0.1383
      3 C           3.9210    0.9080    0.0000 C.ar    1  LIG1        0.0387
      4 C           3.9210   -0.0330    0.0000 C.ar    1  LIG1        0.0627
      5 N           3.0880   -0.5080    0.0000 N.ar    1  LIG1       -0.3094
      6 C           3.0880   -1.4880    0.0000 C.3     1  LIG1        0.1319
      7 C           4.7420   -0.5080    0.0000 C.ar    1  LIG1        0.0178
      8 C           5.5670   -0.0330    0.0000 C.ar    1  LIG1        0.0082
      9 C           5.5670    0.9080    0.0000 C.ar    1  LIG1        0.0347
     10 C           4.7420    1.3750    0.0000 C.ar    1  LIG1        0.0098
     11 BR          6.4420    1.3920    0.0000 Br      1  LIG1       -0.0490
     12 N           1.4330    1.3750    0.0000 N.ar    1  LIG1       -0.1429
     13 N           0.6000    0.9080    0.0000 N.ar    1  LIG1       -0.1217
     14 C           0.6000   -0.0330    0.0000 C.ar    1  LIG1        0.2122
     15 N           1.4330   -0.5080    0.0000 N.ar    1  LIG1       -0.2008
     16 S          -0.2670   -0.5170    0.0000 S.3     1  LIG1       -0.0655
     17 C          -1.1000   -0.0170    0.0000 C.3     1  LIG1        0.1329
     18 C          -1.1000    0.9630    0.0000 C.2     1  LIG1        0.2556
     19 N          -1.9580    1.4920    0.0000 N.am    1  LIG1       -0.1785
     20 C          -2.8790    0.9630    0.0000 C.ar    1  LIG1        0.0735
     21 C          -2.8790   -0.0330    0.0000 C.ar    1  LIG1        0.0180
     22 C          -3.7830   -0.5580    0.0000 C.ar    1  LIG1        0.0213
     23 C          -4.6670   -0.0330    0.0000 C.ar    1  LIG1        0.1251
     24 S          -5.5290   -0.5080    0.0000 S.O2    1  LIG1        0.0935
     25 O          -5.0880   -1.3580    0.0000 O.2     1  LIG1       -0.1503
     26 O          -6.0000    0.3790    0.0000 O.2     1  LIG1       -0.1503
     27 N          -6.4420   -0.9750    0.0000 N.3     1  LIG1        0.0392
     28 C          -4.6670    0.9630    0.0000 C.ar    1  LIG1        0.0213
     29 C          -3.7830    1.4920    0.0000 C.ar    1  LIG1        0.0180
     30 O          -0.2500    1.4250    0.0000 O.2     1  LIG1       -0.2721
     31 C          -1.9500   -0.5080    0.0000 C.3     1  LIG1        0.0205
     32 C          -1.9500   -1.4880    0.0000 C.3     1  LIG1        0.0014
@<TRIPOS>BOND
     1     1     2   ar
     2     1     5   ar
     3     1    15   ar
     4     2     3   ar
     5     2    12   ar
     6     3     4   ar
     7     3    10   ar
     8     4     5   ar
     9     4     7   ar
    10     5     6    1
    11     7     8   ar
    12     8     9   ar
    13     9    10   ar
    14     9    11    1
    15    12    13   ar
    16    13    14   ar
    17    14    15   ar
    18    14    16    1
    19    16    17    1
    20    17    18    1
    21    17    31    1
    22    18    19   am
    23    18    30    2
    24    19    20    1
    25    20    21   ar
    26    20    29   ar
    27    21    22   ar
    28    22    23   ar
    29    23    24    1
    30    23    28   ar
    31    24    25    2
    32    24    26    2
    33    24    27    1
    34    28    29   ar
    35    31    32    1
