@<TRIPOS>MOLECULE
24383_ChemDiv_3406-0373
 14 15 0 0 0
SMALL
GASTEIGER
Energy = 0

@<TRIPOS>ATOM
      1 C           0.4330    0.2630    0.0000 C.ar    1  LIG1        0.1487
      2 O           1.2920   -0.2210    0.0000 O.2     1  LIG1       -0.4210
      3 C           2.1710    0.2630    0.0000 C.ar    1  LIG1        0.3459
      4 C           2.1710    1.2580    0.0000 C.ar    1  LIG1        0.0824
      5 C           1.2920    1.7420    0.0000 C.ar    1  LIG1        0.0098
      6 C           0.4540    1.2920    0.0000 C.ar    1  LIG1        0.0378
      7 O           3.0460   -0.2580    0.0000 O.2     1  LIG1       -0.2445
      8 C          -0.4250   -0.2210    0.0000 C.ar    1  LIG1        0.0347
      9 C          -0.4250   -1.2210    0.0000 C.ar    1  LIG1        0.0035
     10 C          -1.2830   -1.7380    0.0000 C.ar    1  LIG1        0.0068
     11 C          -2.1670   -1.2210    0.0000 C.ar    1  LIG1        0.0346
     12 C          -2.1420   -0.2210    0.0000 C.ar    1  LIG1        0.0068
     13 C          -1.2830    0.2920    0.0000 C.ar    1  LIG1        0.0035
     14 BR         -3.0500   -1.7040    0.0000 Br      1  LIG1       -0.0490
@<TRIPOS>BOND
     1     1     2   ar
     2     1     6   ar
     3     1     8    1
     4     2     3   ar
     5     3     4   ar
     6     3     7    2
     7     4     5   ar
     8     5     6   ar
     9     8     9   ar
    10     8    13   ar
    11     9    10   ar
    12    10    11   ar
    13    11    12   ar
    14    11    14    1
    15    12    13   ar
