@<TRIPOS>MOLECULE
24386_ChemDiv_4049-0488
 23 25 0 0 0
SMALL
GASTEIGER
Energy = 0

@<TRIPOS>ATOM
      1 S           0.4580    0.7130    0.0000 S.O2    1  LIG1       -0.0563
      2 C           1.2920    1.2330    0.0000 C.ar    1  LIG1        0.1090
      3 C           1.2580    2.2460    0.0000 C.ar    1  LIG1        0.1244
      4 N           0.4920    2.8710    0.0000 N.ar    1  LIG1       -0.1889
      5 S           0.8540    3.7790    0.0000 S.2     1  LIG1        0.1165
      6 N           1.8710    3.7500    0.0000 N.ar    1  LIG1       -0.1901
      7 C           2.1130    2.7960    0.0000 C.ar    1  LIG1        0.1101
      8 C           2.9920    2.3330    0.0000 C.ar    1  LIG1        0.0214
      9 C           3.0290    1.3080    0.0000 C.ar    1  LIG1        0.0029
     10 C           2.2040    0.8000    0.0000 C.ar    1  LIG1        0.0186
     11 N          -0.4040    0.2250    0.0000 N.pl3   1  LIG1       -0.5360
     12 C          -0.4040   -0.7880    0.0000 C.ar    1  LIG1       -0.1163
     13 C          -1.2830   -1.2750    0.0000 C.ar    1  LIG1       -0.0230
     14 C          -1.2830   -2.2750    0.0000 C.ar    1  LIG1        0.0122
     15 C          -2.1540   -2.7580    0.0000 C.2     1  LIG1        0.0728
     16 O          -3.0330   -2.2460    0.0000 O.co2   1  LIG1       -0.5446
     17 O          -2.1540   -3.7750    0.0000 O.co2   1  LIG1       -0.5446
     18 C          -0.4330   -2.7750    0.0000 C.ar    1  LIG1        0.0007
     19 C           0.4460   -2.2920    0.0000 C.ar    1  LIG1       -0.0060
     20 C           0.4460   -1.2880    0.0000 C.ar    1  LIG1       -0.0439
     21 C           1.3330   -0.8040    0.0000 C.3     1  LIG1        0.0291
     22 O          -0.0580    1.5380    0.0000 O.2     1  LIG1       -0.1841
     23 O           1.0210   -0.1380    0.0000 O.2     1  LIG1       -0.1841
@<TRIPOS>BOND
     1     1     2    1
     2     1    11    1
     3     1    22    2
     4     1    23    2
     5     2     3   ar
     6     2    10   ar
     7     3     4   ar
     8     3     7   ar
     9     4     5   ar
    10     5     6   ar
    11     6     7   ar
    12     7     8   ar
    13     8     9   ar
    14     9    10   ar
    15    11    12    1
    16    12    13   ar
    17    12    20   ar
    18    13    14   ar
    19    14    15    1
    20    14    18   ar
    21    15    16   ar
    22    15    17   ar
    23    18    19   ar
    24    19    20   ar
    25    20    21    1
