@<TRIPOS>MOLECULE
24385_ChemDiv_8009-2475
 32 36 0 0 0
SMALL
GASTEIGER
Energy = 0

@<TRIPOS>ATOM
      1 C          -1.6080    0.7290    0.0000 C.ar    1  LIG1        0.1658
      2 N          -2.5460    0.4130    0.0000 N.ar    1  LIG1       -0.3072
      3 C          -3.1250    1.2250    0.0000 C.ar    1  LIG1        0.0629
      4 C          -2.5460    2.0420    0.0000 C.ar    1  LIG1        0.0382
      5 C          -1.6080    1.7170    0.0000 C.ar    1  LIG1        0.1383
      6 N          -0.7380    2.2130    0.0000 N.ar    1  LIG1       -0.1429
      7 N           0.1420    1.7170    0.0000 N.ar    1  LIG1       -0.1217
      8 C           0.1420    0.7290    0.0000 C.ar    1  LIG1        0.2123
      9 N          -0.7380    0.2420    0.0000 N.ar    1  LIG1       -0.2008
     10 S           1.0130    0.2420    0.0000 S.3     1  LIG1       -0.0641
     11 C           1.0130   -0.7380    0.0000 C.3     1  LIG1        0.1520
     12 C           1.8920   -1.2750    0.0000 C.2     1  LIG1        0.2583
     13 N           2.7630   -0.7500    0.0000 N.am    1  LIG1       -0.1596
     14 C           2.7630    0.2420    0.0000 C.ar    1  LIG1        0.1542
     15 N           1.9170    0.7290    0.0000 N.ar    1  LIG1       -0.2273
     16 C           1.9170    1.7170    0.0000 C.ar    1  LIG1        0.1001
     17 C           2.7960    2.2130    0.0000 C.ar    1  LIG1        0.0165
     18 C           3.6670    1.7170    0.0000 C.ar    1  LIG1       -0.0175
     19 C           3.6670    0.7290    0.0000 C.ar    1  LIG1        0.0320
     20 C           4.5460    2.2130    0.0000 C.3     1  LIG1        0.0312
     21 O           1.8920   -2.2710    0.0000 O.2     1  LIG1       -0.2720
     22 C          -2.9790    2.9420    0.0000 C.ar    1  LIG1        0.0031
     23 C          -3.9670    3.0290    0.0000 C.ar    1  LIG1        0.0001
     24 C          -4.5500    2.2130    0.0000 C.ar    1  LIG1        0.0015
     25 C          -4.1130    1.3130    0.0000 C.ar    1  LIG1        0.0173
     26 C          -2.8920   -0.5500    0.0000 C.3     1  LIG1        0.1342
     27 C          -2.2210   -1.3330    0.0000 C.ar    1  LIG1        0.0004
     28 C          -1.2290   -1.1330    0.0000 C.ar    1  LIG1       -0.0024
     29 C          -0.5920   -1.8920    0.0000 C.ar    1  LIG1       -0.0003
     30 C          -0.9130   -2.8210    0.0000 C.ar    1  LIG1       -0.0000
     31 C          -1.8710   -3.0250    0.0000 C.ar    1  LIG1       -0.0003
     32 C          -2.5460   -2.2710    0.0000 C.ar    1  LIG1       -0.0024
@<TRIPOS>BOND
     1     1     2   ar
     2     1     5   ar
     3     1     9   ar
     4     2     3   ar
     5     2    26    1
     6     3     4   ar
     7     3    25   ar
     8     4     5   ar
     9     4    22   ar
    10     5     6   ar
    11     6     7   ar
    12     7     8   ar
    13     8     9   ar
    14     8    10    1
    15    10    11    1
    16    11    12    1
    17    12    13   am
    18    12    21    2
    19    13    14    1
    20    14    15   ar
    21    14    19   ar
    22    15    16   ar
    23    16    17   ar
    24    17    18   ar
    25    18    19   ar
    26    18    20    1
    27    22    23   ar
    28    23    24   ar
    29    24    25   ar
    30    26    27    1
    31    27    28   ar
    32    27    32   ar
    33    28    29   ar
    34    29    30   ar
    35    30    31   ar
    36    31    32   ar
