@<TRIPOS>MOLECULE
24381_ChemDiv_2188-3365
 25 29 0 0 0
SMALL
GASTEIGER
Energy = 0

@<TRIPOS>ATOM
      1 C          -1.7290    0.2580    0.0000 C.ar    1  LIG1        0.1482
      2 O          -0.8670    0.7580    0.0000 O.2     1  LIG1       -0.4533
      3 C           0.0040    0.2580    0.0000 C.ar    1  LIG1        0.1485
      4 C           0.0040   -0.7420    0.0000 C.ar    1  LIG1        0.0796
      5 C          -0.8670   -1.2290    0.0000 C.ar    1  LIG1        0.2016
      6 C          -1.7290   -0.7420    0.0000 C.ar    1  LIG1        0.0735
      7 C          -2.5920   -1.2290    0.0000 C.ar    1  LIG1        0.0062
      8 C          -3.4630   -0.7420    0.0000 C.ar    1  LIG1        0.0003
      9 C          -3.4630    0.2580    0.0000 C.ar    1  LIG1        0.0029
     10 C          -2.5920    0.7580    0.0000 C.ar    1  LIG1        0.0347
     11 C          -2.5920    1.7580    0.0000 C.ar    1  LIG1        0.0030
     12 C          -3.4630    2.2630    0.0000 C.ar    1  LIG1        0.0001
     13 C          -4.3290    1.7580    0.0000 C.ar    1  LIG1        0.0000
     14 C          -4.3290    0.7580    0.0000 C.ar    1  LIG1        0.0001
     15 O          -0.8670   -2.2580    0.0000 O.2     1  LIG1       -0.2864
     16 C           0.8670    0.7580    0.0000 C.ar    1  LIG1        0.0379
     17 C           1.7380    0.2580    0.0000 C.ar    1  LIG1        0.0431
     18 C           2.5880    0.7580    0.0000 C.ar    1  LIG1        0.1725
     19 C           2.5880    1.7580    0.0000 C.ar    1  LIG1        0.1724
     20 O           3.4580    2.2630    0.0000 O.3     1  LIG1       -0.4684
     21 C           4.3250    1.7580    0.0000 C.3     1  LIG1        0.2526
     22 C           4.3250    0.7580    0.0000 C.3     1  LIG1        0.2526
     23 O           3.4580    0.2580    0.0000 O.3     1  LIG1       -0.4684
     24 C           1.7380    2.2630    0.0000 C.ar    1  LIG1        0.0401
     25 C           0.8670    1.7580    0.0000 C.ar    1  LIG1        0.0064
@<TRIPOS>BOND
     1     1     2   ar
     2     1     6   ar
     3     1    10   ar
     4     2     3   ar
     5     3     4   ar
     6     3    16    1
     7     4     5   ar
     8     5     6   ar
     9     5    15    2
    10     6     7   ar
    11     7     8   ar
    12     8     9   ar
    13     9    10   ar
    14     9    14   ar
    15    10    11   ar
    16    11    12   ar
    17    12    13   ar
    18    13    14   ar
    19    16    17   ar
    20    16    25   ar
    21    17    18   ar
    22    18    19   ar
    23    18    23    1
    24    19    20    1
    25    19    24   ar
    26    20    21    1
    27    21    22    1
    28    22    23    1
    29    24    25   ar
