@<TRIPOS>MOLECULE
24394_ChemDiv_K893-0882
 21 23 0 0 0
SMALL
GASTEIGER
Energy = 0

@<TRIPOS>ATOM
      1 S           0.0130    0.2250    0.0000 S.O2    1  LIG1       -0.0562
      2 C           0.8330    0.7540    0.0000 C.ar    1  LIG1        0.1090
      3 C           0.7960    1.7420    0.0000 C.ar    1  LIG1        0.1244
      4 N           0.0250    2.3790    0.0000 N.ar    1  LIG1       -0.1889
      5 S           0.3920    3.3040    0.0000 S.2     1  LIG1        0.1165
      6 N           1.3960    3.2630    0.0000 N.ar    1  LIG1       -0.1901
      7 C           1.6540    2.3040    0.0000 C.ar    1  LIG1        0.1101
      8 C           2.5460    1.8580    0.0000 C.ar    1  LIG1        0.0214
      9 C           2.5750    0.8290    0.0000 C.ar    1  LIG1        0.0029
     10 C           1.7540    0.3170    0.0000 C.ar    1  LIG1        0.0186
     11 N          -0.8580   -0.2750    0.0000 N.pl3   1  LIG1       -0.5333
     12 C          -0.8580   -1.2790    0.0000 C.ar    1  LIG1       -0.0728
     13 C          -1.7250   -1.7670    0.0000 C.ar    1  LIG1        0.1737
     14 C          -1.7380   -2.7710    0.0000 C.ar    1  LIG1        0.0398
     15 C          -0.8750   -3.2830    0.0000 C.ar    1  LIG1       -0.0011
     16 C          -0.0040   -2.7880    0.0000 C.ar    1  LIG1       -0.0234
     17 C           0.0040   -1.7920    0.0000 C.ar    1  LIG1       -0.0250
     18 C           0.8460   -3.3000    0.0000 C.3     1  LIG1        0.0310
     19 O          -2.5790   -1.2670    0.0000 O.3     1  LIG1       -0.2885
     20 O          -0.5210    1.0380    0.0000 O.2     1  LIG1       -0.1841
     21 O           0.5670   -0.6420    0.0000 O.2     1  LIG1       -0.1841
@<TRIPOS>BOND
     1     1     2    1
     2     1    11    1
     3     1    20    2
     4     1    21    2
     5     2     3   ar
     6     2    10   ar
     7     3     4   ar
     8     3     7   ar
     9     4     5   ar
    10     5     6   ar
    11     6     7   ar
    12     7     8   ar
    13     8     9   ar
    14     9    10   ar
    15    11    12    1
    16    12    13   ar
    17    12    17   ar
    18    13    14   ar
    19    13    19    1
    20    14    15   ar
    21    15    16   ar
    22    16    17   ar
    23    16    18    1
