@<TRIPOS>MOLECULE
24390_ChemDiv_8011-6647
 24 26 0 0 0
SMALL
GASTEIGER
Energy = 0

@<TRIPOS>ATOM
      1 S          -1.2880    1.2540    0.0000 S.O2    1  LIG1       -0.0563
      2 C          -2.2290    1.2540    0.0000 C.ar    1  LIG1        0.1090
      3 C          -2.6790    0.4130    0.0000 C.ar    1  LIG1        0.1244
      4 N          -2.2130   -0.4130    0.0000 N.ar    1  LIG1       -0.1889
      5 S          -3.6630   -1.2380    0.0000 S.2     1  LIG1        0.1165
      6 N          -4.1130   -0.4040    0.0000 N.ar    1  LIG1       -0.1901
      7 C          -3.6540    0.4130    0.0000 C.ar    1  LIG1        0.1101
      8 C          -4.1330    1.2540    0.0000 C.ar    1  LIG1        0.0214
      9 C          -3.6540    2.0630    0.0000 C.ar    1  LIG1        0.0029
     10 C          -2.6790    2.0630    0.0000 C.ar    1  LIG1        0.0186
     11 N          -0.3380    1.2540    0.0000 N.pl3   1  LIG1       -0.5358
     12 C           0.1330    0.4250    0.0000 C.ar    1  LIG1       -0.1121
     13 C           1.1210    0.4250    0.0000 C.ar    1  LIG1       -0.0207
     14 C           1.6170   -0.4380    0.0000 C.ar    1  LIG1        0.0351
     15 C           1.1210   -1.3210    0.0000 C.ar    1  LIG1        0.1390
     16 O           1.6170   -2.1830    0.0000 O.3     1  LIG1       -0.4694
     17 C           2.6130   -2.1830    0.0000 C.3     1  LIG1        0.2469
     18 C           3.1080   -1.3210    0.0000 C.2     1  LIG1        0.0940
     19 O           2.6000   -0.4500    0.0000 O.co2   1  LIG1       -0.5454
     20 O           4.1290   -1.3210    0.0000 O.co2   1  LIG1       -0.5454
     21 C           0.1170   -1.3210    0.0000 C.ar    1  LIG1        0.0351
     22 C          -0.3790   -0.4380    0.0000 C.ar    1  LIG1       -0.0207
     23 O          -1.2880    0.2960    0.0000 O.2     1  LIG1       -0.1841
     24 O          -1.2880    2.1880    0.0000 O.2     1  LIG1       -0.1841
@<TRIPOS>BOND
     1     1     2    1
     2     1    11    1
     3     1    23    2
     4     1    24    2
     5     2     3   ar
     6     2    10   ar
     7     3     4   ar
     8     3     7   ar
     9     4     5   ar
    10     5     6   ar
    11     6     7   ar
    12     7     8   ar
    13     8     9   ar
    14     9    10   ar
    15    11    12    1
    16    12    13   ar
    17    12    22   ar
    18    13    14   ar
    19    14    15   ar
    20    15    16    1
    21    15    21   ar
    22    16    17    1
    23    17    18    1
    24    18    19   ar
    25    18    20   ar
    26    21    22   ar
