@<TRIPOS>MOLECULE
24392_ChemDiv_K893-0779
 24 26 0 0 0
SMALL
GASTEIGER
Energy = 0

@<TRIPOS>ATOM
      1 S           0.4460    0.7080    0.0000 S.O2    1  LIG1       -0.0562
      2 C           1.2710    1.2380    0.0000 C.ar    1  LIG1        0.1090
      3 C           1.2330    2.2250    0.0000 C.ar    1  LIG1        0.1244
      4 N           0.4630    2.8630    0.0000 N.ar    1  LIG1       -0.1889
      5 S           0.8290    3.7880    0.0000 S.2     1  LIG1        0.1165
      6 N           1.8330    3.7460    0.0000 N.ar    1  LIG1       -0.1901
      7 C           2.0920    2.7880    0.0000 C.ar    1  LIG1        0.1101
      8 C           2.9830    2.3420    0.0000 C.ar    1  LIG1        0.0214
      9 C           3.0170    1.3130    0.0000 C.ar    1  LIG1        0.0029
     10 C           2.1920    0.8000    0.0000 C.ar    1  LIG1        0.0186
     11 N          -0.4210    0.2040    0.0000 N.pl3   1  LIG1       -0.5334
     12 C          -0.4210   -0.7960    0.0000 C.ar    1  LIG1       -0.0774
     13 C          -1.2880   -1.2880    0.0000 C.ar    1  LIG1       -0.0198
     14 C          -1.2960   -2.2920    0.0000 C.ar    1  LIG1        0.0124
     15 C          -2.1710   -2.7790    0.0000 C.2     1  LIG1        0.0728
     16 O          -2.1710   -3.7830    0.0000 O.co2   1  LIG1       -0.5446
     17 O          -3.0210   -2.2750    0.0000 O.co2   1  LIG1       -0.5446
     18 C          -0.4380   -2.7960    0.0000 C.ar    1  LIG1        0.0041
     19 C           0.4330   -2.2920    0.0000 C.ar    1  LIG1        0.0351
     20 C           0.4330   -1.2880    0.0000 C.ar    1  LIG1        0.1167
     21 O           1.3170   -0.8080    0.0000 O.3     1  LIG1       -0.4733
     22 C           2.1790   -1.3130    0.0000 C.3     1  LIG1        0.2524
     23 O           1.0040   -0.1580    0.0000 O.2     1  LIG1       -0.1841
     24 O          -0.0880    1.5210    0.0000 O.2     1  LIG1       -0.1841
@<TRIPOS>BOND
     1     1     2    1
     2     1    11    1
     3     1    23    2
     4     1    24    2
     5     2     3   ar
     6     2    10   ar
     7     3     4   ar
     8     3     7   ar
     9     4     5   ar
    10     5     6   ar
    11     6     7   ar
    12     7     8   ar
    13     8     9   ar
    14     9    10   ar
    15    11    12    1
    16    12    13   ar
    17    12    20   ar
    18    13    14   ar
    19    14    15    1
    20    14    18   ar
    21    15    16   ar
    22    15    17   ar
    23    18    19   ar
    24    19    20   ar
    25    20    21    1
    26    21    22    1
