@<TRIPOS>MOLECULE
24396_ChemDiv_0075-0062
 34 38 0 0 0
SMALL
GASTEIGER
Energy = 0

@<TRIPOS>ATOM
      1 C          -2.5580    2.7710    0.0000 C.2     1  LIG1        0.3073
      2 N          -1.7000    2.2540    0.0000 N.am    1  LIG1       -0.2605
      3 C          -0.8380    2.7290    0.0000 C.3     1  LIG1        0.1164
      4 C           0.0250    2.2540    0.0000 C.3     1  LIG1        0.1124
      5 N           0.0250    1.2330    0.0000 N.pl3   1  LIG1       -0.3041
      6 C           0.8960    0.7540    0.0000 C.ar    1  LIG1        0.0480
      7 C           0.8960   -0.2710    0.0000 C.ar    1  LIG1        0.0159
      8 C           1.7540   -0.7790    0.0000 C.ar    1  LIG1        0.0178
      9 C           2.6210   -0.2710    0.0000 C.ar    1  LIG1        0.0706
     10 N           3.4790   -0.7790    0.0000 N.pl3   1  LIG1       -0.2121
     11 C           3.4790   -1.7710    0.0000 C.ar    1  LIG1        0.0828
     12 C           2.6210   -2.2920    0.0000 C.ar    1  LIG1        0.0856
     13 C           2.6210   -3.2750    0.0000 C.ar    1  LIG1        0.2981
     14 C           1.7540   -3.7880    0.0000 C.ar    1  LIG1        0.0762
     15 C           0.8960   -3.2750    0.0000 C.ar    1  LIG1        0.0061
     16 C           0.8960   -2.2920    0.0000 C.ar    1  LIG1        0.0004
     17 C           1.7540   -1.7710    0.0000 C.ar    1  LIG1        0.0075
     18 C           0.0250   -1.7710    0.0000 C.ar    1  LIG1        0.0000
     19 C          -0.8380   -2.2920    0.0000 C.ar    1  LIG1        0.0000
     20 C          -0.8380   -3.2750    0.0000 C.ar    1  LIG1        0.0000
     21 C           0.0250   -3.7880    0.0000 C.ar    1  LIG1        0.0002
     22 N           3.4790   -3.7880    0.0000 N.ar    1  LIG1        0.0825
     23 C           4.3500   -3.2750    0.0000 C.ar    1  LIG1        0.3670
     24 C           4.3500   -2.2920    0.0000 C.ar    1  LIG1        0.0995
     25 C           2.6210    0.7540    0.0000 C.ar    1  LIG1        0.0178
     26 C           1.7540    1.2330    0.0000 C.ar    1  LIG1        0.0159
     27 C          -0.8380    0.7540    0.0000 C.3     1  LIG1        0.1124
     28 C          -1.7000    1.2330    0.0000 C.3     1  LIG1        0.1164
     29 N          -3.4330    2.2920    0.0000 N.am    1  LIG1       -0.2640
     30 C          -4.2830    2.8000    0.0000 C.3     1  LIG1        0.0950
     31 C          -4.2670    3.7920    0.0000 C.3     1  LIG1        0.0233
     32 C          -3.4630    1.2960    0.0000 C.3     1  LIG1        0.0950
     33 C          -4.3540    0.8130    0.0000 C.3     1  LIG1        0.0233
     34 O          -2.5420    3.7580    0.0000 O.2     1  LIG1       -0.2523
@<TRIPOS>BOND
     1     1     2   am
     2     1    29   am
     3     1    34    2
     4     2     3    1
     5     2    28    1
     6     3     4    1
     7     4     5    1
     8     5     6    1
     9     5    27    1
    10     6     7   ar
    11     6    26   ar
    12     7     8   ar
    13     8     9   ar
    14     9    10    1
    15     9    25   ar
    16    10    11    1
    17    11    12   ar
    18    11    24   ar
    19    12    13   ar
    20    12    17   ar
    21    13    14   ar
    22    13    22   ar
    23    14    15   ar
    24    15    16   ar
    25    15    21   ar
    26    16    17   ar
    27    16    18   ar
    28    18    19   ar
    29    19    20   ar
    30    20    21   ar
    31    22    23   ar
    32    23    24   ar
    33    25    26   ar
    34    27    28    1
    35    29    30    1
    36    29    32    1
    37    30    31    1
    38    32    33    1
