@<TRIPOS>MOLECULE
24398_ChemDiv_0080-0001
 28 30 0 0 0
SMALL
GASTEIGER
Energy = 0

@<TRIPOS>ATOM
      1 C           0.4210    1.0040    0.0000 C.ar    1  LIG1        0.0896
      2 C           0.4210    0.0290    0.0000 C.3     1  LIG1        0.2401
      3 C          -0.4170   -0.4420    0.0000 C.3     1  LIG1        0.2488
      4 C          -1.2790    0.0290    0.0000 C.3     1  LIG1        0.1736
      5 O          -1.3080    1.0040    0.0000 O.3     1  LIG1       -0.4790
      6 C          -0.4420    1.5080    0.0000 C.ar    1  LIG1        0.1408
      7 C          -0.4420    2.5170    0.0000 C.ar    1  LIG1        0.0369
      8 C           0.4210    2.9880    0.0000 C.ar    1  LIG1        0.0061
      9 C           1.2580    2.5170    0.0000 C.ar    1  LIG1        0.0349
     10 C           1.2580    1.5080    0.0000 C.ar    1  LIG1        0.1510
     11 O           2.1210    1.0040    0.0000 O.2     1  LIG1       -0.4211
     12 C           2.9880    1.5080    0.0000 C.ar    1  LIG1        0.3459
     13 C           2.9880    2.5170    0.0000 C.ar    1  LIG1        0.0824
     14 C           2.1210    2.9880    0.0000 C.ar    1  LIG1        0.0097
     15 O           3.8540    1.0040    0.0000 O.2     1  LIG1       -0.2445
     16 C          -2.1170   -0.4710    0.0000 C.3     1  LIG1        0.0475
     17 C          -2.2540    0.2540    0.0000 C.3     1  LIG1        0.0475
     18 O          -0.4170   -1.4500    0.0000 O.3     1  LIG1       -0.4444
     19 C          -1.2790   -1.9250    0.0000 C.2     1  LIG1        0.3171
     20 O          -1.2790   -2.9250    0.0000 O.2     1  LIG1       -0.2501
     21 C          -2.1170   -1.4500    0.0000 C.3     1  LIG1        0.1096
     22 C          -3.0210   -1.9750    0.0000 C.3     1  LIG1        0.0111
     23 C          -3.0210   -2.9830    0.0000 C.3     1  LIG1        0.0006
     24 C          -3.8580   -1.5170    0.0000 C.3     1  LIG1        0.0006
     25 O           1.2880   -0.4710    0.0000 O.3     1  LIG1       -0.4435
     26 C           1.2880   -1.4580    0.0000 C.2     1  LIG1        0.3179
     27 O           0.3790   -1.9250    0.0000 O.2     1  LIG1       -0.2501
     28 C           2.3710   -2.0630    0.0000 C.3     1  LIG1        0.1212
@<TRIPOS>BOND
     1     1     2    1
     2     1     6   ar
     3     1    10   ar
     4     2     3    1
     5     2    25    1
     6     3     4    1
     7     3    18    1
     8     4     5    1
     9     4    16    1
    10     4    17    1
    11     5     6    1
    12     6     7   ar
    13     7     8   ar
    14     8     9   ar
    15     9    10   ar
    16     9    14   ar
    17    10    11   ar
    18    11    12   ar
    19    12    13   ar
    20    12    15    2
    21    13    14   ar
    22    18    19    1
    23    19    20    2
    24    19    21    1
    25    21    22    1
    26    22    23    1
    27    22    24    1
    28    25    26    1
    29    26    27    2
    30    26    28    1
