@<TRIPOS>MOLECULE
24403_ChemDiv_5683-0430
 25 28 0 0 0
SMALL
GASTEIGER
Energy = 0

@<TRIPOS>ATOM
      1 C          -1.7380    0.2540    0.0000 C.ar    1  LIG1        0.1482
      2 O          -0.8710   -0.2460    0.0000 O.2     1  LIG1       -0.4533
      3 C           0.0000    0.2540    0.0000 C.ar    1  LIG1        0.1485
      4 C           0.0000    1.2540    0.0000 C.ar    1  LIG1        0.0796
      5 C          -0.8580    1.7670    0.0000 C.ar    1  LIG1        0.2016
      6 C          -1.7380    1.2540    0.0000 C.ar    1  LIG1        0.0735
      7 C          -2.5880    1.7540    0.0000 C.ar    1  LIG1        0.0062
      8 C          -3.4500    1.2540    0.0000 C.ar    1  LIG1        0.0003
      9 C          -3.4630    0.2540    0.0000 C.ar    1  LIG1        0.0029
     10 C          -2.5880   -0.2460    0.0000 C.ar    1  LIG1        0.0347
     11 C          -2.5880   -1.2380    0.0000 C.ar    1  LIG1        0.0030
     12 C          -3.4500   -1.7460    0.0000 C.ar    1  LIG1        0.0001
     13 C          -4.3250   -1.2540    0.0000 C.ar    1  LIG1        0.0000
     14 C          -4.3250   -0.2460    0.0000 C.ar    1  LIG1        0.0001
     15 O          -0.8580    2.7580    0.0000 O.2     1  LIG1       -0.2864
     16 C           0.8670   -0.2460    0.0000 C.ar    1  LIG1        0.0379
     17 C           1.7330    0.2540    0.0000 C.ar    1  LIG1        0.0431
     18 C           2.5960   -0.2460    0.0000 C.ar    1  LIG1        0.1725
     19 C           2.5960   -1.2540    0.0000 C.ar    1  LIG1        0.1724
     20 C           1.7170   -1.7460    0.0000 C.ar    1  LIG1        0.0401
     21 C           0.8630   -1.2540    0.0000 C.ar    1  LIG1        0.0064
     22 O           3.4670   -1.7460    0.0000 O.3     1  LIG1       -0.4684
     23 C           3.4540   -2.7540    0.0000 C.3     1  LIG1        0.2526
     24 O           3.4670    0.2540    0.0000 O.3     1  LIG1       -0.4684
     25 C           4.3210   -0.2460    0.0000 C.3     1  LIG1        0.2526
@<TRIPOS>BOND
     1     1     2   ar
     2     1     6   ar
     3     1    10   ar
     4     2     3   ar
     5     3     4   ar
     6     3    16    1
     7     4     5   ar
     8     5     6   ar
     9     5    15    2
    10     6     7   ar
    11     7     8   ar
    12     8     9   ar
    13     9    10   ar
    14     9    14   ar
    15    10    11   ar
    16    11    12   ar
    17    12    13   ar
    18    13    14   ar
    19    16    17   ar
    20    16    21   ar
    21    17    18   ar
    22    18    19   ar
    23    18    24    1
    24    19    20   ar
    25    19    22    1
    26    20    21   ar
    27    22    23    1
    28    24    25    1
