@<TRIPOS>MOLECULE
24406_ChemDiv_K781-1808
 34 38 0 0 0
SMALL
GASTEIGER
Energy = 0

@<TRIPOS>ATOM
      1 N          -3.5080    3.4210    0.0000 N.ar    1  LIG1       -0.2991
      2 C          -2.4960    3.4080    0.0000 C.ar    1  LIG1        0.0411
      3 C          -2.0000    2.5500    0.0000 C.3     1  LIG1        0.0583
      4 C          -1.5080    1.7330    0.0000 C.3     1  LIG1        0.0966
      5 N          -2.0000    0.8750    0.0000 N.pl3   1  LIG1       -0.3060
      6 C          -1.5040    0.0130    0.0000 C.ar    1  LIG1        0.0648
      7 C          -0.4960    0.0130    0.0000 C.ar    1  LIG1        0.1025
      8 C           0.0040   -0.8540    0.0000 C.ar    1  LIG1        0.0238
      9 C          -0.4960   -1.7330    0.0000 C.ar    1  LIG1        0.0550
     10 C           0.0040   -2.6080    0.0000 C.2     1  LIG1        0.2492
     11 N           1.0130   -2.5960    0.0000 N.am    1  LIG1       -0.2726
     12 C           1.5000   -1.7210    0.0000 C.3     1  LIG1        0.1153
     13 C           2.4920   -1.7210    0.0000 C.3     1  LIG1        0.1182
     14 N           3.0080   -2.5790    0.0000 N.am    1  LIG1       -0.2425
     15 C           4.0000   -2.5750    0.0000 C.2     1  LIG1        0.4050
     16 O           4.4960   -1.7040    0.0000 O.2     1  LIG1       -0.2262
     17 O           4.5080   -3.4330    0.0000 O.3     1  LIG1       -0.4345
     18 C           5.0130   -4.2920    0.0000 C.3     1  LIG1        0.2102
     19 C           4.5250   -5.1580    0.0000 C.3     1  LIG1        0.0513
     20 C           2.5080   -3.4540    0.0000 C.3     1  LIG1        0.1182
     21 C           1.5130   -3.4540    0.0000 C.3     1  LIG1        0.1153
     22 O          -0.4920   -3.4630    0.0000 O.2     1  LIG1       -0.2699
     23 C          -1.5080   -1.7330    0.0000 C.ar    1  LIG1        0.0059
     24 C          -2.0170   -0.8580    0.0000 C.ar    1  LIG1        0.0160
     25 N           0.0040    0.8750    0.0000 N.pl3   1  LIG1       -0.1268
     26 C          -3.0130    0.8750    0.0000 C.3     1  LIG1        0.0927
     27 C          -3.5080    1.6750    0.0000 C.3     1  LIG1        0.0429
     28 C          -4.0130    2.5540    0.0000 C.3     1  LIG1        0.1104
     29 C          -2.5130    1.6750    0.0000 C.3     1  LIG1        0.0112
     30 C          -1.9920    4.2670    0.0000 C.ar    1  LIG1        0.0130
     31 C          -2.4830    5.1540    0.0000 C.ar    1  LIG1        0.0060
     32 C          -3.4920    5.1580    0.0000 C.ar    1  LIG1        0.0608
     33 C          -4.0040    4.2920    0.0000 C.ar    1  LIG1        0.2607
     34 O          -5.0170    4.2920    0.0000 O.2     1  LIG1       -0.2670
@<TRIPOS>BOND
     1     1     2   ar
     2     1    28    1
     3     1    33   ar
     4     2     3    1
     5     2    30   ar
     6     3     4    1
     7     3    29    1
     8     4     5    1
     9     5     6    1
    10     5    26    1
    11     6     7   ar
    12     6    24   ar
    13     7     8   ar
    14     7    25    1
    15     8     9   ar
    16     9    10    1
    17     9    23   ar
    18    10    11   am
    19    10    22    2
    20    11    12    1
    21    11    21    1
    22    12    13    1
    23    13    14    1
    24    14    15   am
    25    14    20    1
    26    15    16    2
    27    15    17    1
    28    17    18    1
    29    18    19    1
    30    20    21    1
    31    23    24   ar
    32    26    27    1
    33    27    28    1
    34    27    29    1
    35    30    31   ar
    36    31    32   ar
    37    32    33   ar
    38    33    34    2
