@<TRIPOS>MOLECULE
24409_ChemDiv_5683-0434
 20 23 0 0 0
SMALL
GASTEIGER
Energy = 0

@<TRIPOS>ATOM
      1 C          -0.8040   -0.2500    0.0000 C.ar    1  LIG1        0.1483
      2 O           0.0580   -0.7500    0.0000 O.2     1  LIG1       -0.4502
      3 C           0.9330   -0.2500    0.0000 C.ar    1  LIG1        0.1827
      4 C           0.9330    0.7500    0.0000 C.ar    1  LIG1        0.0827
      5 C           0.0750    1.2630    0.0000 C.ar    1  LIG1        0.2017
      6 C          -0.8040    0.7500    0.0000 C.ar    1  LIG1        0.0735
      7 C          -1.6580    1.2500    0.0000 C.ar    1  LIG1        0.0062
      8 C          -2.5210    0.7500    0.0000 C.ar    1  LIG1        0.0003
      9 C          -2.5330   -0.2500    0.0000 C.ar    1  LIG1        0.0029
     10 C          -1.6580   -0.7500    0.0000 C.ar    1  LIG1        0.0347
     11 C          -1.6580   -1.7460    0.0000 C.ar    1  LIG1        0.0030
     12 C          -2.5210   -2.2500    0.0000 C.ar    1  LIG1        0.0001
     13 C          -3.3960   -1.7630    0.0000 C.ar    1  LIG1        0.0000
     14 C          -3.3960   -0.7500    0.0000 C.ar    1  LIG1        0.0001
     15 O           0.0750    2.2540    0.0000 O.2     1  LIG1       -0.2864
     16 C           1.8000   -0.7500    0.0000 C.ar    1  LIG1        0.1799
     17 O           2.7080   -0.3500    0.0000 O.2     1  LIG1       -0.4473
     18 C           3.3920   -1.0920    0.0000 C.ar    1  LIG1        0.1798
     19 C           2.8880   -1.9460    0.0000 C.ar    1  LIG1        0.0439
     20 C           1.9000   -1.7460    0.0000 C.ar    1  LIG1        0.0439
@<TRIPOS>BOND
     1     1     2   ar
     2     1     6   ar
     3     1    10   ar
     4     2     3   ar
     5     3     4   ar
     6     3    16    1
     7     4     5   ar
     8     5     6   ar
     9     5    15    2
    10     6     7   ar
    11     7     8   ar
    12     8     9   ar
    13     9    10   ar
    14     9    14   ar
    15    10    11   ar
    16    11    12   ar
    17    12    13   ar
    18    13    14   ar
    19    16    17   ar
    20    16    20   ar
    21    17    18   ar
    22    18    19   ar
    23    19    20   ar
