@<TRIPOS>MOLECULE
24411_ChemDiv_N043-0002
 21 23 0 0 0
SMALL
GASTEIGER
Energy = 0

@<TRIPOS>ATOM
      1 C           0.4290   -0.7330    0.0000 C.ar    1  LIG1        0.2685
      2 C          -0.4460   -1.2380    0.0000 C.ar    1  LIG1        0.2433
      3 C          -1.3000   -0.7540    0.0000 C.ar    1  LIG1        0.1158
      4 C          -1.3000    0.2540    0.0000 C.ar    1  LIG1        0.1549
      5 O          -0.4460    0.7580    0.0000 O.2     1  LIG1       -0.4498
      6 C           0.4290    0.2540    0.0000 C.ar    1  LIG1        0.1871
      7 C           1.2960    0.7380    0.0000 C.ar    1  LIG1        0.0381
      8 C           2.1540    0.2540    0.0000 C.ar    1  LIG1        0.0064
      9 C           3.0250    0.7580    0.0000 C.ar    1  LIG1        0.0421
     10 C           3.0250    1.7460    0.0000 C.ar    1  LIG1        0.1957
     11 C           2.1710    2.2500    0.0000 C.ar    1  LIG1        0.0421
     12 C           1.2960    1.7460    0.0000 C.ar    1  LIG1        0.0064
     13 O           3.9130    2.2290    0.0000 O.3     1  LIG1       -0.2866
     14 C          -2.1710    0.7580    0.0000 C.ar    1  LIG1        0.0798
     15 C          -3.0290    0.2540    0.0000 C.ar    1  LIG1        0.2020
     16 C          -3.0290   -0.7330    0.0000 C.ar    1  LIG1        0.0843
     17 C          -2.1710   -1.2380    0.0000 C.ar    1  LIG1        0.2050
     18 O          -2.1710   -2.2460    0.0000 O.3     1  LIG1       -0.2862
     19 O          -3.9170    0.7380    0.0000 O.3     1  LIG1       -0.2864
     20 O          -0.4460   -2.2460    0.0000 O.2     1  LIG1       -0.2828
     21 O           1.3170   -1.2250    0.0000 O.3     1  LIG1       -0.2798
@<TRIPOS>BOND
     1     1     2   ar
     2     1     6   ar
     3     1    21    1
     4     2     3   ar
     5     2    20    2
     6     3     4   ar
     7     3    17   ar
     8     4     5   ar
     9     4    14   ar
    10     5     6   ar
    11     6     7    1
    12     7     8   ar
    13     7    12   ar
    14     8     9   ar
    15     9    10   ar
    16    10    11   ar
    17    10    13    1
    18    11    12   ar
    19    14    15   ar
    20    15    16   ar
    21    15    19    1
    22    16    17   ar
    23    17    18    1
