@<TRIPOS>MOLECULE
24415_ChemDiv_5969-0046
 22 25 0 0 0
SMALL
GASTEIGER
Energy = 0

@<TRIPOS>ATOM
      1 C          -1.4040   -0.7380    0.0000 C.3     1  LIG1        0.1203
      2 C          -1.4040   -1.7460    0.0000 C.3     1  LIG1        0.1381
      3 O          -2.1750   -0.9960    0.0000 O.3     1  LIG1       -0.3499
      4 C          -3.1290   -0.7380    0.0000 C.3     1  LIG1        0.1483
      5 C          -2.2630   -0.2500    0.0000 C.3     1  LIG1        0.1415
      6 C          -2.2630    0.7460    0.0000 C.2     1  LIG1        0.3199
      7 O          -3.1420    1.2460    0.0000 O.2     1  LIG1       -0.2500
      8 O          -1.4040    1.2460    0.0000 O.3     1  LIG1       -0.4443
      9 C          -1.4040    2.2500    0.0000 C.3     1  LIG1        0.2556
     10 C          -3.1290   -1.7460    0.0000 C.2     1  LIG1        0.0012
     11 C          -2.2630   -2.2460    0.0000 C.2     1  LIG1        0.0002
     12 C          -0.4460   -2.0500    0.0000 C.3     1  LIG1        0.1254
     13 N           0.1290   -1.2380    0.0000 N.am    1  LIG1       -0.2726
     14 C          -0.4460   -0.4290    0.0000 C.2     1  LIG1        0.2288
     15 O          -0.1420    0.5040    0.0000 O.2     1  LIG1       -0.2748
     16 C           1.1380   -1.2380    0.0000 C.3     1  LIG1        0.1202
     17 C           1.6380   -0.3750    0.0000 C.ar    1  LIG1       -0.0023
     18 C           2.6460   -0.3750    0.0000 C.ar    1  LIG1       -0.0026
     19 C           3.1380    0.4790    0.0000 C.ar    1  LIG1       -0.0003
     20 C           2.6460    1.3420    0.0000 C.ar    1  LIG1       -0.0000
     21 C           1.6380    1.3290    0.0000 C.ar    1  LIG1       -0.0003
     22 C           1.1540    0.4750    0.0000 C.ar    1  LIG1       -0.0026
@<TRIPOS>BOND
     1     1     2    1
     2     1     5    1
     3     1    14    1
     4     2     3    1
     5     2    11    1
     6     2    12    1
     7     3     4    1
     8     4     5    1
     9     4    10    1
    10     5     6    1
    11     6     7    2
    12     6     8    1
    13     8     9    1
    14    10    11    2
    15    12    13    1
    16    13    14   am
    17    13    16    1
    18    14    15    2
    19    16    17    1
    20    17    18   ar
    21    17    22   ar
    22    18    19   ar
    23    19    20   ar
    24    20    21   ar
    25    21    22   ar
