@<TRIPOS>MOLECULE
24416_ChemDiv_000A-1039
 30 34 0 0 0
SMALL
GASTEIGER
Energy = 0

@<TRIPOS>ATOM
      1 N           1.2130    3.6000    0.0000 N.ar    1  LIG1       -0.2991
      2 C           2.0830    3.1040    0.0000 C.ar    1  LIG1        0.0411
      3 C           2.0750    2.1040    0.0000 C.3     1  LIG1        0.0583
      4 C           2.0880    1.1080    0.0000 C.3     1  LIG1        0.0966
      5 N           1.2130    0.6130    0.0000 N.pl3   1  LIG1       -0.3060
      6 C           1.2130   -0.3960    0.0000 C.ar    1  LIG1        0.0648
      7 C           2.0880   -0.8920    0.0000 C.ar    1  LIG1        0.1025
      8 C           2.0880   -1.8960    0.0000 C.ar    1  LIG1        0.0239
      9 C           1.2130   -2.4040    0.0000 C.ar    1  LIG1        0.0565
     10 C           1.2250   -3.4040    0.0000 C.2     1  LIG1        0.2652
     11 N           0.3540   -3.9040    0.0000 N.am    1  LIG1       -0.1934
     12 C          -0.5080   -3.4040    0.0000 C.3     1  LIG1        0.1794
     13 C          -1.3750   -3.9040    0.0000 C.ar    1  LIG1        0.1449
     14 O          -1.4790   -4.8960    0.0000 O.2     1  LIG1       -0.4529
     15 C          -2.4540   -5.0960    0.0000 C.ar    1  LIG1        0.1792
     16 C          -2.9540   -4.2330    0.0000 C.ar    1  LIG1        0.0435
     17 C          -2.2790   -3.4960    0.0000 C.ar    1  LIG1        0.0380
     18 O           2.0880   -3.9040    0.0000 O.2     1  LIG1       -0.2684
     19 C           0.3540   -1.8960    0.0000 C.ar    1  LIG1        0.0059
     20 C           0.3540   -0.8920    0.0000 C.ar    1  LIG1        0.0160
     21 N           2.9500   -0.3830    0.0000 N.pl3   1  LIG1       -0.1268
     22 C           0.3460    1.1000    0.0000 C.3     1  LIG1        0.0927
     23 C           0.3540    2.1040    0.0000 C.3     1  LIG1        0.0429
     24 C           0.3460    3.1040    0.0000 C.3     1  LIG1        0.1104
     25 C           1.2130    1.5960    0.0000 C.3     1  LIG1        0.0112
     26 C           2.9500    3.5920    0.0000 C.ar    1  LIG1        0.0130
     27 C           2.9500    4.5920    0.0000 C.ar    1  LIG1        0.0060
     28 C           2.0830    5.0920    0.0000 C.ar    1  LIG1        0.0608
     29 C           1.2130    4.5920    0.0000 C.ar    1  LIG1        0.2607
     30 O           0.3460    5.0960    0.0000 O.2     1  LIG1       -0.2670
@<TRIPOS>BOND
     1     1     2   ar
     2     1    24    1
     3     1    29   ar
     4     2     3    1
     5     2    26   ar
     6     3     4    1
     7     3    25    1
     8     4     5    1
     9     5     6    1
    10     5    22    1
    11     6     7   ar
    12     6    20   ar
    13     7     8   ar
    14     7    21    1
    15     8     9   ar
    16     9    10    1
    17     9    19   ar
    18    10    11   am
    19    10    18    2
    20    11    12    1
    21    12    13    1
    22    13    14   ar
    23    13    17   ar
    24    14    15   ar
    25    15    16   ar
    26    16    17   ar
    27    19    20   ar
    28    22    23    1
    29    23    24    1
    30    23    25    1
    31    26    27   ar
    32    27    28   ar
    33    28    29   ar
    34    29    30    2
