@<TRIPOS>MOLECULE
24418_ChemDiv_0080-0015
 18 20 0 0 0
SMALL
GASTEIGER
Energy = 0

@<TRIPOS>ATOM
      1 C          -0.3880    0.2420    0.0000 C.ar    1  LIG1        0.0539
      2 C           0.4580    0.7500    0.0000 C.ar    1  LIG1        0.1480
      3 O           1.3330    0.2420    0.0000 O.2     1  LIG1       -0.4212
      4 C           2.2080    0.7500    0.0000 C.ar    1  LIG1        0.3459
      5 C           2.2080    1.7670    0.0000 C.ar    1  LIG1        0.0824
      6 C           1.3330    2.2420    0.0000 C.ar    1  LIG1        0.0097
      7 C           0.4580    1.7670    0.0000 C.ar    1  LIG1        0.0348
      8 C          -0.3880    2.2420    0.0000 C.ar    1  LIG1        0.0061
      9 C          -1.2540    1.7670    0.0000 C.ar    1  LIG1        0.0368
     10 C          -1.2540    0.7500    0.0000 C.ar    1  LIG1        0.1381
     11 O          -2.1290    0.2420    0.0000 O.3     1  LIG1       -0.4759
     12 C          -2.1000   -0.7460    0.0000 C.3     1  LIG1        0.1839
     13 C          -1.2330   -1.2210    0.0000 C.2     1  LIG1        0.1909
     14 C          -0.3880   -0.7460    0.0000 C.3     1  LIG1        0.1006
     15 O          -1.2330   -2.2380    0.0000 O.2     1  LIG1       -0.2921
     16 C          -2.9460   -1.2500    0.0000 C.3     1  LIG1        0.0513
     17 C          -3.0880   -0.5170    0.0000 C.3     1  LIG1        0.0513
     18 O           3.0830    0.2420    0.0000 O.2     1  LIG1       -0.2445
@<TRIPOS>BOND
     1     1     2   ar
     2     1    10   ar
     3     1    14    1
     4     2     3   ar
     5     2     7   ar
     6     3     4   ar
     7     4     5   ar
     8     4    18    2
     9     5     6   ar
    10     6     7   ar
    11     7     8   ar
    12     8     9   ar
    13     9    10   ar
    14    10    11    1
    15    11    12    1
    16    12    13    1
    17    12    16    1
    18    12    17    1
    19    13    14    1
    20    13    15    2
