@<TRIPOS>MOLECULE
24428_ChemDiv_0080-0056
 18 20 0 0 0
SMALL
GASTEIGER
Energy = 0

@<TRIPOS>ATOM
      1 C          -0.3830    0.2580    0.0000 C.ar    1  LIG1        0.0490
      2 C           0.4710    0.7460    0.0000 C.ar    1  LIG1        0.1476
      3 O           1.3460    0.2290    0.0000 O.2     1  LIG1       -0.4213
      4 C           2.2040    0.7130    0.0000 C.ar    1  LIG1        0.3459
      5 C           2.2330    1.7420    0.0000 C.ar    1  LIG1        0.0824
      6 C           1.3460    2.2210    0.0000 C.ar    1  LIG1        0.0097
      7 C           0.4920    1.7130    0.0000 C.ar    1  LIG1        0.0348
      8 C          -0.3830    2.2500    0.0000 C.ar    1  LIG1        0.0061
      9 C          -1.2380    1.7420    0.0000 C.ar    1  LIG1        0.0368
     10 C          -1.2380    0.7460    0.0000 C.ar    1  LIG1        0.1373
     11 O          -2.1250    0.2580    0.0000 O.3     1  LIG1       -0.4803
     12 C          -2.1250   -0.7080    0.0000 C.3     1  LIG1        0.1614
     13 C          -1.2670   -1.2500    0.0000 C.3     1  LIG1        0.1926
     14 C          -0.4130   -0.7380    0.0000 C.3     1  LIG1        0.0690
     15 O          -1.2670   -2.2460    0.0000 O.3     1  LIG1       -0.2190
     16 C          -3.0080   -1.1960    0.0000 C.3     1  LIG1        0.0463
     17 C          -3.0920   -0.4250    0.0000 C.3     1  LIG1        0.0463
     18 O           3.0880    0.2040    0.0000 O.2     1  LIG1       -0.2445
@<TRIPOS>BOND
     1     1     2   ar
     2     1    10   ar
     3     1    14    1
     4     2     3   ar
     5     2     7   ar
     6     3     4   ar
     7     4     5   ar
     8     4    18    2
     9     5     6   ar
    10     6     7   ar
    11     7     8   ar
    12     8     9   ar
    13     9    10   ar
    14    10    11    1
    15    11    12    1
    16    12    13    1
    17    12    16    1
    18    12    17    1
    19    13    14    1
    20    13    15    1
