@<TRIPOS>MOLECULE
24424_ChemDiv_0080-0048
 32 36 0 0 0
SMALL
GASTEIGER
Energy = 0

@<TRIPOS>ATOM
      1 C          -0.4000    2.0130    0.0000 C.ar    1  LIG1        0.1004
      2 C          -0.4000    1.0000    0.0000 C.3     1  LIG1        0.1600
      3 C          -1.2670    0.5210    0.0000 C.3     1  LIG1        0.2598
      4 C          -2.1500    1.0330    0.0000 C.3     1  LIG1        0.1757
      5 O          -2.1170    2.0330    0.0000 O.3     1  LIG1       -0.4788
      6 C          -1.2670    2.5170    0.0000 C.ar    1  LIG1        0.1427
      7 C          -1.2290    3.5250    0.0000 C.ar    1  LIG1        0.0370
      8 C          -0.3790    4.0040    0.0000 C.ar    1  LIG1        0.0061
      9 C           0.4880    3.4920    0.0000 C.ar    1  LIG1        0.0350
     10 C           0.4880    2.4920    0.0000 C.ar    1  LIG1        0.1530
     11 O           1.3500    2.0130    0.0000 O.2     1  LIG1       -0.4211
     12 C           2.2380    2.4920    0.0000 C.ar    1  LIG1        0.3459
     13 C           2.2380    3.4920    0.0000 C.ar    1  LIG1        0.0824
     14 C           1.3710    3.9750    0.0000 C.ar    1  LIG1        0.0097
     15 O           3.0920    1.9460    0.0000 O.2     1  LIG1       -0.2445
     16 C          -3.0420    0.5420    0.0000 C.3     1  LIG1        0.0476
     17 C          -3.0960    1.3130    0.0000 C.3     1  LIG1        0.0476
     18 O          -1.2670   -0.4830    0.0000 O.3     1  LIG1       -0.4391
     19 C          -2.1170   -0.9960    0.0000 C.2     1  LIG1        0.3414
     20 O          -2.9830   -0.4830    0.0000 O.2     1  LIG1       -0.2449
     21 C          -2.1170   -1.9960    0.0000 C.ar    1  LIG1        0.0756
     22 C          -2.9830   -2.5130    0.0000 C.ar    1  LIG1        0.0064
     23 C          -2.9500   -3.5210    0.0000 C.ar    1  LIG1        0.0002
     24 C          -2.0960   -4.0040    0.0000 C.ar    1  LIG1        0.0000
     25 C          -1.2290   -3.4880    0.0000 C.ar    1  LIG1        0.0002
     26 C          -1.2290   -2.4880    0.0000 C.ar    1  LIG1        0.0064
     27 N           0.4420    0.4960    0.0000 N.4     1  LIG1        0.3791
     28 C           0.4290   -0.5040    0.0000 C.3     1  LIG1        0.1389
     29 C           1.2710   -1.0210    0.0000 C.3     1  LIG1        0.0629
     30 C           2.1460   -0.5380    0.0000 C.3     1  LIG1        0.0123
     31 C           2.1710    0.4500    0.0000 C.3     1  LIG1        0.0629
     32 C           1.3130    0.9670    0.0000 C.3     1  LIG1        0.1389
@<TRIPOS>BOND
     1     1     2    1
     2     1     6   ar
     3     1    10   ar
     4     2     3    1
     5     2    27    1
     6     3     4    1
     7     3    18    1
     8     4     5    1
     9     4    16    1
    10     4    17    1
    11     5     6    1
    12     6     7   ar
    13     7     8   ar
    14     8     9   ar
    15     9    10   ar
    16     9    14   ar
    17    10    11   ar
    18    11    12   ar
    19    12    13   ar
    20    12    15    2
    21    13    14   ar
    22    18    19    1
    23    19    20    2
    24    19    21    1
    25    21    22   ar
    26    21    26   ar
    27    22    23   ar
    28    23    24   ar
    29    24    25   ar
    30    25    26   ar
    31    27    28    1
    32    27    32    1
    33    28    29    1
    34    29    30    1
    35    30    31    1
    36    31    32    1
