@<TRIPOS>MOLECULE
24434_ChemDiv_000A-1049
 16 18 0 0 0
SMALL
GASTEIGER
Energy = 0

@<TRIPOS>ATOM
      1 C          -0.0670   -0.1330    0.0000 C.ar    1  LIG1        0.1526
      2 C          -0.9330   -0.6330    0.0000 C.ar    1  LIG1        0.0884
      3 C          -1.1460   -1.6170    0.0000 C.ar    1  LIG1        0.1039
      4 N          -2.1290   -1.7130    0.0000 N.ar    1  LIG1       -0.0812
      5 O          -2.5420   -0.8130    0.0000 O.2     1  LIG1       -0.3536
      6 C          -1.7960   -0.1330    0.0000 C.ar    1  LIG1        0.1795
      7 C          -1.7960    0.8670    0.0000 C.ar    1  LIG1        0.0404
      8 C          -0.9330    1.3670    0.0000 C.ar    1  LIG1        0.0059
      9 C          -0.0670    0.8670    0.0000 C.ar    1  LIG1        0.0312
     10 C           0.7960    1.3670    0.0000 C.ar    1  LIG1       -0.0125
     11 C           1.6580    0.8670    0.0000 C.ar    1  LIG1        0.0781
     12 C           1.6580   -0.1330    0.0000 C.ar    1  LIG1        0.3456
     13 O           0.7960   -0.6330    0.0000 O.2     1  LIG1       -0.4209
     14 O           2.5380   -0.6460    0.0000 O.2     1  LIG1       -0.2445
     15 C           0.7960    2.3670    0.0000 C.3     1  LIG1        0.0313
     16 C          -0.4750   -2.3630    0.0000 C.3     1  LIG1        0.0558
@<TRIPOS>BOND
     1     1     2   ar
     2     1     9   ar
     3     1    13   ar
     4     2     3   ar
     5     2     6   ar
     6     3     4   ar
     7     3    16    1
     8     4     5   ar
     9     5     6   ar
    10     6     7   ar
    11     7     8   ar
    12     8     9   ar
    13     9    10   ar
    14    10    11   ar
    15    10    15    1
    16    11    12   ar
    17    12    13   ar
    18    12    14    2
