@<TRIPOS>MOLECULE
24433_ChemDiv_5969-0082
 26 29 0 0 0
SMALL
GASTEIGER
Energy = 0

@<TRIPOS>ATOM
      1 C          -1.4080    0.7210    0.0000 C.3     1  LIG1        0.1203
      2 C          -1.4080   -0.2750    0.0000 C.3     1  LIG1        0.1381
      3 O          -2.1540    0.4630    0.0000 O.3     1  LIG1       -0.3499
      4 C          -3.1250    0.7210    0.0000 C.3     1  LIG1        0.1483
      5 C          -2.2580    1.2250    0.0000 C.3     1  LIG1        0.1415
      6 C          -2.2580    2.2380    0.0000 C.2     1  LIG1        0.3198
      7 O          -3.1290    2.7380    0.0000 O.2     1  LIG1       -0.2500
      8 O          -1.4080    2.7380    0.0000 O.3     1  LIG1       -0.4484
      9 C          -0.4380    2.9880    0.0000 C.3     1  LIG1        0.2084
     10 C           0.5170    2.7380    0.0000 C.3     1  LIG1        0.0474
     11 C           1.3790    3.2420    0.0000 C.3     1  LIG1        0.0038
     12 C           2.3500    2.9880    0.0000 C.3     1  LIG1        0.0001
     13 C          -3.1250   -0.2750    0.0000 C.2     1  LIG1        0.0012
     14 C          -2.2580   -0.7750    0.0000 C.2     1  LIG1        0.0002
     15 C          -0.4540   -0.5960    0.0000 C.3     1  LIG1        0.1254
     16 N           0.1460    0.2210    0.0000 N.am    1  LIG1       -0.2726
     17 C          -0.4540    1.0380    0.0000 C.2     1  LIG1        0.2288
     18 O          -0.1380    1.9790    0.0000 O.2     1  LIG1       -0.2748
     19 C           1.1380    0.2210    0.0000 C.3     1  LIG1        0.1202
     20 C           1.6380   -0.6540    0.0000 C.ar    1  LIG1       -0.0024
     21 C           2.6330   -0.6540    0.0000 C.ar    1  LIG1       -0.0029
     22 C           3.1250   -1.5040    0.0000 C.ar    1  LIG1       -0.0045
     23 C           2.6330   -2.3750    0.0000 C.ar    1  LIG1       -0.0219
     24 C           1.6250   -2.3580    0.0000 C.ar    1  LIG1       -0.0045
     25 C           1.1380   -1.5040    0.0000 C.ar    1  LIG1       -0.0029
     26 C           3.1210   -3.2380    0.0000 C.3     1  LIG1        0.0310
@<TRIPOS>BOND
     1     1     2    1
     2     1     5    1
     3     1    17    1
     4     2     3    1
     5     2    14    1
     6     2    15    1
     7     3     4    1
     8     4     5    1
     9     4    13    1
    10     5     6    1
    11     6     7    2
    12     6     8    1
    13     8     9    1
    14     9    10    1
    15    10    11    1
    16    11    12    1
    17    13    14    2
    18    15    16    1
    19    16    17   am
    20    16    19    1
    21    17    18    2
    22    19    20    1
    23    20    21   ar
    24    20    25   ar
    25    21    22   ar
    26    22    23   ar
    27    23    24   ar
    28    23    26    1
    29    24    25   ar
