@<TRIPOS>MOLECULE
24437_ChemDiv_8004-9658
 33 37 0 0 0
SMALL
GASTEIGER
Energy = 0

@<TRIPOS>ATOM
      1 N           3.1790    0.7540    0.0000 N.am    1  LIG1       -0.2254
      2 C           2.6000   -0.0580    0.0000 C.2     1  LIG1        0.2344
      3 C           1.6330    0.2460    0.0000 C.3     1  LIG1        0.1188
      4 C           1.6330    1.2540    0.0000 C.3     1  LIG1        0.1197
      5 C           2.6000    1.5420    0.0000 C.2     1  LIG1        0.2344
      6 O           2.9710    2.4960    0.0000 O.2     1  LIG1       -0.2744
      7 C           0.7670    1.7250    0.0000 C.3     1  LIG1        0.1463
      8 O           0.7670    0.8130    0.0000 O.3     1  LIG1       -0.3499
      9 C           0.7670   -0.2540    0.0000 C.3     1  LIG1        0.1399
     10 C          -0.1170    0.2460    0.0000 C.2     1  LIG1        0.0003
     11 C          -0.1170    1.2540    0.0000 C.2     1  LIG1        0.0011
     12 C           0.7670   -1.2580    0.0000 C.3     1  LIG1        0.1469
     13 N          -0.1000   -1.8080    0.0000 N.am    1  LIG1       -0.1994
     14 C          -1.0080   -1.3420    0.0000 C.2     1  LIG1        0.2860
     15 O          -1.0080   -0.3630    0.0000 O.2     1  LIG1       -0.2693
     16 C          -1.8380   -1.8250    0.0000 C.3     1  LIG1        0.2912
     17 O          -2.7540   -1.2960    0.0000 O.3     1  LIG1       -0.4647
     18 C          -3.6170   -1.7790    0.0000 C.ar    1  LIG1        0.1498
     19 C          -3.6330   -2.8040    0.0000 C.ar    1  LIG1        0.0924
     20 C          -4.4500   -3.2960    0.0000 C.ar    1  LIG1        0.0258
     21 C          -5.3420   -2.8130    0.0000 C.ar    1  LIG1        0.0587
     22 C          -5.3420   -1.8380    0.0000 C.ar    1  LIG1        0.0146
     23 C          -4.4880   -1.3250    0.0000 C.ar    1  LIG1        0.0387
     24 CL         -6.2080   -3.3250    0.0000 Cl      1  LIG1       -0.0822
     25 CL         -2.7830   -3.3380    0.0000 Cl      1  LIG1       -0.0791
     26 O           2.9710   -0.9960    0.0000 O.2     1  LIG1       -0.2744
     27 C           4.2290    0.7540    0.0000 C.3     1  LIG1        0.1274
     28 C           4.7210    1.5960    0.0000 C.ar    1  LIG1       -0.0019
     29 C           4.2540    2.4670    0.0000 C.ar    1  LIG1       -0.0026
     30 C           4.7380    3.3250    0.0000 C.ar    1  LIG1       -0.0003
     31 C           5.7250    3.3420    0.0000 C.ar    1  LIG1       -0.0000
     32 C           6.2080    2.4670    0.0000 C.ar    1  LIG1       -0.0003
     33 C           5.7170    1.5960    0.0000 C.ar    1  LIG1       -0.0026
@<TRIPOS>BOND
     1     1     2   am
     2     1     5   am
     3     1    27    1
     4     2     3    1
     5     2    26    2
     6     3     4    1
     7     3     9    1
     8     4     5    1
     9     4     7    1
    10     5     6    2
    11     7     8    1
    12     7    11    1
    13     8     9    1
    14     9    10    1
    15     9    12    1
    16    10    11    2
    17    12    13    1
    18    13    14   am
    19    14    15    2
    20    14    16    1
    21    16    17    1
    22    17    18    1
    23    18    19   ar
    24    18    23   ar
    25    19    20   ar
    26    19    25    1
    27    20    21   ar
    28    21    22   ar
    29    21    24    1
    30    22    23   ar
    31    27    28    1
    32    28    29   ar
    33    28    33   ar
    34    29    30   ar
    35    30    31   ar
    36    31    32   ar
    37    32    33   ar
