@<TRIPOS>MOLECULE
24435_ChemDiv_6283-0091
 30 34 0 0 0
SMALL
GASTEIGER
Energy = 0

@<TRIPOS>ATOM
      1 C          -1.5580    0.1170    0.0000 C.3     1  LIG1        0.1203
      2 C          -0.5790    0.3250    0.0000 C.2     1  LIG1        0.2290
      3 N          -0.0750   -0.5330    0.0000 N.am    1  LIG1       -0.2708
      4 C          -0.7460   -1.2830    0.0000 C.3     1  LIG1        0.1257
      5 C          -1.6630   -0.8750    0.0000 C.3     1  LIG1        0.1381
      6 O          -2.3080    0.0290    0.0000 O.3     1  LIG1       -0.3499
      7 C          -3.2750    0.2880    0.0000 C.3     1  LIG1        0.1483
      8 C          -2.3580    0.6960    0.0000 C.3     1  LIG1        0.1415
      9 C          -2.2630    1.6880    0.0000 C.2     1  LIG1        0.3198
     10 O          -3.0710    2.2750    0.0000 O.2     1  LIG1       -0.2500
     11 O          -1.3580    2.0920    0.0000 O.3     1  LIG1       -0.4484
     12 C          -1.1000    3.0580    0.0000 C.3     1  LIG1        0.2084
     13 C          -0.1040    3.0580    0.0000 C.3     1  LIG1        0.0474
     14 C           0.1500    4.0210    0.0000 C.3     1  LIG1        0.0040
     15 C          -3.3710   -0.7000    0.0000 C.2     1  LIG1        0.0012
     16 C          -2.5670   -1.2880    0.0000 C.2     1  LIG1        0.0002
     17 C           0.7880   -1.0330    0.0000 C.3     1  LIG1        0.1205
     18 C           0.7960   -2.0290    0.0000 C.ar    1  LIG1       -0.0001
     19 C          -0.0670   -2.5290    0.0000 C.ar    1  LIG1       -0.0023
     20 C          -0.0670   -3.5250    0.0000 C.ar    1  LIG1       -0.0003
     21 C           0.7960   -4.0210    0.0000 C.ar    1  LIG1       -0.0000
     22 C           1.6630   -3.5250    0.0000 C.ar    1  LIG1       -0.0003
     23 C           1.6630   -2.5290    0.0000 C.ar    1  LIG1       -0.0023
     24 C           1.6580   -0.5290    0.0000 C.ar    1  LIG1       -0.0001
     25 C           1.6580    0.4630    0.0000 C.ar    1  LIG1       -0.0023
     26 C           2.5080    0.9500    0.0000 C.ar    1  LIG1       -0.0003
     27 C           3.3670    0.4630    0.0000 C.ar    1  LIG1       -0.0000
     28 C           3.3670   -0.5330    0.0000 C.ar    1  LIG1       -0.0003
     29 C           2.5080   -1.0290    0.0000 C.ar    1  LIG1       -0.0023
     30 O          -0.1790    1.2460    0.0000 O.2     1  LIG1       -0.2748
@<TRIPOS>BOND
     1     1     2    1
     2     1     5    1
     3     1     8    1
     4     2     3   am
     5     2    30    2
     6     3     4    1
     7     3    17    1
     8     4     5    1
     9     5     6    1
    10     5    16    1
    11     6     7    1
    12     7     8    1
    13     7    15    1
    14     8     9    1
    15     9    10    2
    16     9    11    1
    17    11    12    1
    18    12    13    1
    19    13    14    1
    20    15    16    2
    21    17    18    1
    22    17    24    1
    23    18    19   ar
    24    18    23   ar
    25    19    20   ar
    26    20    21   ar
    27    21    22   ar
    28    22    23   ar
    29    24    25   ar
    30    24    29   ar
    31    25    26   ar
    32    26    27   ar
    33    27    28   ar
    34    28    29   ar
