@<TRIPOS>MOLECULE
24441_ChemDiv_8004-9662
 33 37 0 0 0
SMALL
GASTEIGER
Energy = 0

@<TRIPOS>ATOM
      1 N           2.8000    0.8040    0.0000 N.am    1  LIG1       -0.2254
      2 C           2.2500    0.0040    0.0000 C.2     1  LIG1        0.2344
      3 C           1.2670    0.3080    0.0000 C.3     1  LIG1        0.1186
      4 C           1.2670    1.3210    0.0000 C.3     1  LIG1        0.1196
      5 C           2.2500    1.5830    0.0000 C.2     1  LIG1        0.2344
      6 O           2.5880    2.5380    0.0000 O.2     1  LIG1       -0.2744
      7 C           0.4290    1.7830    0.0000 C.3     1  LIG1        0.1463
      8 O           0.4290    0.8580    0.0000 O.3     1  LIG1       -0.3501
      9 C           0.4290   -0.1290    0.0000 C.3     1  LIG1        0.1378
     10 C          -0.4710    0.3080    0.0000 C.2     1  LIG1        0.0000
     11 C          -0.4710    1.3210    0.0000 C.2     1  LIG1        0.0011
     12 C           0.4290   -1.1540    0.0000 C.3     1  LIG1        0.1472
     13 N          -0.4710   -1.7040    0.0000 N.3     1  LIG1       -0.0749
     14 S          -1.6540   -1.7040    0.0000 S.O2    1  LIG1        0.0763
     15 C          -2.7500   -1.7040    0.0000 C.ar    1  LIG1        0.1156
     16 C          -3.2210   -0.8540    0.0000 C.ar    1  LIG1       -0.0038
     17 C          -4.2210   -0.8540    0.0000 C.ar    1  LIG1       -0.0072
     18 C          -4.7380   -1.7040    0.0000 C.ar    1  LIG1       -0.0224
     19 C          -4.2540   -2.5670    0.0000 C.ar    1  LIG1       -0.0072
     20 C          -3.2580   -2.5670    0.0000 C.ar    1  LIG1       -0.0038
     21 C          -2.7630   -3.4500    0.0000 C.3     1  LIG1        0.0324
     22 C          -5.7500   -1.7130    0.0000 C.3     1  LIG1        0.0310
     23 C          -2.7170    0.0040    0.0000 C.3     1  LIG1        0.0324
     24 O          -1.6540   -2.5540    0.0000 O.2     1  LIG1       -0.1516
     25 O          -1.6540   -0.7290    0.0000 O.2     1  LIG1       -0.1516
     26 O           2.5880   -0.9130    0.0000 O.2     1  LIG1       -0.2744
     27 C           3.7880    0.8040    0.0000 C.3     1  LIG1        0.1274
     28 C           4.2750    1.6750    0.0000 C.ar    1  LIG1       -0.0019
     29 C           5.2830    1.6750    0.0000 C.ar    1  LIG1       -0.0026
     30 C           5.7460    2.5880    0.0000 C.ar    1  LIG1       -0.0003
     31 C           5.2380    3.4540    0.0000 C.ar    1  LIG1       -0.0000
     32 C           4.2750    3.4540    0.0000 C.ar    1  LIG1       -0.0003
     33 C           3.7670    2.5170    0.0000 C.ar    1  LIG1       -0.0026
@<TRIPOS>BOND
     1     1     2   am
     2     1     5   am
     3     1    27    1
     4     2     3    1
     5     2    26    2
     6     3     4    1
     7     3     9    1
     8     4     5    1
     9     4     7    1
    10     5     6    2
    11     7     8    1
    12     7    11    1
    13     8     9    1
    14     9    10    1
    15     9    12    1
    16    10    11    2
    17    12    13    1
    18    13    14    1
    19    14    15    1
    20    14    24    2
    21    14    25    2
    22    15    16   ar
    23    15    20   ar
    24    16    17   ar
    25    16    23    1
    26    17    18   ar
    27    18    19   ar
    28    18    22    1
    29    19    20   ar
    30    20    21    1
    31    27    28    1
    32    28    29   ar
    33    28    33   ar
    34    29    30   ar
    35    30    31   ar
    36    31    32   ar
    37    32    33   ar
