@<TRIPOS>MOLECULE
24445_ChemDiv_C123-0492
 32 37 0 0 0
SMALL
GASTEIGER
Energy = 0

@<TRIPOS>ATOM
      1 C           2.1130   -0.3960    0.0000 C.3     1  LIG1        0.1184
      2 C           2.9630   -0.8710    0.0000 C.3     1  LIG1        0.1381
      3 O           1.9750   -1.0960    0.0000 O.3     1  LIG1       -0.3499
      4 C           1.2330   -1.8750    0.0000 C.3     1  LIG1        0.1464
      5 C           1.2500   -0.8920    0.0000 C.3     1  LIG1        0.1207
      6 C           0.3710   -0.3830    0.0000 C.2     1  LIG1        0.2445
      7 N          -0.4880   -0.8830    0.0000 N.am    1  LIG1       -0.2005
      8 C          -0.4880   -1.7920    0.0000 C.3     1  LIG1        0.1416
      9 C          -1.2420   -2.2080    0.0000 C.ar    1  LIG1        0.0027
     10 C          -1.2750   -3.1420    0.0000 C.ar    1  LIG1        0.0376
     11 C          -2.1210   -3.6210    0.0000 C.ar    1  LIG1        0.1762
     12 C          -2.9540   -3.0960    0.0000 C.ar    1  LIG1        0.1764
     13 O          -3.7790   -4.4750    0.0000 O.3     1  LIG1       -0.4346
     14 C          -2.9580   -4.9880    0.0000 C.3     1  LIG1        0.4294
     15 O          -2.1420   -4.5580    0.0000 O.3     1  LIG1       -0.4346
     16 C          -2.9000   -2.1460    0.0000 C.ar    1  LIG1        0.0399
     17 C          -2.0790   -1.6920    0.0000 C.ar    1  LIG1        0.0008
     18 O           0.3710    0.6040    0.0000 O.2     1  LIG1       -0.2732
     19 C           2.1080   -2.3750    0.0000 C.2     1  LIG1        0.0011
     20 C           2.9750   -1.8750    0.0000 C.2     1  LIG1        0.0002
     21 C           3.6960   -0.2130    0.0000 C.3     1  LIG1        0.1254
     22 N           3.2920    0.6790    0.0000 N.am    1  LIG1       -0.2726
     23 C           2.3040    0.5710    0.0000 C.2     1  LIG1        0.2288
     24 O           1.6380    1.3130    0.0000 O.2     1  LIG1       -0.2748
     25 C           3.7750    1.5540    0.0000 C.3     1  LIG1        0.1202
     26 C           3.2630    2.4210    0.0000 C.ar    1  LIG1       -0.0024
     27 C           2.2630    2.3880    0.0000 C.ar    1  LIG1       -0.0029
     28 C           1.7330    3.2500    0.0000 C.ar    1  LIG1       -0.0045
     29 C           2.2170    4.1330    0.0000 C.ar    1  LIG1       -0.0219
     30 C           3.2290    4.1540    0.0000 C.ar    1  LIG1       -0.0045
     31 C           3.7420    3.2960    0.0000 C.ar    1  LIG1       -0.0029
     32 C           1.6960    4.9880    0.0000 C.3     1  LIG1        0.0310
@<TRIPOS>BOND
     1     1     2    1
     2     1     5    1
     3     1    23    1
     4     2     3    1
     5     2    20    1
     6     2    21    1
     7     3     4    1
     8     4     5    1
     9     4    19    1
    10     5     6    1
    11     6     7   am
    12     6    18    2
    13     7     8    1
    14     8     9    1
    15     9    10   ar
    16     9    17   ar
    17    10    11   ar
    18    11    12   ar
    19    11    15    1
    20    12    13    1
    21    12    16   ar
    22    13    14    1
    23    14    15    1
    24    16    17   ar
    25    19    20    2
    26    21    22    1
    27    22    23   am
    28    22    25    1
    29    23    24    2
    30    25    26    1
    31    26    27   ar
    32    26    31   ar
    33    27    28   ar
    34    28    29   ar
    35    29    30   ar
    36    29    32    1
    37    30    31   ar
