@<TRIPOS>MOLECULE
24446_ChemDiv_K834-3370
 32 35 0 0 0
SMALL
GASTEIGER
Energy = 0

@<TRIPOS>ATOM
      1 S          -0.8710    2.0210    0.0000 S.O2    1  LIG1        0.0634
      2 N          -1.7420    2.5420    0.0000 N.3     1  LIG1       -0.1504
      3 C          -1.7420    3.5460    0.0000 C.3     1  LIG1        0.1279
      4 C          -2.6130    4.0460    0.0000 C.3     1  LIG1        0.1613
      5 O          -3.4790    3.5460    0.0000 O.3     1  LIG1       -0.3507
      6 C          -3.4790    2.5420    0.0000 C.3     1  LIG1        0.1613
      7 C          -2.6130    2.0380    0.0000 C.3     1  LIG1        0.1279
      8 C           0.0170    1.5130    0.0000 C.ar    1  LIG1        0.1224
      9 C           0.0040    0.4960    0.0000 C.ar    1  LIG1        0.0250
     10 C           0.8750   -0.0080    0.0000 C.ar    1  LIG1        0.0623
     11 C           0.8750   -1.0040    0.0000 C.2     1  LIG1        0.2653
     12 N           0.0040   -1.5210    0.0000 N.am    1  LIG1       -0.2034
     13 C          -0.8710   -1.0170    0.0000 C.3     1  LIG1        0.0956
     14 C          -1.7420   -1.5210    0.0000 C.3     1  LIG1        0.0217
     15 C          -2.6040   -1.0170    0.0000 C.3     1  LIG1        0.0018
     16 C          -2.6040   -0.0080    0.0000 C.3     1  LIG1        0.0001
     17 C          -1.7420    0.4960    0.0000 C.3     1  LIG1        0.0018
     18 C          -0.8710   -0.0080    0.0000 C.3     1  LIG1        0.0217
     19 O           1.7500   -1.5210    0.0000 O.2     1  LIG1       -0.2684
     20 C           1.7500    0.4960    0.0000 C.ar    1  LIG1        0.0339
     21 S           2.6210   -0.0250    0.0000 S.3     1  LIG1       -0.0868
     22 C           2.6170   -1.0330    0.0000 C.ar    1  LIG1        0.0295
     23 C           1.9170   -1.4170    0.0000 C.ar    1  LIG1        0.0070
     24 C           1.8830   -2.4210    0.0000 C.ar    1  LIG1        0.0072
     25 C           2.6170   -3.0420    0.0000 C.ar    1  LIG1        0.0346
     26 BR          2.5000   -4.0460    0.0000 Br      1  LIG1       -0.0490
     27 C           3.4750   -2.5380    0.0000 C.ar    1  LIG1        0.0072
     28 C           3.4750   -1.5380    0.0000 C.ar    1  LIG1        0.0070
     29 C           1.7500    1.5130    0.0000 C.ar    1  LIG1        0.0080
     30 C           0.8750    2.0170    0.0000 C.ar    1  LIG1        0.0204
     31 O          -1.3880    1.1500    0.0000 O.2     1  LIG1       -0.1528
     32 O          -0.3500    2.8920    0.0000 O.2     1  LIG1       -0.1528
@<TRIPOS>BOND
     1     1     2    1
     2     1     8    1
     3     1    31    2
     4     1    32    2
     5     2     3    1
     6     2     7    1
     7     3     4    1
     8     4     5    1
     9     5     6    1
    10     6     7    1
    11     8     9   ar
    12     8    30   ar
    13     9    10   ar
    14    10    11    1
    15    10    20   ar
    16    11    12   am
    17    11    19    2
    18    12    13    1
    19    13    14    1
    20    13    18    1
    21    14    15    1
    22    15    16    1
    23    16    17    1
    24    17    18    1
    25    20    21    1
    26    20    29   ar
    27    21    22    1
    28    22    23   ar
    29    22    28   ar
    30    23    24   ar
    31    24    25   ar
    32    25    26    1
    33    25    27   ar
    34    27    28   ar
    35    29    30   ar
