@<TRIPOS>MOLECULE
24447_ChemDiv_K784-4909
 24 27 0 0 0
SMALL
GASTEIGER
Energy = 0

@<TRIPOS>ATOM
      1 C          -1.6920    0.7210    0.0000 C.3     1  LIG1        0.1148
      2 C          -1.7040    1.7080    0.0000 C.3     1  LIG1        0.1378
      3 O          -2.4580    0.9790    0.0000 O.3     1  LIG1       -0.3527
      4 C          -3.4170    0.7130    0.0000 C.3     1  LIG1        0.1166
      5 C          -2.5670    0.2210    0.0000 C.3     1  LIG1        0.0766
      6 C          -2.5540   -0.7790    0.0000 C.2     1  LIG1        0.0532
      7 O          -1.6920   -1.2750    0.0000 O.co2   1  LIG1       -0.5491
      8 O          -3.4290   -1.2880    0.0000 O.co2   1  LIG1       -0.5491
      9 C          -3.4170    1.7080    0.0000 C.2     1  LIG1       -0.0016
     10 C          -2.5670    2.2210    0.0000 C.2     1  LIG1        0.0001
     11 C          -4.3420    0.3290    0.0000 C.3     1  LIG1        0.0346
     12 C          -0.7540    2.0210    0.0000 C.3     1  LIG1        0.1251
     13 N          -0.1630    1.2250    0.0000 N.am    1  LIG1       -0.2765
     14 C          -0.7500    0.4170    0.0000 C.2     1  LIG1        0.2284
     15 O          -0.4290   -0.5330    0.0000 O.2     1  LIG1       -0.2748
     16 C           0.8330    1.2380    0.0000 C.3     1  LIG1        0.0997
     17 C           1.3420    0.3750    0.0000 C.3     1  LIG1        0.0841
     18 C           2.3380    0.3750    0.0000 C.3     1  LIG1        0.1406
     19 N           2.8380   -0.4920    0.0000 N.4     1  LIG1        0.3813
     20 C           2.3380   -1.3540    0.0000 C.3     1  LIG1        0.1713
     21 C           2.8380   -2.2170    0.0000 C.3     1  LIG1        0.2047
     22 O           3.8380   -2.2170    0.0000 O.3     1  LIG1       -0.3411
     23 C           4.3380   -1.3460    0.0000 C.3     1  LIG1        0.2047
     24 C           3.8380   -0.4750    0.0000 C.3     1  LIG1        0.1713
@<TRIPOS>BOND
     1     1     2    1
     2     1     5    1
     3     1    14    1
     4     2     3    1
     5     2    10    1
     6     2    12    1
     7     3     4    1
     8     4     5    1
     9     4     9    1
    10     4    11    1
    11     5     6    1
    12     6     7   ar
    13     6     8   ar
    14     9    10    2
    15    12    13    1
    16    13    14   am
    17    13    16    1
    18    14    15    2
    19    16    17    1
    20    17    18    1
    21    18    19    1
    22    19    20    1
    23    19    24    1
    24    20    21    1
    25    21    22    1
    26    22    23    1
    27    23    24    1
