@<TRIPOS>MOLECULE
24443_ChemDiv_C123-0472
 31 35 0 0 0
SMALL
GASTEIGER
Energy = 0

@<TRIPOS>ATOM
      1 C          -0.0290    0.2130    0.0000 C.3     1  LIG1        0.1184
      2 C           0.8330   -0.2580    0.0000 C.3     1  LIG1        0.1381
      3 O          -0.1500   -0.4920    0.0000 O.3     1  LIG1       -0.3499
      4 C          -0.8920   -1.2630    0.0000 C.3     1  LIG1        0.1464
      5 C          -0.8920   -0.2790    0.0000 C.3     1  LIG1        0.1207
      6 C          -1.7540    0.2250    0.0000 C.2     1  LIG1        0.2442
      7 O          -1.7540    1.2130    0.0000 O.2     1  LIG1       -0.2732
      8 N          -2.6130   -0.2750    0.0000 N.am    1  LIG1       -0.2051
      9 C          -2.6130   -1.2630    0.0000 C.3     1  LIG1        0.1213
     10 C          -1.7540   -1.7750    0.0000 C.3     1  LIG1        0.0861
     11 C          -1.7540   -2.7710    0.0000 C.3     1  LIG1        0.1407
     12 N          -0.8750   -3.2830    0.0000 N.4     1  LIG1        0.3813
     13 C          -0.8750   -4.2790    0.0000 C.3     1  LIG1        0.1713
     14 C          -0.0170   -4.7630    0.0000 C.3     1  LIG1        0.2047
     15 O           0.8460   -4.2670    0.0000 O.3     1  LIG1       -0.3411
     16 C           0.8540   -3.2710    0.0000 C.3     1  LIG1        0.2047
     17 C          -0.0170   -2.7710    0.0000 C.3     1  LIG1        0.1713
     18 C          -0.0290   -1.7630    0.0000 C.2     1  LIG1        0.0011
     19 C           0.8330   -1.2630    0.0000 C.2     1  LIG1        0.0002
     20 C           1.5670    0.3960    0.0000 C.3     1  LIG1        0.1254
     21 N           1.1630    1.2880    0.0000 N.am    1  LIG1       -0.2726
     22 C           0.1750    1.1830    0.0000 C.2     1  LIG1        0.2288
     23 O          -0.4920    1.9330    0.0000 O.2     1  LIG1       -0.2748
     24 C           1.6500    2.1630    0.0000 C.3     1  LIG1        0.1211
     25 C           1.1290    3.0290    0.0000 C.ar    1  LIG1        0.0083
     26 C           1.6040    3.9040    0.0000 C.ar    1  LIG1        0.0553
     27 CL          2.6080    3.9330    0.0000 Cl      1  LIG1       -0.0825
     28 C           1.0880    4.7630    0.0000 C.ar    1  LIG1        0.0111
     29 C           0.0830    4.7420    0.0000 C.ar    1  LIG1        0.0008
     30 C          -0.4000    3.8580    0.0000 C.ar    1  LIG1       -0.0002
     31 C           0.1210    2.9960    0.0000 C.ar    1  LIG1       -0.0018
@<TRIPOS>BOND
     1     1     2    1
     2     1     5    1
     3     1    22    1
     4     2     3    1
     5     2    19    1
     6     2    20    1
     7     3     4    1
     8     4     5    1
     9     4    18    1
    10     5     6    1
    11     6     7    2
    12     6     8   am
    13     8     9    1
    14     9    10    1
    15    10    11    1
    16    11    12    1
    17    12    13    1
    18    12    17    1
    19    13    14    1
    20    14    15    1
    21    15    16    1
    22    16    17    1
    23    18    19    2
    24    20    21    1
    25    21    22   am
    26    21    24    1
    27    22    23    2
    28    24    25    1
    29    25    26   ar
    30    25    31   ar
    31    26    27    1
    32    26    28   ar
    33    28    29   ar
    34    29    30   ar
    35    30    31   ar
