@<TRIPOS>MOLECULE
24450_ChemDiv_0407-0095
 24 27 0 0 0
SMALL
GASTEIGER
Energy = 0

@<TRIPOS>ATOM
      1 C          -0.2920    0.4830    0.0000 C.ar    1  LIG1        0.0993
      2 C          -0.2920   -0.5130    0.0000 C.3     1  LIG1        0.1504
      3 C          -1.1420   -0.9960    0.0000 C.3     1  LIG1        0.2429
      4 C          -1.9880   -0.5330    0.0000 C.3     1  LIG1        0.1670
      5 O          -1.9880    0.4630    0.0000 O.3     1  LIG1       -0.4799
      6 C          -1.1420    0.9710    0.0000 C.ar    1  LIG1        0.1427
      7 C          -1.1420    1.9460    0.0000 C.ar    1  LIG1        0.0370
      8 C          -0.2920    2.4290    0.0000 C.ar    1  LIG1        0.0061
      9 C           0.5330    1.9670    0.0000 C.ar    1  LIG1        0.0350
     10 C           0.5540    0.9710    0.0000 C.ar    1  LIG1        0.1530
     11 O           1.4250    0.4830    0.0000 O.2     1  LIG1       -0.4211
     12 C           2.2790    1.0170    0.0000 C.ar    1  LIG1        0.3459
     13 C           2.2630    2.0080    0.0000 C.ar    1  LIG1        0.0824
     14 C           1.3790    2.4830    0.0000 C.ar    1  LIG1        0.0097
     15 O           3.1250    0.4830    0.0000 O.2     1  LIG1       -0.2445
     16 C          -3.1290   -0.6420    0.0000 C.3     1  LIG1        0.0465
     17 C          -2.5920   -1.6170    0.0000 C.3     1  LIG1        0.0465
     18 O          -1.1420   -1.9960    0.0000 O.3     1  LIG1       -0.2128
     19 N           0.5540   -1.0210    0.0000 N.4     1  LIG1        0.3823
     20 C           1.4000   -0.5330    0.0000 C.3     1  LIG1        0.1716
     21 C           2.2500   -1.0210    0.0000 C.3     1  LIG1        0.2048
     22 O           2.2250   -2.0170    0.0000 O.3     1  LIG1       -0.3411
     23 C           1.3790   -2.4790    0.0000 C.3     1  LIG1        0.2048
     24 C           0.5330   -1.9960    0.0000 C.3     1  LIG1        0.1716
@<TRIPOS>BOND
     1     1     2    1
     2     1     6   ar
     3     1    10   ar
     4     2     3    1
     5     2    19    1
     6     3     4    1
     7     3    18    1
     8     4     5    1
     9     4    16    1
    10     4    17    1
    11     5     6    1
    12     6     7   ar
    13     7     8   ar
    14     8     9   ar
    15     9    10   ar
    16     9    14   ar
    17    10    11   ar
    18    11    12   ar
    19    12    13   ar
    20    12    15    2
    21    13    14   ar
    22    19    20    1
    23    19    24    1
    24    20    21    1
    25    21    22    1
    26    22    23    1
    27    23    24    1
