@<TRIPOS>MOLECULE
24466_ChemDiv_000A-1064
 22 23 0 0 0
SMALL
GASTEIGER
Energy = 0

@<TRIPOS>ATOM
      1 C          -1.4040   -0.0290    0.0000 C.3     1  LIG1        0.0259
      2 C          -0.5710    0.4460    0.0000 C.3     1  LIG1        0.1267
      3 C          -0.5710    1.4000    0.0000 C.3     1  LIG1        0.0347
      4 C           0.2630    1.8710    0.0000 C.3     1  LIG1        0.0243
      5 C           1.1000    1.4000    0.0000 C.2     1  LIG1       -0.0456
      6 C           1.1000    0.4460    0.0000 C.2     1  LIG1        0.0006
      7 C           1.9330   -0.0290    0.0000 C.3     1  LIG1        0.2077
      8 O           3.0960    0.4210    0.0000 O.3     1  LIG1       -0.2152
      9 C           2.0380    1.9460    0.0000 C.3     1  LIG1        0.0261
     10 C           0.2630   -0.0290    0.0000 C.3     1  LIG1        0.0281
     11 C           0.2630   -0.9750    0.0000 C.3     1  LIG1        0.0024
     12 C          -0.5710   -1.4500    0.0000 C.3     1  LIG1        0.0002
     13 C          -1.4040   -0.9750    0.0000 C.3     1  LIG1        0.0023
     14 C          -2.2380   -1.4500    0.0000 C.3     1  LIG1        0.0001
     15 C          -3.0710   -0.9750    0.0000 C.3     1  LIG1        0.0000
     16 C          -3.0710   -0.0290    0.0000 C.3     1  LIG1        0.0001
     17 C          -2.2380    0.4460    0.0000 C.3     1  LIG1        0.0024
     18 C          -3.1000   -1.9420    0.0000 C.3     1  LIG1        0.0000
     19 C          -1.3040   -1.9130    0.0000 C.3     1  LIG1        0.0000
     20 C           1.1960   -0.5880    0.0000 C.3     1  LIG1        0.0025
     21 O           0.2790    0.9790    0.0000 O.3     1  LIG1       -0.2257
     22 C          -1.4040    1.2130    0.0000 C.3     1  LIG1        0.0024
@<TRIPOS>BOND
     1     1     2    1
     2     1    13    1
     3     1    17    1
     4     1    22    1
     5     2     3    1
     6     2    10    1
     7     2    21    1
     8     3     4    1
     9     4     5    1
    10     5     6    2
    11     5     9    1
    12     6     7    1
    13     7     8    1
    14    10    11    1
    15    10    20    1
    16    11    12    1
    17    12    13    1
    18    13    14    1
    19    14    15    1
    20    14    18    1
    21    14    19    1
    22    15    16    1
    23    16    17    1
