@<TRIPOS>MOLECULE
24468_ChemDiv_N003-0009
 22 23 0 0 0
SMALL
GASTEIGER
Energy = 0

@<TRIPOS>ATOM
      1 C          -1.4040   -0.0290    0.0000 C.3     1  LIG1        0.0023
      2 C          -1.4040   -0.9750    0.0000 C.3     1  LIG1        0.0002
      3 C          -2.2380   -1.4500    0.0000 C.3     1  LIG1        0.0000
      4 C          -3.0710   -0.9750    0.0000 C.3     1  LIG1        0.0000
      5 C          -3.0710   -0.0290    0.0000 C.3     1  LIG1        0.0000
      6 C          -2.2380    0.4460    0.0000 C.3     1  LIG1        0.0001
      7 C          -1.3040   -1.9130    0.0000 C.3     1  LIG1        0.0000
      8 C          -3.1000   -1.9420    0.0000 C.3     1  LIG1        0.0000
      9 C          -0.5710   -1.4500    0.0000 C.3     1  LIG1        0.0025
     10 C           0.2630   -0.9750    0.0000 C.3     1  LIG1        0.0304
     11 C           0.2630   -0.0290    0.0000 C.3     1  LIG1        0.1266
     12 C          -0.5710    0.4460    0.0000 C.3     1  LIG1        0.0284
     13 C          -0.5710    1.4000    0.0000 C.3     1  LIG1        0.0068
     14 C           0.2630    1.8710    0.0000 C.3     1  LIG1        0.0219
     15 C           1.1000    1.4000    0.0000 C.2     1  LIG1       -0.0457
     16 C           1.1000    0.4460    0.0000 C.2     1  LIG1        0.0006
     17 C           1.9330   -0.0290    0.0000 C.3     1  LIG1        0.2077
     18 O           3.0960    0.4210    0.0000 O.3     1  LIG1       -0.2152
     19 C           2.0380    1.9460    0.0000 C.3     1  LIG1        0.0261
     20 O           1.1960   -0.5880    0.0000 O.3     1  LIG1       -0.2257
     21 C           0.2790    0.9790    0.0000 C.3     1  LIG1        0.0329
     22 C          -1.4040    1.2130    0.0000 C.3     1  LIG1        0.0001
@<TRIPOS>BOND
     1     1     2    1
     2     1     6    1
     3     1    12    1
     4     1    22    1
     5     2     3    1
     6     2     9    1
     7     3     4    1
     8     3     7    1
     9     3     8    1
    10     4     5    1
    11     5     6    1
    12     9    10    1
    13    10    11    1
    14    11    12    1
    15    11    20    1
    16    11    21    1
    17    12    13    1
    18    13    14    1
    19    14    15    1
    20    15    16    2
    21    15    19    1
    22    16    17    1
    23    17    18    1
