@<TRIPOS>MOLECULE
24469_ChemDiv_1574-1743
 22 24 0 0 0
SMALL
GASTEIGER
Energy = 0

@<TRIPOS>ATOM
      1 C           1.2170   -0.0080    0.0000 C.2     1  LIG1        0.0756
      2 N           2.0920    0.5000    0.0000 N.2     1  LIG1       -0.2739
      3 C           2.0920    1.5130    0.0000 C.3     1  LIG1        0.0888
      4 C           1.2170    2.0000    0.0000 C.3     1  LIG1        0.0489
      5 C           0.3500    1.5130    0.0000 C.ar    1  LIG1       -0.0157
      6 C           0.3500    0.5000    0.0000 C.ar    1  LIG1        0.0165
      7 C          -0.5040   -0.0080    0.0000 C.ar    1  LIG1        0.0412
      8 C          -1.3750    0.5000    0.0000 C.ar    1  LIG1        0.1724
      9 C          -1.3750    1.5130    0.0000 C.ar    1  LIG1        0.1721
     10 C          -0.5040    2.0000    0.0000 C.ar    1  LIG1        0.0359
     11 O          -2.2330    2.0170    0.0000 O.3     1  LIG1       -0.4684
     12 C          -2.2080    3.0130    0.0000 C.3     1  LIG1        0.2526
     13 O          -2.2330    0.0000    0.0000 O.3     1  LIG1       -0.4684
     14 C          -3.0880    0.5000    0.0000 C.3     1  LIG1        0.2526
     15 C           3.0830    1.5130    0.0000 C.3     1  LIG1        0.0247
     16 C           1.7420    2.4460    0.0000 C.3     1  LIG1        0.0247
     17 C           1.2170   -1.0000    0.0000 C.ar    1  LIG1        0.0172
     18 C           0.3500   -1.5080    0.0000 C.ar    1  LIG1        0.0015
     19 C           0.3500   -2.5040    0.0000 C.ar    1  LIG1        0.0000
     20 C           1.2170   -3.0080    0.0000 C.ar    1  LIG1        0.0000
     21 C           2.0790   -2.5040    0.0000 C.ar    1  LIG1        0.0000
     22 C           2.0790   -1.5080    0.0000 C.ar    1  LIG1        0.0015
@<TRIPOS>BOND
     1     1     2    2
     2     1     6    1
     3     1    17    1
     4     2     3    1
     5     3     4    1
     6     3    15    1
     7     3    16    1
     8     4     5    1
     9     5     6   ar
    10     5    10   ar
    11     6     7   ar
    12     7     8   ar
    13     8     9   ar
    14     8    13    1
    15     9    10   ar
    16     9    11    1
    17    11    12    1
    18    13    14    1
    19    17    18   ar
    20    17    22   ar
    21    18    19   ar
    22    19    20   ar
    23    20    21   ar
    24    21    22   ar
