@<TRIPOS>MOLECULE
24462_ChemDiv_6944-0107
 24 27 0 0 0
SMALL
GASTEIGER
Energy = 0

@<TRIPOS>ATOM
      1 C          -0.4330    0.4790    0.0000 C.ar    1  LIG1        0.0993
      2 C          -0.4210   -0.5130    0.0000 C.3     1  LIG1        0.1502
      3 C          -1.2830   -1.0170    0.0000 C.3     1  LIG1        0.2429
      4 C          -2.1500   -0.5290    0.0000 C.3     1  LIG1        0.1670
      5 O          -2.1540    0.4670    0.0000 O.3     1  LIG1       -0.4799
      6 C          -1.3000    0.9710    0.0000 C.ar    1  LIG1        0.1427
      7 C          -1.3250    1.9670    0.0000 C.ar    1  LIG1        0.0370
      8 C          -0.4630    2.4790    0.0000 C.ar    1  LIG1        0.0061
      9 C           0.4170    1.9960    0.0000 C.ar    1  LIG1        0.0350
     10 C           0.4250    1.0000    0.0000 C.ar    1  LIG1        0.1530
     11 O           1.2880    0.5000    0.0000 O.2     1  LIG1       -0.4211
     12 C           2.1540    1.0040    0.0000 C.ar    1  LIG1        0.3459
     13 C           2.1460    2.0080    0.0000 C.ar    1  LIG1        0.0824
     14 C           1.2790    2.5040    0.0000 C.ar    1  LIG1        0.0097
     15 O           3.0250    0.5040    0.0000 O.2     1  LIG1       -0.2445
     16 C          -3.0290   -0.0420    0.0000 C.3     1  LIG1        0.0465
     17 C          -2.1250   -1.5290    0.0000 C.3     1  LIG1        0.0465
     18 O          -1.2750   -2.0210    0.0000 O.3     1  LIG1       -0.2128
     19 N           0.4540   -1.0080    0.0000 N.4     1  LIG1        0.3783
     20 C           0.4630   -2.0080    0.0000 C.3     1  LIG1        0.1388
     21 C           1.3290   -2.5000    0.0000 C.3     1  LIG1        0.0629
     22 C           2.1960   -1.9920    0.0000 C.3     1  LIG1        0.0123
     23 C           2.1830   -0.9880    0.0000 C.3     1  LIG1        0.0629
     24 C           1.3130   -0.4920    0.0000 C.3     1  LIG1        0.1388
@<TRIPOS>BOND
     1     1     2    1
     2     1     6   ar
     3     1    10   ar
     4     2     3    1
     5     2    19    1
     6     3     4    1
     7     3    18    1
     8     4     5    1
     9     4    16    1
    10     4    17    1
    11     5     6    1
    12     6     7   ar
    13     7     8   ar
    14     8     9   ar
    15     9    10   ar
    16     9    14   ar
    17    10    11   ar
    18    11    12   ar
    19    12    13   ar
    20    12    15    2
    21    13    14   ar
    22    19    20    1
    23    19    24    1
    24    20    21    1
    25    21    22    1
    26    22    23    1
    27    23    24    1
