@<TRIPOS>MOLECULE
24465_ChemDiv_000A-0947
 25 28 0 0 0
SMALL
GASTEIGER
Energy = 0

@<TRIPOS>ATOM
      1 C          -0.4420   -0.8540    0.0000 C.ar    1  LIG1        0.1632
      2 C          -1.3920   -1.1630    0.0000 C.ar    1  LIG1        0.1218
      3 N          -2.1330   -0.4790    0.0000 N.ar    1  LIG1       -0.2045
      4 C          -1.9210    0.5040    0.0000 C.ar    1  LIG1        0.2856
      5 C          -0.9710    0.8380    0.0000 C.ar    1  LIG1        0.1362
      6 C          -0.2330    0.1540    0.0000 C.ar    1  LIG1        0.0470
      7 C           0.7170    0.4380    0.0000 C.ar    1  LIG1        0.0033
      8 C           1.4580   -0.2710    0.0000 C.ar    1  LIG1        0.0001
      9 C           2.4080    0.0380    0.0000 C.ar    1  LIG1        0.0000
     10 C           2.6540    0.9960    0.0000 C.ar    1  LIG1        0.0000
     11 C           1.9170    1.6790    0.0000 C.ar    1  LIG1        0.0000
     12 C           0.9670    1.3960    0.0000 C.ar    1  LIG1        0.0001
     13 C          -0.7630    1.8420    0.0000 C.2     1  LIG1        0.3460
     14 O           0.1920    2.1710    0.0000 O.2     1  LIG1       -0.2447
     15 O          -1.4960    2.4960    0.0000 O.3     1  LIG1       -0.4453
     16 C          -1.2750    3.4580    0.0000 C.3     1  LIG1        0.2089
     17 C          -2.0130    4.1170    0.0000 C.3     1  LIG1        0.0513
     18 O          -2.6580    1.1630    0.0000 O.3     1  LIG1       -0.2650
     19 C          -1.3920   -2.1420    0.0000 C.ar    1  LIG1        0.0553
     20 C          -0.4750   -2.4500    0.0000 C.ar    1  LIG1        0.1468
     21 O           0.1210   -1.6540    0.0000 O.2     1  LIG1       -0.4519
     22 C          -0.2710   -3.4380    0.0000 C.ar    1  LIG1        0.0375
     23 C          -1.0040   -4.1170    0.0000 C.ar    1  LIG1        0.0031
     24 C          -1.9540   -3.8080    0.0000 C.ar    1  LIG1        0.0003
     25 C          -2.1670   -2.8210    0.0000 C.ar    1  LIG1        0.0046
@<TRIPOS>BOND
     1     1     2   ar
     2     1     6   ar
     3     1    21   ar
     4     2     3   ar
     5     2    19   ar
     6     3     4   ar
     7     4     5   ar
     8     4    18    1
     9     5     6   ar
    10     5    13    1
    11     6     7    1
    12     7     8   ar
    13     7    12   ar
    14     8     9   ar
    15     9    10   ar
    16    10    11   ar
    17    11    12   ar
    18    13    14    2
    19    13    15    1
    20    15    16    1
    21    16    17    1
    22    19    20   ar
    23    19    25   ar
    24    20    21   ar
    25    20    22   ar
    26    22    23   ar
    27    23    24   ar
    28    24    25   ar
