@<TRIPOS>MOLECULE
24470_ChemDiv_000A-1069
 22 26 0 0 0
SMALL
GASTEIGER
Energy = 0

@<TRIPOS>ATOM
      1 N          -0.5630    0.0710    0.0000 N.ar    1  LIG1       -0.2767
      2 C           0.2920    0.5500    0.0000 C.ar    1  LIG1        0.0907
      3 C           0.0790    1.5210    0.0000 C.ar    1  LIG1        0.0027
      4 C          -0.9170    1.6040    0.0000 C.ar    1  LIG1        0.0137
      5 C          -1.3210    0.7130    0.0000 C.ar    1  LIG1        0.0661
      6 C          -2.2880    0.6080    0.0000 C.ar    1  LIG1        0.0176
      7 C          -2.8750    1.4130    0.0000 C.ar    1  LIG1        0.0015
      8 C          -2.4460    2.3250    0.0000 C.ar    1  LIG1        0.0001
      9 C          -1.4830    2.4080    0.0000 C.ar    1  LIG1        0.0012
     10 C           1.1170    2.0460    0.0000 C.3     1  LIG1        0.0904
     11 C           2.0080    1.5460    0.0000 C.3     1  LIG1        0.1436
     12 N           2.0080    0.5500    0.0000 N.4     1  LIG1        0.3774
     13 C           1.1540    0.0710    0.0000 C.3     1  LIG1        0.1259
     14 C           1.1540   -0.9250    0.0000 C.3     1  LIG1        0.0608
     15 C           0.2920   -1.4380    0.0000 C.3     1  LIG1        0.0944
     16 C          -0.5630   -0.9250    0.0000 C.2     1  LIG1        0.2414
     17 O          -1.4540   -1.4380    0.0000 O.2     1  LIG1       -0.2716
     18 C           2.0080   -1.4380    0.0000 C.3     1  LIG1        0.0126
     19 C           2.8710   -0.9250    0.0000 C.3     1  LIG1        0.0629
     20 C           2.8710    0.0710    0.0000 C.3     1  LIG1        0.1388
     21 C           1.1540   -1.9170    0.0000 C.3     1  LIG1        0.0064
     22 C           2.0080   -2.4040    0.0000 C.3     1  LIG1        0.0002
@<TRIPOS>BOND
     1     1     2   ar
     2     1     5   ar
     3     1    16   am
     4     2     3   ar
     5     2    13    1
     6     3     4   ar
     7     3    10    1
     8     4     5   ar
     9     4     9   ar
    10     5     6   ar
    11     6     7   ar
    12     7     8   ar
    13     8     9   ar
    14    10    11    1
    15    11    12    1
    16    12    13    1
    17    12    20    1
    18    13    14    1
    19    14    15    1
    20    14    18    1
    21    14    21    1
    22    15    16    1
    23    16    17    2
    24    18    19    1
    25    19    20    1
    26    21    22    1
