@<TRIPOS>MOLECULE
24475_ChemDiv_3555-0132
 24 27 0 0 0
SMALL
GASTEIGER
Energy = 0

@<TRIPOS>ATOM
      1 C           0.9460    0.0250    0.0000 C.2     1  LIG1        0.0756
      2 N           1.8210    0.5130    0.0000 N.2     1  LIG1       -0.2739
      3 C           1.8210    1.4920    0.0000 C.3     1  LIG1        0.0886
      4 C           0.9460    2.0040    0.0000 C.3     1  LIG1        0.0489
      5 C           0.0580    1.5040    0.0000 C.ar    1  LIG1       -0.0157
      6 C           0.0580    0.5130    0.0000 C.ar    1  LIG1        0.0165
      7 C          -0.8080    0.0250    0.0000 C.ar    1  LIG1        0.0412
      8 C          -1.6880    0.5130    0.0000 C.ar    1  LIG1        0.1724
      9 C          -1.6880    1.5040    0.0000 C.ar    1  LIG1        0.1721
     10 C          -0.8080    2.0040    0.0000 C.ar    1  LIG1        0.0359
     11 O          -2.5580    1.9880    0.0000 O.3     1  LIG1       -0.4684
     12 C          -2.5790    2.9880    0.0000 C.3     1  LIG1        0.2526
     13 O          -2.5580    0.0250    0.0000 O.3     1  LIG1       -0.4684
     14 C          -3.4170    0.5170    0.0000 C.3     1  LIG1        0.2526
     15 C           2.7330    1.1540    0.0000 C.3     1  LIG1        0.0228
     16 C           3.4130    1.9290    0.0000 C.3     1  LIG1        0.0020
     17 C           2.8710    2.7250    0.0000 C.3     1  LIG1        0.0020
     18 C           1.8210    2.4540    0.0000 C.3     1  LIG1        0.0228
     19 C           0.9500   -0.9880    0.0000 C.ar    1  LIG1        0.0172
     20 C           0.0960   -1.4960    0.0000 C.ar    1  LIG1        0.0015
     21 C           0.1000   -2.4920    0.0000 C.ar    1  LIG1        0.0000
     22 C           0.9750   -2.9830    0.0000 C.ar    1  LIG1        0.0000
     23 C           1.8250   -2.4630    0.0000 C.ar    1  LIG1        0.0000
     24 C           1.8210   -1.4790    0.0000 C.ar    1  LIG1        0.0015
@<TRIPOS>BOND
     1     1     2    2
     2     1     6    1
     3     1    19    1
     4     2     3    1
     5     3     4    1
     6     3    15    1
     7     3    18    1
     8     4     5    1
     9     5     6   ar
    10     5    10   ar
    11     6     7   ar
    12     7     8   ar
    13     8     9   ar
    14     8    13    1
    15     9    10   ar
    16     9    11    1
    17    11    12    1
    18    13    14    1
    19    15    16    1
    20    16    17    1
    21    17    18    1
    22    19    20   ar
    23    19    24   ar
    24    20    21   ar
    25    21    22   ar
    26    22    23   ar
    27    23    24   ar
