@<TRIPOS>MOLECULE
24486_ChemDiv_0407-0037
 19 21 0 0 0
SMALL
GASTEIGER
Energy = 0

@<TRIPOS>ATOM
      1 C          -1.3420    0.2710    0.0000 C.ar    1  LIG1        0.1447
      2 O          -0.4670    0.7540    0.0000 O.3     1  LIG1       -0.4741
      3 C           0.4040    0.2460    0.0000 C.3     1  LIG1        0.1958
      4 C           0.4040   -0.7170    0.0000 C.3     1  LIG1        0.1173
      5 C          -0.4670   -1.2290    0.0000 C.2     1  LIG1        0.1800
      6 C          -1.3420   -0.7500    0.0000 C.ar    1  LIG1        0.0690
      7 C          -2.2130   -1.2290    0.0000 C.ar    1  LIG1        0.0092
      8 C          -3.0500   -0.7170    0.0000 C.ar    1  LIG1        0.0423
      9 C          -3.0500    0.2460    0.0000 C.ar    1  LIG1        0.1988
     10 C          -2.2130    0.7540    0.0000 C.ar    1  LIG1        0.0790
     11 O          -3.9500    0.7210    0.0000 O.3     1  LIG1       -0.2865
     12 O          -0.4420   -2.2500    0.0000 O.2     1  LIG1       -0.2911
     13 C           1.3040    0.7540    0.0000 C.ar    1  LIG1        0.0178
     14 C           2.1750    0.2460    0.0000 C.ar    1  LIG1        0.0025
     15 C           3.0130    0.7540    0.0000 C.ar    1  LIG1        0.0418
     16 C           3.0460    1.7460    0.0000 C.ar    1  LIG1        0.1957
     17 C           2.1750    2.2540    0.0000 C.ar    1  LIG1        0.0418
     18 C           1.3040    1.7460    0.0000 C.ar    1  LIG1        0.0025
     19 O           3.9460    2.2290    0.0000 O.3     1  LIG1       -0.2866
@<TRIPOS>BOND
     1     1     2    1
     2     1     6   ar
     3     1    10   ar
     4     2     3    1
     5     3     4    1
     6     3    13    1
     7     4     5    1
     8     5     6    1
     9     5    12    2
    10     6     7   ar
    11     7     8   ar
    12     8     9   ar
    13     9    10   ar
    14     9    11    1
    15    13    14   ar
    16    13    18   ar
    17    14    15   ar
    18    15    16   ar
    19    16    17   ar
    20    16    19    1
    21    17    18   ar
