@<TRIPOS>MOLECULE
24488_ChemDiv_0407-0108
 22 24 0 0 0
SMALL
GASTEIGER
Energy = 0

@<TRIPOS>ATOM
      1 C           1.2750    0.7710    0.0000 C.ar    1  LIG1        0.1103
      2 C           0.4250    1.2630    0.0000 C.2     1  LIG1        0.2132
      3 C          -0.4540    0.7710    0.0000 C.3     1  LIG1        0.2568
      4 C          -0.4540   -0.2330    0.0000 C.3     1  LIG1        0.2259
      5 O           0.4250   -0.7290    0.0000 O.3     1  LIG1       -0.4713
      6 C           1.2750   -0.2330    0.0000 C.ar    1  LIG1        0.1481
      7 C           2.1250   -0.7290    0.0000 C.ar    1  LIG1        0.0792
      8 C           3.0040   -0.2330    0.0000 C.ar    1  LIG1        0.2020
      9 C           3.0040    0.7710    0.0000 C.ar    1  LIG1        0.0843
     10 C           2.1250    1.2630    0.0000 C.ar    1  LIG1        0.2046
     11 O           2.1250    2.2580    0.0000 O.3     1  LIG1       -0.2863
     12 O           3.8830   -0.7290    0.0000 O.3     1  LIG1       -0.2864
     13 C          -1.3040   -0.7290    0.0000 C.ar    1  LIG1        0.0236
     14 C          -2.1540   -0.2330    0.0000 C.ar    1  LIG1        0.0447
     15 C          -3.0080   -0.7290    0.0000 C.ar    1  LIG1        0.2341
     16 C          -3.0080   -1.7540    0.0000 C.ar    1  LIG1        0.2342
     17 C          -2.1290   -2.2540    0.0000 C.ar    1  LIG1        0.0452
     18 C          -1.2750   -1.7540    0.0000 C.ar    1  LIG1        0.0028
     19 O          -3.8580   -2.2540    0.0000 O.3     1  LIG1       -0.2831
     20 O          -3.8880   -0.2330    0.0000 O.3     1  LIG1       -0.2832
     21 O          -1.3330    1.2630    0.0000 O.3     1  LIG1       -0.2104
     22 O           0.4250    2.2580    0.0000 O.2     1  LIG1       -0.2883
@<TRIPOS>BOND
     1     1     2    1
     2     1     6   ar
     3     1    10   ar
     4     2     3    1
     5     2    22    2
     6     3     4    1
     7     3    21    1
     8     4     5    1
     9     4    13    1
    10     5     6    1
    11     6     7   ar
    12     7     8   ar
    13     8     9   ar
    14     8    12    1
    15     9    10   ar
    16    10    11    1
    17    13    14   ar
    18    13    18   ar
    19    14    15   ar
    20    15    16   ar
    21    15    20    1
    22    16    17   ar
    23    16    19    1
    24    17    18   ar
