@<TRIPOS>MOLECULE
24490_ChemDiv_4739-0230
 17 19 0 0 0
SMALL
GASTEIGER
Energy = 0

@<TRIPOS>ATOM
      1 O          -0.4460    0.7460    0.0000 O.3     1  LIG1       -0.4742
      2 C          -1.3040    0.2540    0.0000 C.ar    1  LIG1        0.1415
      3 C          -1.3040   -0.7460    0.0000 C.ar    1  LIG1        0.0688
      4 C          -0.4460   -1.2500    0.0000 C.2     1  LIG1        0.1800
      5 C           0.4250   -0.7460    0.0000 C.3     1  LIG1        0.1173
      6 C           0.4250    0.2540    0.0000 C.3     1  LIG1        0.1958
      7 C           1.2960    0.7460    0.0000 C.ar    1  LIG1        0.0176
      8 C           2.1580    0.2580    0.0000 C.ar    1  LIG1       -0.0008
      9 C           3.0290    0.7460    0.0000 C.ar    1  LIG1       -0.0002
     10 C           3.0330    1.7630    0.0000 C.ar    1  LIG1       -0.0000
     11 C           2.1580    2.2460    0.0000 C.ar    1  LIG1       -0.0002
     12 C           1.2960    1.7460    0.0000 C.ar    1  LIG1       -0.0008
     13 O          -0.4460   -2.2420    0.0000 O.2     1  LIG1       -0.2911
     14 C          -2.1750   -1.2540    0.0000 C.ar    1  LIG1        0.0059
     15 C          -3.0380   -0.7460    0.0000 C.ar    1  LIG1        0.0003
     16 C          -3.0380    0.2540    0.0000 C.ar    1  LIG1        0.0031
     17 C          -2.1750    0.7630    0.0000 C.ar    1  LIG1        0.0370
@<TRIPOS>BOND
     1     1     2    1
     2     1     6    1
     3     2     3   ar
     4     2    17   ar
     5     3     4    1
     6     3    14   ar
     7     4     5    1
     8     4    13    2
     9     5     6    1
    10     6     7    1
    11     7     8   ar
    12     7    12   ar
    13     8     9   ar
    14     9    10   ar
    15    10    11   ar
    16    11    12   ar
    17    14    15   ar
    18    15    16   ar
    19    16    17   ar
