@<TRIPOS>MOLECULE
24499_ChemDiv_4282-0004
 20 21 0 0 0
SMALL
GASTEIGER
Energy = 0

@<TRIPOS>ATOM
      1 C           0.8080    0.0170    0.0000 C.2     1  LIG1        0.0616
      2 N           1.6830    0.5330    0.0000 N.2     1  LIG1       -0.2777
      3 C           1.6830    1.5000    0.0000 C.3     1  LIG1        0.0884
      4 C           0.8080    2.0170    0.0000 C.3     1  LIG1        0.0488
      5 C          -0.0540    1.5170    0.0000 C.ar    1  LIG1       -0.0192
      6 C          -0.0540    0.5040    0.0000 C.ar    1  LIG1        0.0097
      7 C          -0.9210    0.0170    0.0000 C.ar    1  LIG1        0.0009
      8 C          -1.7920    0.5330    0.0000 C.ar    1  LIG1        0.0000
      9 C          -1.7920    1.5000    0.0000 C.ar    1  LIG1       -0.0003
     10 C          -0.9210    2.0170    0.0000 C.ar    1  LIG1       -0.0042
     11 C           1.7380    2.4960    0.0000 C.3     1  LIG1        0.0247
     12 C           2.6500    1.7710    0.0000 C.3     1  LIG1        0.0247
     13 C           0.8080   -1.0000    0.0000 C.3     1  LIG1        0.1194
     14 C           1.6830   -1.4960    0.0000 C.2     1  LIG1        0.2659
     15 O           2.5500   -0.9790    0.0000 O.2     1  LIG1       -0.2713
     16 N           1.6830   -2.4920    0.0000 N.am    1  LIG1       -0.0875
     17 C          -0.0540   -1.4960    0.0000 C.3     1  LIG1        0.0152
     18 C          -0.9210   -1.0000    0.0000 C.3     1  LIG1        0.0009
     19 C          -1.7920   -1.4960    0.0000 C.3     1  LIG1        0.0000
     20 C          -2.6540   -1.0130    0.0000 C.3     1  LIG1        0.0000
@<TRIPOS>BOND
     1     1     2    2
     2     1     6    1
     3     1    13    1
     4     2     3    1
     5     3     4    1
     6     3    11    1
     7     3    12    1
     8     4     5    1
     9     5     6   ar
    10     5    10   ar
    11     6     7   ar
    12     7     8   ar
    13     8     9   ar
    14     9    10   ar
    15    13    14    1
    16    13    17    1
    17    14    15    2
    18    14    16   am
    19    17    18    1
    20    18    19    1
    21    19    20    1
