@<TRIPOS>MOLECULE
24492_ChemDiv_6228-0195
 18 21 0 0 0
SMALL
GASTEIGER
Energy = 0

@<TRIPOS>ATOM
      1 C           0.4670    1.1830    0.0000 C.3     1  LIG1        0.1947
      2 O          -0.4920    1.1830    0.0000 O.3     1  LIG1       -0.4747
      3 C          -1.1710    0.5000    0.0000 C.ar    1  LIG1        0.1382
      4 C          -1.1710   -0.4790    0.0000 C.ar    1  LIG1        0.0513
      5 C          -0.4920   -1.1790    0.0000 C.3     1  LIG1        0.1947
      6 O           0.4670   -1.1790    0.0000 O.3     1  LIG1       -0.4747
      7 C           1.1710   -0.4790    0.0000 C.ar    1  LIG1        0.1382
      8 C           1.1710    0.5000    0.0000 C.ar    1  LIG1        0.0513
      9 C           2.0290    1.0000    0.0000 C.ar    1  LIG1        0.0022
     10 C           2.8960    0.5000    0.0000 C.ar    1  LIG1       -0.0000
     11 C           2.8960   -0.4790    0.0000 C.ar    1  LIG1        0.0031
     12 C           2.0290   -0.9710    0.0000 C.ar    1  LIG1        0.0367
     13 C           0.0040   -0.0130    0.0000 C.3     1  LIG1        0.0889
     14 C          -0.6580    0.3080    0.0000 C.3     1  LIG1        0.0082
     15 C          -2.0330   -0.9710    0.0000 C.ar    1  LIG1        0.0022
     16 C          -2.9000   -0.4790    0.0000 C.ar    1  LIG1       -0.0000
     17 C          -2.9000    0.5000    0.0000 C.ar    1  LIG1        0.0031
     18 C          -2.0330    1.0000    0.0000 C.ar    1  LIG1        0.0367
@<TRIPOS>BOND
     1     1     2    1
     2     1     8    1
     3     1    13    1
     4     2     3    1
     5     3     4   ar
     6     3    18   ar
     7     4     5    1
     8     4    15   ar
     9     5     6    1
    10     5    13    1
    11     6     7    1
    12     7     8   ar
    13     7    12   ar
    14     8     9   ar
    15     9    10   ar
    16    10    11   ar
    17    11    12   ar
    18    13    14    1
    19    15    16   ar
    20    16    17   ar
    21    17    18   ar
