@<TRIPOS>MOLECULE
24494_ChemDiv_8010-7230
 24 26 0 0 0
SMALL
GASTEIGER
Energy = 0

@<TRIPOS>ATOM
      1 C          -0.8880   -0.4750    0.0000 C.ar    1  LIG1        0.1440
      2 C          -0.8880   -1.5040    0.0000 C.ar    1  LIG1        0.1075
      3 C          -0.0290   -2.0040    0.0000 C.2     1  LIG1        0.1831
      4 C           0.8580   -1.5040    0.0000 C.3     1  LIG1        0.1174
      5 C           0.8580   -0.4750    0.0000 C.3     1  LIG1        0.1958
      6 O          -0.0290    0.0250    0.0000 O.3     1  LIG1       -0.4743
      7 C           1.7130    0.0250    0.0000 C.ar    1  LIG1        0.0176
      8 C           1.6830    1.0210    0.0000 C.ar    1  LIG1       -0.0008
      9 C           2.5380    1.5290    0.0000 C.ar    1  LIG1       -0.0002
     10 C           3.4250    1.0210    0.0000 C.ar    1  LIG1       -0.0000
     11 C           3.4250    0.0250    0.0000 C.ar    1  LIG1       -0.0002
     12 C           2.5710   -0.4750    0.0000 C.ar    1  LIG1       -0.0008
     13 O          -0.0290   -3.0080    0.0000 O.2     1  LIG1       -0.2910
     14 C          -1.7380   -2.0040    0.0000 C.ar    1  LIG1        0.2045
     15 C          -2.5920   -1.5040    0.0000 C.ar    1  LIG1        0.0840
     16 C          -2.5920   -0.4750    0.0000 C.ar    1  LIG1        0.1981
     17 C          -1.7380    0.0250    0.0000 C.ar    1  LIG1        0.0553
     18 C          -1.7380    1.0170    0.0000 C.3     1  LIG1        0.0580
     19 C          -0.8880    1.5130    0.0000 C.2     1  LIG1       -0.0297
     20 C          -0.9130    2.4880    0.0000 C.2     1  LIG1       -0.0475
     21 C          -0.0380    3.0130    0.0000 C.3     1  LIG1        0.0260
     22 C          -1.8080    2.9330    0.0000 C.3     1  LIG1        0.0260
     23 O          -3.4290    0.0420    0.0000 O.3     1  LIG1       -0.2867
     24 O          -1.7380   -3.0080    0.0000 O.3     1  LIG1       -0.2863
@<TRIPOS>BOND
     1     1     2   ar
     2     1     6    1
     3     1    17   ar
     4     2     3    1
     5     2    14   ar
     6     3     4    1
     7     3    13    2
     8     5     4    1
     9     5     6    1
    10     5     7    1
    11     7     8   ar
    12     7    12   ar
    13     8     9   ar
    14     9    10   ar
    15    10    11   ar
    16    11    12   ar
    17    14    15   ar
    18    14    24    1
    19    15    16   ar
    20    16    17   ar
    21    16    23    1
    22    17    18    1
    23    18    19    1
    24    19    20    2
    25    20    21    1
    26    20    22    1
