@<TRIPOS>MOLECULE
24496_ChemDiv_8013-6313
 26 28 0 0 0
SMALL
GASTEIGER
Energy = 0

@<TRIPOS>ATOM
      1 C          -1.3000   -1.0210    0.0000 C.ar    1  LIG1        0.1054
      2 C          -0.4250   -1.5250    0.0000 C.2     1  LIG1        0.2131
      3 C           0.4380   -1.0210    0.0000 C.3     1  LIG1        0.2568
      4 C           0.4380   -0.0290    0.0000 C.3     1  LIG1        0.2259
      5 O          -0.4250    0.4710    0.0000 O.3     1  LIG1       -0.4713
      6 C          -1.3000   -0.0290    0.0000 C.ar    1  LIG1        0.1477
      7 C          -2.1750    0.4710    0.0000 C.ar    1  LIG1        0.0741
      8 C          -3.0420   -0.0290    0.0000 C.ar    1  LIG1        0.1448
      9 C          -3.0420   -1.0210    0.0000 C.ar    1  LIG1        0.0741
     10 C          -2.1750   -1.5250    0.0000 C.ar    1  LIG1        0.1475
     11 O          -2.1750   -2.5210    0.0000 O.3     1  LIG1       -0.4711
     12 C          -1.3210   -3.0130    0.0000 C.3     1  LIG1        0.2525
     13 O          -3.9210    0.4710    0.0000 O.3     1  LIG1       -0.4712
     14 C          -4.7790   -0.0290    0.0000 C.3     1  LIG1        0.2525
     15 C           1.3080    0.4710    0.0000 C.ar    1  LIG1        0.0234
     16 C           2.2040   -0.0080    0.0000 C.ar    1  LIG1        0.0393
     17 C           3.0630    0.4920    0.0000 C.ar    1  LIG1        0.1722
     18 C           3.0630    1.5080    0.0000 C.ar    1  LIG1        0.1724
     19 C           2.1540    1.9710    0.0000 C.ar    1  LIG1        0.0398
     20 C           1.3080    1.4580    0.0000 C.ar    1  LIG1        0.0026
     21 O           3.9210    2.0210    0.0000 O.3     1  LIG1       -0.4684
     22 C           3.9080    3.0170    0.0000 C.3     1  LIG1        0.2526
     23 O           3.9210    0.0000    0.0000 O.3     1  LIG1       -0.4684
     24 C           4.7750    0.4830    0.0000 C.3     1  LIG1        0.2526
     25 O           1.3080   -1.5250    0.0000 O.3     1  LIG1       -0.2104
     26 O          -0.4250   -2.5210    0.0000 O.2     1  LIG1       -0.2883
@<TRIPOS>BOND
     1     1     2    1
     2     1     6   ar
     3     1    10   ar
     4     2     3    1
     5     2    26    2
     6     3     4    1
     7     3    25    1
     8     4     5    1
     9     4    15    1
    10     5     6    1
    11     6     7   ar
    12     7     8   ar
    13     8     9   ar
    14     8    13    1
    15     9    10   ar
    16    10    11    1
    17    11    12    1
    18    13    14    1
    19    15    16   ar
    20    15    20   ar
    21    16    17   ar
    22    17    18   ar
    23    17    23    1
    24    18    19   ar
    25    18    21    1
    26    19    20   ar
    27    21    22    1
    28    23    24    1
