@<TRIPOS>MOLECULE
24503_ChemDiv_4282-0037
 18 19 0 0 0
SMALL
GASTEIGER
Energy = 0

@<TRIPOS>ATOM
      1 N           2.1210   -0.4830    0.0000 N.2     1  LIG1       -0.1986
      2 C           1.2500   -0.9830    0.0000 C.2     1  LIG1        0.1980
      3 C           0.3750   -0.4830    0.0000 C.ar    1  LIG1        0.0581
      4 C           0.3750    0.5210    0.0000 C.ar    1  LIG1       -0.0071
      5 C           1.2500    1.0210    0.0000 C.3     1  LIG1        0.0971
      6 C           2.1210    0.5210    0.0000 C.3     1  LIG1        0.1938
      7 C           2.1130    1.5250    0.0000 C.3     1  LIG1        0.0776
      8 C           3.0830    0.7830    0.0000 C.3     1  LIG1        0.0776
      9 C          -0.4750    1.0210    0.0000 C.ar    1  LIG1        0.0362
     10 C          -1.3710    0.5210    0.0000 C.ar    1  LIG1        0.1721
     11 C          -1.3710   -0.4830    0.0000 C.ar    1  LIG1        0.1726
     12 C          -0.4750   -0.9830    0.0000 C.ar    1  LIG1        0.0453
     13 O          -2.2420   -0.9580    0.0000 O.3     1  LIG1       -0.4684
     14 C          -3.0880   -0.4580    0.0000 C.3     1  LIG1        0.2526
     15 O          -2.2420    1.0000    0.0000 O.3     1  LIG1       -0.4684
     16 C          -2.2540    1.9880    0.0000 C.3     1  LIG1        0.2526
     17 C           1.2500   -1.9830    0.0000 C.3     1  LIG1        0.1073
     18 C           2.9750   -0.9750    0.0000 C.3     1  LIG1        0.4018
@<TRIPOS>BOND
     1     1     2    2
     2     1     6    1
     3     1    18    1
     4     2     3    1
     5     2    17    1
     6     3     4   ar
     7     3    12   ar
     8     4     5    1
     9     4     9   ar
    10     5     6    1
    11     6     7    1
    12     6     8    1
    13     9    10   ar
    14    10    11   ar
    15    10    15    1
    16    11    12   ar
    17    11    13    1
    18    13    14    1
    19    15    16    1
