@<TRIPOS>MOLECULE
24505_ChemDiv_4282-0102
 19 20 0 0 0
SMALL
GASTEIGER
Energy = 0

@<TRIPOS>ATOM
      1 N           2.1080    0.5040    0.0000 N.2     1  LIG1       -0.2782
      2 C           1.2380    0.0250    0.0000 C.2     1  LIG1        0.0533
      3 C           0.3790    0.5040    0.0000 C.ar    1  LIG1        0.0125
      4 C           0.3790    1.5250    0.0000 C.ar    1  LIG1       -0.0160
      5 C          -0.4880    2.0040    0.0000 C.ar    1  LIG1        0.0359
      6 C          -1.3500    1.5250    0.0000 C.ar    1  LIG1        0.1721
      7 C          -1.3500    0.5040    0.0000 C.ar    1  LIG1        0.1724
      8 C          -0.4880    0.0250    0.0000 C.ar    1  LIG1        0.0409
      9 O          -2.2170    0.0000    0.0000 O.3     1  LIG1       -0.4684
     10 C          -3.0830    0.5040    0.0000 C.3     1  LIG1        0.2526
     11 O          -2.2170    2.0290    0.0000 O.3     1  LIG1       -0.4684
     12 C          -3.0830    1.5250    0.0000 C.3     1  LIG1        0.2526
     13 C           1.2380    2.0040    0.0000 C.3     1  LIG1        0.0489
     14 C           2.1080    1.5250    0.0000 C.3     1  LIG1        0.0884
     15 C           3.0790    1.2420    0.0000 C.3     1  LIG1        0.0247
     16 C           2.3210    2.4920    0.0000 C.3     1  LIG1        0.0247
     17 C           1.2380   -0.9880    0.0000 C.3     1  LIG1        0.0454
     18 C           2.1080   -1.5000    0.0000 C.3     1  LIG1        0.0063
     19 C           2.1080   -2.4880    0.0000 C.3     1  LIG1        0.0004
@<TRIPOS>BOND
     1     1     2    2
     2     1    14    1
     3     2     3    1
     4     2    17    1
     5     3     4   ar
     6     3     8   ar
     7     4     5   ar
     8     4    13    1
     9     5     6   ar
    10     6     7   ar
    11     6    11    1
    12     7     8   ar
    13     7     9    1
    14     9    10    1
    15    11    12    1
    16    13    14    1
    17    14    15    1
    18    14    16    1
    19    17    18    1
    20    18    19    1
