@<TRIPOS>MOLECULE
24501_ChemDiv_4282-0024
 24 26 0 0 0
SMALL
GASTEIGER
Energy = 0

@<TRIPOS>ATOM
      1 C           0.8790    0.0250    0.0000 C.2     1  LIG1        0.0577
      2 N           1.7580    0.5460    0.0000 N.2     1  LIG1       -0.2779
      3 C           1.7580    1.5210    0.0000 C.3     1  LIG1        0.0884
      4 C           0.8790    2.0420    0.0000 C.3     1  LIG1        0.0489
      5 C           0.0080    1.5420    0.0000 C.ar    1  LIG1       -0.0160
      6 C           0.0080    0.5210    0.0000 C.ar    1  LIG1        0.0128
      7 C          -0.8670    0.0250    0.0000 C.ar    1  LIG1        0.0409
      8 C          -1.7420    0.5460    0.0000 C.ar    1  LIG1        0.1724
      9 C          -1.7420    1.5210    0.0000 C.ar    1  LIG1        0.1721
     10 C          -0.8670    2.0420    0.0000 C.ar    1  LIG1        0.0359
     11 O          -2.6250    1.9790    0.0000 O.3     1  LIG1       -0.4684
     12 C          -2.6630    2.9790    0.0000 C.3     1  LIG1        0.2526
     13 O          -2.6250    0.0830    0.0000 O.3     1  LIG1       -0.4684
     14 C          -3.4670    0.6170    0.0000 C.3     1  LIG1        0.2526
     15 C           2.6830    1.0710    0.0000 C.3     1  LIG1        0.0247
     16 C           1.8670    2.4880    0.0000 C.3     1  LIG1        0.0247
     17 C           0.8790   -1.0000    0.0000 C.3     1  LIG1        0.0721
     18 C           1.7380   -1.4830    0.0000 C.ar    1  LIG1       -0.0100
     19 C           1.7460   -2.4750    0.0000 C.ar    1  LIG1        0.0310
     20 BR          0.8920   -2.9750    0.0000 Br      1  LIG1       -0.0493
     21 C           2.5920   -2.9750    0.0000 C.ar    1  LIG1        0.0064
     22 C           3.4630   -2.4880    0.0000 C.ar    1  LIG1        0.0005
     23 C           3.4540   -1.4960    0.0000 C.ar    1  LIG1       -0.0003
     24 C           2.5960   -1.0130    0.0000 C.ar    1  LIG1       -0.0034
@<TRIPOS>BOND
     1     1     2    2
     2     1     6    1
     3     1    17    1
     4     2     3    1
     5     3     4    1
     6     3    15    1
     7     3    16    1
     8     4     5    1
     9     5     6   ar
    10     5    10   ar
    11     6     7   ar
    12     7     8   ar
    13     8     9   ar
    14     8    13    1
    15     9    10   ar
    16     9    11    1
    17    11    12    1
    18    13    14    1
    19    17    18    1
    20    18    19   ar
    21    18    24   ar
    22    19    20    1
    23    19    21   ar
    24    21    22   ar
    25    22    23   ar
    26    23    24   ar
