@<TRIPOS>MOLECULE
24507_ChemDiv_4363-0022
 16 17 0 0 0
SMALL
GASTEIGER
Energy = 0

@<TRIPOS>ATOM
      1 N           1.7960   -0.5000    0.0000 N.2     1  LIG1       -0.2782
      2 C           0.9130   -1.0040    0.0000 C.2     1  LIG1        0.0537
      3 C           0.0420   -0.5000    0.0000 C.ar    1  LIG1        0.0126
      4 C           0.0420    0.5210    0.0000 C.ar    1  LIG1       -0.0160
      5 C          -0.8250    1.0170    0.0000 C.ar    1  LIG1        0.0361
      6 C          -1.7080    0.5080    0.0000 C.ar    1  LIG1        0.1771
      7 C          -1.7080   -0.5000    0.0000 C.ar    1  LIG1        0.2293
      8 C          -0.8250   -1.0040    0.0000 C.ar    1  LIG1        0.0461
      9 O          -2.6080   -0.9920    0.0000 O.3     1  LIG1       -0.2833
     10 O          -2.6080    1.0000    0.0000 O.3     1  LIG1       -0.4682
     11 C          -2.6460    2.0080    0.0000 C.3     1  LIG1        0.2526
     12 C           0.9130    1.0170    0.0000 C.3     1  LIG1        0.0489
     13 C           1.7960    0.5080    0.0000 C.3     1  LIG1        0.0884
     14 C           2.6420    0.3460    0.0000 C.3     1  LIG1        0.0247
     15 C           2.1250    1.4040    0.0000 C.3     1  LIG1        0.0247
     16 C           0.9040   -2.0040    0.0000 C.3     1  LIG1        0.0516
@<TRIPOS>BOND
     1     1     2    2
     2     1    13    1
     3     2     3    1
     4     2    16    1
     5     3     4   ar
     6     3     8   ar
     7     4     5   ar
     8     4    12    1
     9     5     6   ar
    10     6     7   ar
    11     6    10    1
    12     7     8   ar
    13     7     9    1
    14    10    11    1
    15    12    13    1
    16    13    14    1
    17    13    15    1
