@<TRIPOS>MOLECULE
24514_ChemDiv_8014-9568
 26 30 0 0 0
SMALL
GASTEIGER
Energy = 0

@<TRIPOS>ATOM
      1 C           1.3880    0.4670    0.0000 C.3     1  LIG1        0.1548
      2 O           0.5130   -0.0330    0.0000 O.3     1  LIG1       -0.4786
      3 C          -0.3540    0.4670    0.0000 C.ar    1  LIG1        0.1378
      4 C          -0.3460    1.4790    0.0000 C.ar    1  LIG1        0.0115
      5 C           0.5250    1.9750    0.0000 C.3     1  LIG1        0.0253
      6 C           1.3920    1.4790    0.0000 C.3     1  LIG1        0.0446
      7 C           2.3460    1.7790    0.0000 C.3     1  LIG1        0.0043
      8 C           2.9460    0.9630    0.0000 C.3     1  LIG1        0.0041
      9 C           2.3460    0.1630    0.0000 C.3     1  LIG1        0.0445
     10 C          -0.2880    2.5670    0.0000 C.3     1  LIG1        0.0043
     11 C           0.0170    3.5170    0.0000 C.3     1  LIG1        0.0003
     12 C           1.0130    3.5170    0.0000 C.3     1  LIG1        0.0003
     13 C           1.3250    2.5670    0.0000 C.3     1  LIG1        0.0043
     14 C          -1.2130    1.9750    0.0000 C.ar    1  LIG1        0.0020
     15 C          -2.0750    1.4790    0.0000 C.ar    1  LIG1        0.0419
     16 C          -2.0750    0.4790    0.0000 C.ar    1  LIG1        0.1988
     17 C          -1.2130   -0.0290    0.0000 C.ar    1  LIG1        0.0786
     18 O          -2.9500   -0.0290    0.0000 O.3     1  LIG1       -0.2865
     19 C           1.3750   -0.5290    0.0000 C.ar    1  LIG1        0.0527
     20 C           0.5080   -1.0170    0.0000 C.ar    1  LIG1        0.1981
     21 C           0.5000   -2.0170    0.0000 C.ar    1  LIG1        0.0838
     22 C           1.3580   -2.5250    0.0000 C.ar    1  LIG1        0.1989
     23 C           2.2250   -2.0170    0.0000 C.ar    1  LIG1        0.0420
     24 C           2.2330   -1.0290    0.0000 C.ar    1  LIG1        0.0055
     25 O           1.3460   -3.5130    0.0000 O.3     1  LIG1       -0.2865
     26 O          -0.4880   -1.0080    0.0000 O.3     1  LIG1       -0.2867
@<TRIPOS>BOND
     1     1     2    1
     2     1     6    1
     3     1     9    1
     4     1    19    1
     5     2     3    1
     6     3     4   ar
     7     3    17   ar
     8     4     5    1
     9     4    14   ar
    10     5     6    1
    11     5    10    1
    12     5    13    1
    13     6     7    1
    14     7     8    1
    15     8     9    1
    16    10    11    1
    17    11    12    1
    18    12    13    1
    19    14    15   ar
    20    15    16   ar
    21    16    17   ar
    22    16    18    1
    23    19    20   ar
    24    19    24   ar
    25    20    21   ar
    26    20    26    1
    27    21    22   ar
    28    22    23   ar
    29    22    25    1
    30    23    24   ar
