@<TRIPOS>MOLECULE
24518_ChemDiv_C798-0132
 20 22 0 0 0
SMALL
GASTEIGER
Energy = 0

@<TRIPOS>ATOM
      1 C           0.1710   -0.7790    0.0000 C.3     1  LIG1        0.1591
      2 O          -0.7080   -1.2790    0.0000 O.3     1  LIG1       -0.4780
      3 C          -1.5710   -0.7790    0.0000 C.ar    1  LIG1        0.1416
      4 C          -1.5710    0.2290    0.0000 C.ar    1  LIG1        0.0719
      5 C          -0.7000    0.7460    0.0000 C.2     1  LIG1        0.1799
      6 C           0.1710    0.2290    0.0000 C.3     1  LIG1        0.1134
      7 O          -0.7000    1.7420    0.0000 O.2     1  LIG1       -0.2911
      8 C          -2.4330    0.7290    0.0000 C.ar    1  LIG1        0.0479
      9 C          -3.2960    0.2290    0.0000 C.ar    1  LIG1        0.1960
     10 C          -3.2960   -0.7710    0.0000 C.ar    1  LIG1        0.0451
     11 C          -2.4330   -1.2710    0.0000 C.ar    1  LIG1        0.0403
     12 O          -4.1670    0.7290    0.0000 O.3     1  LIG1       -0.2866
     13 C           1.1670   -0.7790    0.0000 C.ar    1  LIG1        0.0140
     14 C           1.6670   -1.6420    0.0000 C.ar    1  LIG1       -0.0001
     15 C           2.6670   -1.6330    0.0000 C.ar    1  LIG1        0.0112
     16 C           3.1630   -0.7710    0.0000 C.ar    1  LIG1        0.0577
     17 C           2.6540    0.0920    0.0000 C.ar    1  LIG1        0.0112
     18 C           1.6630    0.0830    0.0000 C.ar    1  LIG1       -0.0001
     19 CL          4.1630   -0.7710    0.0000 Cl      1  LIG1       -0.0822
     20 C          -0.0880   -1.7380    0.0000 C.3     1  LIG1        0.0487
@<TRIPOS>BOND
     1     1     2    1
     2     1     6    1
     3     1    13    1
     4     1    20    1
     5     2     3    1
     6     3     4   ar
     7     3    11   ar
     8     4     5    1
     9     4     8   ar
    10     5     6    1
    11     5     7    2
    12     8     9   ar
    13     9    10   ar
    14     9    12    1
    15    10    11   ar
    16    13    14   ar
    17    13    18   ar
    18    14    15   ar
    19    15    16   ar
    20    16    17   ar
    21    16    19    1
    22    17    18   ar
