@<TRIPOS>MOLECULE
24516_ChemDiv_8015-1586
 35 39 0 0 0
SMALL
GASTEIGER
Energy = 0

@<TRIPOS>ATOM
      1 C           1.2500    1.2080    0.0000 C.3     1  LIG1        0.1546
      2 O           0.4170    0.7250    0.0000 O.3     1  LIG1       -0.4786
      3 C          -0.4210    1.2080    0.0000 C.ar    1  LIG1        0.1377
      4 C          -0.4210    2.1710    0.0000 C.ar    1  LIG1        0.0115
      5 C           0.4170    2.6540    0.0000 C.3     1  LIG1        0.0253
      6 C           1.2500    2.1710    0.0000 C.3     1  LIG1        0.0446
      7 C           2.0830    2.6540    0.0000 C.3     1  LIG1        0.0043
      8 C           2.9170    1.2080    0.0000 C.3     1  LIG1        0.0041
      9 C           2.0830    0.7250    0.0000 C.3     1  LIG1        0.0445
     10 C          -0.4210    3.1380    0.0000 C.3     1  LIG1        0.0043
     11 C          -0.4210    4.0960    0.0000 C.3     1  LIG1        0.0003
     12 C           1.2500    4.0960    0.0000 C.3     1  LIG1        0.0003
     13 C           1.2500    3.1380    0.0000 C.3     1  LIG1        0.0043
     14 C          -1.2540    2.6540    0.0000 C.ar    1  LIG1        0.0018
     15 C          -2.0920    2.1710    0.0000 C.ar    1  LIG1        0.0375
     16 C          -2.0920    1.2080    0.0000 C.ar    1  LIG1        0.1515
     17 C          -1.2540    0.7250    0.0000 C.ar    1  LIG1        0.0741
     18 O          -2.9250    0.7290    0.0000 O.3     1  LIG1       -0.4240
     19 C          -3.7580    1.2080    0.0000 C.2     1  LIG1        0.3220
     20 O          -3.7580    2.1710    0.0000 O.2     1  LIG1       -0.2497
     21 C          -4.5960    0.7290    0.0000 C.3     1  LIG1        0.1216
     22 C           1.2500    0.2460    0.0000 C.ar    1  LIG1        0.0484
     23 C           2.0830   -0.2380    0.0000 C.ar    1  LIG1        0.1507
     24 C           2.0830   -1.2000    0.0000 C.ar    1  LIG1        0.0749
     25 C           1.2500   -1.6830    0.0000 C.ar    1  LIG1        0.1515
     26 O           1.2500   -2.6500    0.0000 O.3     1  LIG1       -0.4240
     27 C           0.4170   -3.1290    0.0000 C.2     1  LIG1        0.3220
     28 O          -0.4210   -2.6500    0.0000 O.2     1  LIG1       -0.2497
     29 C           0.4170   -4.0960    0.0000 C.3     1  LIG1        0.1216
     30 C           0.4170   -1.2000    0.0000 C.ar    1  LIG1        0.0376
     31 C           0.4170   -0.2380    0.0000 C.ar    1  LIG1        0.0052
     32 O           2.9170    0.2460    0.0000 O.3     1  LIG1       -0.4242
     33 C           3.7540   -0.2380    0.0000 C.2     1  LIG1        0.3220
     34 O           3.7540   -1.2000    0.0000 O.2     1  LIG1       -0.2497
     35 C           4.5920    0.2460    0.0000 C.3     1  LIG1        0.1216
@<TRIPOS>BOND
     1     1     2    1
     2     1     6    1
     3     1     9    1
     4     1    22    1
     5     2     3    1
     6     3     4   ar
     7     3    17   ar
     8     4     5    1
     9     4    14   ar
    10     5     6    1
    11     5    10    1
    12     5    13    1
    13     6     7    1
    14     7     8    1
    15     8     9    1
    16    10    11    1
    17    11    12    1
    18    12    13    1
    19    14    15   ar
    20    15    16   ar
    21    16    17   ar
    22    16    18    1
    23    18    19    1
    24    19    20    2
    25    19    21    1
    26    22    23   ar
    27    22    31   ar
    28    23    24   ar
    29    23    32    1
    30    24    25   ar
    31    25    26    1
    32    25    30   ar
    33    26    27    1
    34    27    28    2
    35    27    29    1
    36    30    31   ar
    37    32    33    1
    38    33    34    2
    39    33    35    1
