@<TRIPOS>MOLECULE
24511_ChemDiv_5154-0121
 25 26 0 0 0
SMALL
GASTEIGER
Energy = 0

@<TRIPOS>ATOM
      1 C           1.2830   -0.2500    0.0000 C.2     1  LIG1        0.0617
      2 N           2.1380    0.2710    0.0000 N.2     1  LIG1       -0.2777
      3 C           2.1250    1.2670    0.0000 C.3     1  LIG1        0.0884
      4 C           1.2830    1.7580    0.0000 C.3     1  LIG1        0.0489
      5 C           0.4130    1.2670    0.0000 C.ar    1  LIG1       -0.0160
      6 C           0.4130    0.2710    0.0000 C.ar    1  LIG1        0.0129
      7 C          -0.4540   -0.2500    0.0000 C.ar    1  LIG1        0.0409
      8 C          -1.3250    0.2710    0.0000 C.ar    1  LIG1        0.1724
      9 C          -1.3250    1.2670    0.0000 C.ar    1  LIG1        0.1721
     10 C          -0.4540    1.7580    0.0000 C.ar    1  LIG1        0.0359
     11 O          -2.1880    1.7710    0.0000 O.3     1  LIG1       -0.4684
     12 C          -2.1880    2.7710    0.0000 C.3     1  LIG1        0.2526
     13 O          -2.1880   -0.2000    0.0000 O.3     1  LIG1       -0.4684
     14 C          -3.0420    0.3080    0.0000 C.3     1  LIG1        0.2526
     15 C           3.0380    0.8460    0.0000 C.3     1  LIG1        0.0247
     16 C           2.1250    2.3000    0.0000 C.3     1  LIG1        0.0247
     17 C           1.2830   -1.2380    0.0000 C.3     1  LIG1        0.1194
     18 C           2.1380   -1.7420    0.0000 C.2     1  LIG1        0.2659
     19 O           2.1380   -2.7670    0.0000 O.2     1  LIG1       -0.2713
     20 N           3.0080   -1.2380    0.0000 N.am    1  LIG1       -0.0875
     21 C           0.4250   -1.7170    0.0000 C.3     1  LIG1        0.0152
     22 C          -0.4380   -1.2210    0.0000 C.3     1  LIG1        0.0009
     23 C          -1.3130   -1.7000    0.0000 C.3     1  LIG1        0.0000
     24 C          -1.3290   -2.7000    0.0000 C.3     1  LIG1        0.0000
     25 C          -2.1790   -1.1880    0.0000 C.3     1  LIG1        0.0000
@<TRIPOS>BOND
     1     1     2    2
     2     1     6    1
     3     1    17    1
     4     2     3    1
     5     3     4    1
     6     3    15    1
     7     3    16    1
     8     4     5    1
     9     5     6   ar
    10     5    10   ar
    11     6     7   ar
    12     7     8   ar
    13     8     9   ar
    14     8    13    1
    15     9    10   ar
    16     9    11    1
    17    11    12    1
    18    13    14    1
    19    17    18    1
    20    17    21    1
    21    18    19    2
    22    18    20   am
    23    21    22    1
    24    22    23    1
    25    23    24    1
    26    23    25    1
