@<TRIPOS>MOLECULE
24526_ChemDiv_0080-0025
 26 29 0 0 0
SMALL
GASTEIGER
Energy = 0

@<TRIPOS>ATOM
      1 O          -0.1500   -1.5790    0.0000 O.3     1  LIG1       -0.4755
      2 C           0.7920   -1.2790    0.0000 C.ar    1  LIG1        0.1377
      3 C           0.7920   -0.2830    0.0000 C.ar    1  LIG1        0.0157
      4 C          -0.1500    0.0130    0.0000 C.3     1  LIG1        0.0766
      5 C          -0.7210   -0.7670    0.0000 C.3     1  LIG1        0.2064
      6 C          -1.7210   -0.7130    0.0000 C.3     1  LIG1        0.1730
      7 O          -1.6630    0.2830    0.0000 O.3     1  LIG1       -0.4491
      8 C          -2.5290    0.8000    0.0000 C.2     1  LIG1        0.3411
      9 O          -2.5000    1.7960    0.0000 O.2     1  LIG1       -0.2449
     10 C          -3.3880    0.3380    0.0000 C.ar    1  LIG1        0.0756
     11 C          -4.2290    0.8500    0.0000 C.ar    1  LIG1        0.0064
     12 C          -5.1170    0.3670    0.0000 C.ar    1  LIG1        0.0002
     13 C          -5.1420   -0.6330    0.0000 C.ar    1  LIG1        0.0000
     14 C          -4.2830   -1.1460    0.0000 C.ar    1  LIG1        0.0002
     15 C          -3.4170   -0.6630    0.0000 C.ar    1  LIG1        0.0064
     16 C          -2.7710   -1.0380    0.0000 C.3     1  LIG1        0.0475
     17 C          -1.7420   -1.7130    0.0000 C.3     1  LIG1        0.0475
     18 C           1.6540    0.2040    0.0000 C.ar    1  LIG1        0.0019
     19 C           2.5210   -0.2830    0.0000 C.ar    1  LIG1        0.0348
     20 C           2.5210   -1.2790    0.0000 C.ar    1  LIG1        0.1517
     21 O           3.3830   -1.7920    0.0000 O.2     1  LIG1       -0.4209
     22 C           4.2460   -1.2790    0.0000 C.ar    1  LIG1        0.3459
     23 C           4.2460   -0.2830    0.0000 C.ar    1  LIG1        0.0824
     24 C           3.3830    0.2040    0.0000 C.ar    1  LIG1        0.0097
     25 O           5.1380   -1.7920    0.0000 O.2     1  LIG1       -0.2445
     26 C           1.6540   -1.7920    0.0000 C.ar    1  LIG1        0.0741
@<TRIPOS>BOND
     1     1     2    1
     2     1     5    1
     3     2     3   ar
     4     2    26   ar
     5     3     4    1
     6     3    18   ar
     7     4     5    1
     8     5     6    1
     9     6     7    1
    10     6    16    1
    11     6    17    1
    12     7     8    1
    13     8     9    2
    14     8    10    1
    15    10    11   ar
    16    10    15   ar
    17    11    12   ar
    18    12    13   ar
    19    13    14   ar
    20    14    15   ar
    21    18    19   ar
    22    19    20   ar
    23    19    24   ar
    24    20    21   ar
    25    20    26   ar
    26    21    22   ar
    27    22    23   ar
    28    22    25    2
    29    23    24   ar
