@<TRIPOS>MOLECULE
24524_ChemDiv_K783-5646
 13 14 0 0 0
SMALL
GASTEIGER
Energy = 0

@<TRIPOS>ATOM
      1 O           0.3710   -1.2710    0.0000 O.3     1  LIG1       -0.4827
      2 C          -0.4920   -0.7710    0.0000 C.ar    1  LIG1        0.1365
      3 C          -0.4880    0.2330    0.0000 C.ar    1  LIG1        0.0418
      4 C           0.3750    0.7420    0.0000 C.3     1  LIG1        0.1806
      5 C           1.2460    0.2330    0.0000 C.3     1  LIG1        0.0775
      6 C           1.2460   -0.7710    0.0000 C.3     1  LIG1        0.1361
      7 C           2.2080   -0.5080    0.0000 C.3     1  LIG1        0.0437
      8 C           1.5040   -1.7330    0.0000 C.3     1  LIG1        0.0437
      9 O           0.3710    1.7380    0.0000 O.3     1  LIG1       -0.2181
     10 C          -1.3540    0.7380    0.0000 C.ar    1  LIG1        0.0012
     11 C          -2.2130    0.2330    0.0000 C.ar    1  LIG1       -0.0000
     12 C          -2.2130   -0.7670    0.0000 C.ar    1  LIG1        0.0031
     13 C          -1.3540   -1.2670    0.0000 C.ar    1  LIG1        0.0366
@<TRIPOS>BOND
     1     1     2    1
     2     1     6    1
     3     2     3   ar
     4     2    13   ar
     5     3     4    1
     6     3    10   ar
     7     4     5    1
     8     4     9    1
     9     5     6    1
    10     6     7    1
    11     6     8    1
    12    10    11   ar
    13    11    12   ar
    14    12    13   ar
