@<TRIPOS>MOLECULE
24520_ChemDiv_C798-0145
 20 22 0 0 0
SMALL
GASTEIGER
Energy = 0

@<TRIPOS>ATOM
      1 C           0.2460   -0.7540    0.0000 C.3     1  LIG1        0.1591
      2 O          -0.6330   -1.2540    0.0000 O.3     1  LIG1       -0.4780
      3 C          -1.5040   -0.7540    0.0000 C.ar    1  LIG1        0.1416
      4 C          -1.4960    0.2500    0.0000 C.ar    1  LIG1        0.0719
      5 C          -0.6290    0.7580    0.0000 C.2     1  LIG1        0.1799
      6 C           0.2460    0.2500    0.0000 C.3     1  LIG1        0.1134
      7 O          -0.6290    1.7580    0.0000 O.2     1  LIG1       -0.2911
      8 C          -2.3670    0.7500    0.0000 C.ar    1  LIG1        0.0479
      9 C          -3.2290    0.2500    0.0000 C.ar    1  LIG1        0.1960
     10 C          -3.2290   -0.7540    0.0000 C.ar    1  LIG1        0.0451
     11 C          -2.3670   -1.2540    0.0000 C.ar    1  LIG1        0.0403
     12 O          -4.0920    0.7500    0.0000 O.3     1  LIG1       -0.2866
     13 C           1.2040   -0.4960    0.0000 C.ar    1  LIG1        0.0141
     14 C           1.9170   -1.1920    0.0000 C.ar    1  LIG1        0.0014
     15 C           2.8670   -0.9380    0.0000 C.ar    1  LIG1        0.0294
     16 C           3.1250    0.0330    0.0000 C.ar    1  LIG1        0.1401
     17 C           2.4080    0.7330    0.0000 C.ar    1  LIG1        0.0294
     18 C           1.4540    0.4710    0.0000 C.ar    1  LIG1        0.0014
     19 F           4.0880    0.2960    0.0000 F       1  LIG1       -0.2042
     20 C           0.2330   -1.7540    0.0000 C.3     1  LIG1        0.0487
@<TRIPOS>BOND
     1     1     2    1
     2     1     6    1
     3     1    13    1
     4     1    20    1
     5     2     3    1
     6     3     4   ar
     7     3    11   ar
     8     4     5    1
     9     4     8   ar
    10     5     6    1
    11     5     7    2
    12     8     9   ar
    13     9    10   ar
    14     9    12    1
    15    10    11   ar
    16    13    14   ar
    17    13    18   ar
    18    14    15   ar
    19    15    16   ar
    20    16    17   ar
    21    16    19    1
    22    17    18   ar
