@<TRIPOS>MOLECULE
24529_ChemDiv_5841-0180
 23 26 0 0 0
SMALL
GASTEIGER
Energy = 0

@<TRIPOS>ATOM
      1 C           0.3920   -0.0790    0.0000 C.ar    1  LIG1        0.0933
      2 C           0.3920    0.9250    0.0000 C.2     1  LIG1        0.0817
      3 N           1.2630    1.4290    0.0000 N.2     1  LIG1       -0.2737
      4 C           1.2630    2.4250    0.0000 C.3     1  LIG1        0.0888
      5 C           0.3920    2.9250    0.0000 C.3     1  LIG1        0.0488
      6 C          -0.4880    2.4250    0.0000 C.ar    1  LIG1       -0.0189
      7 C          -0.4880    1.4290    0.0000 C.ar    1  LIG1        0.0135
      8 C          -1.3420    0.9250    0.0000 C.ar    1  LIG1        0.0012
      9 C          -2.2080    1.4290    0.0000 C.ar    1  LIG1        0.0000
     10 C          -2.2080    2.4250    0.0000 C.ar    1  LIG1       -0.0003
     11 C          -1.3420    2.9250    0.0000 C.ar    1  LIG1       -0.0042
     12 C           1.2630    3.4290    0.0000 C.3     1  LIG1        0.0247
     13 C           2.2040    2.1210    0.0000 C.3     1  LIG1        0.0247
     14 C           1.1710   -0.7080    0.0000 C.ar    1  LIG1        0.3472
     15 O           1.0210   -1.6830    0.0000 O.2     1  LIG1       -0.4210
     16 C           0.0920   -2.0420    0.0000 C.ar    1  LIG1        0.1487
     17 C          -0.7000   -1.4380    0.0000 C.ar    1  LIG1        0.0349
     18 C          -0.5420   -0.4380    0.0000 C.ar    1  LIG1        0.0110
     19 C          -1.6130   -1.8170    0.0000 C.ar    1  LIG1        0.0030
     20 C          -1.7580   -2.7920    0.0000 C.ar    1  LIG1        0.0002
     21 C          -0.9750   -3.4250    0.0000 C.ar    1  LIG1        0.0031
     22 C          -0.0380   -3.0330    0.0000 C.ar    1  LIG1        0.0376
     23 O           2.1080   -0.3420    0.0000 O.2     1  LIG1       -0.2444
@<TRIPOS>BOND
     1     1     2    1
     2     1    14   ar
     3     1    18   ar
     4     2     3    2
     5     2     7    1
     6     3     4    1
     7     4     5    1
     8     4    12    1
     9     4    13    1
    10     5     6    1
    11     6     7   ar
    12     6    11   ar
    13     7     8   ar
    14     8     9   ar
    15     9    10   ar
    16    10    11   ar
    17    14    15   ar
    18    14    23    2
    19    15    16   ar
    20    16    17   ar
    21    16    22   ar
    22    17    18   ar
    23    17    19   ar
    24    19    20   ar
    25    20    21   ar
    26    21    22   ar
