@<TRIPOS>MOLECULE
24522_ChemDiv_K783-4758
 25 27 0 0 0
SMALL
GASTEIGER
Energy = 0

@<TRIPOS>ATOM
      1 C           2.1790   -1.5750    0.0000 C.3     1  LIG1        0.1605
      2 O           1.3000   -2.0750    0.0000 O.3     1  LIG1       -0.4779
      3 C           0.4330   -1.5750    0.0000 C.ar    1  LIG1        0.1416
      4 C           0.4380   -0.5670    0.0000 C.ar    1  LIG1        0.0718
      5 C           1.3000   -0.0540    0.0000 C.2     1  LIG1        0.1799
      6 C           2.1790   -0.5670    0.0000 C.3     1  LIG1        0.1135
      7 O           1.3000    0.9460    0.0000 O.2     1  LIG1       -0.2911
      8 C          -0.4290   -0.0670    0.0000 C.ar    1  LIG1        0.0428
      9 C          -1.2920   -0.5670    0.0000 C.ar    1  LIG1        0.1397
     10 O          -2.1540   -0.0670    0.0000 O.3     1  LIG1       -0.4638
     11 C          -3.0250   -0.5670    0.0000 C.3     1  LIG1        0.3141
     12 C          -3.8880   -0.0670    0.0000 C.2     1  LIG1        0.3620
     13 O          -4.7500   -0.5670    0.0000 O.2     1  LIG1       -0.2459
     14 O          -3.8880    0.9290    0.0000 O.3     1  LIG1       -0.4459
     15 C          -4.7540    1.4290    0.0000 C.3     1  LIG1        0.2087
     16 C          -4.7540    2.4420    0.0000 C.3     1  LIG1        0.0513
     17 C          -1.2920   -1.5670    0.0000 C.ar    1  LIG1        0.0400
     18 C          -0.4290   -2.0670    0.0000 C.ar    1  LIG1        0.0401
     19 C           3.0250   -1.0500    0.0000 C.ar    1  LIG1        0.0331
     20 C           2.9920   -0.0630    0.0000 C.ar    1  LIG1        0.0979
     21 N           3.8380    0.4630    0.0000 N.ar    1  LIG1       -0.2425
     22 C           4.7210   -0.0080    0.0000 C.ar    1  LIG1        0.0989
     23 C           4.7500   -1.0000    0.0000 C.ar    1  LIG1        0.0205
     24 C           3.9040   -1.5210    0.0000 C.ar    1  LIG1        0.0022
     25 C           2.6790   -2.4380    0.0000 C.3     1  LIG1        0.0488
@<TRIPOS>BOND
     1     1     2    1
     2     1     6    1
     3     1    19    1
     4     1    25    1
     5     2     3    1
     6     3     4   ar
     7     3    18   ar
     8     4     5    1
     9     4     8   ar
    10     5     6    1
    11     5     7    2
    12     8     9   ar
    13     9    10    1
    14     9    17   ar
    15    10    11    1
    16    11    12    1
    17    12    13    2
    18    12    14    1
    19    14    15    1
    20    15    16    1
    21    17    18   ar
    22    19    20   ar
    23    19    24   ar
    24    20    21   ar
    25    21    22   ar
    26    22    23   ar
    27    23    24   ar
