@<TRIPOS>MOLECULE
24533_ChemDiv_6703-3110
 29 31 0 0 0
SMALL
GASTEIGER
Energy = 0

@<TRIPOS>ATOM
      1 N           0.3540   -0.0670    0.0000 N.2     1  LIG1       -0.2647
      2 C          -0.5130   -0.5670    0.0000 C.2     1  LIG1        0.0584
      3 C          -1.3790   -0.0670    0.0000 C.ar    1  LIG1        0.0128
      4 C          -1.3750    0.9330    0.0000 C.ar    1  LIG1       -0.0153
      5 C          -0.5130    1.4380    0.0000 C.3     1  LIG1        0.0622
      6 C           0.3540    0.9330    0.0000 C.3     1  LIG1        0.2052
      7 C           1.2290    1.4380    0.0000 C.2     1  LIG1        0.3399
      8 O           1.2290    2.4330    0.0000 O.2     1  LIG1       -0.2479
      9 O           2.0920    0.9330    0.0000 O.3     1  LIG1       -0.4431
     10 C           2.9580    1.4380    0.0000 C.3     1  LIG1        0.2557
     11 C          -2.2420    1.4380    0.0000 C.ar    1  LIG1        0.0359
     12 C          -3.1040    0.9330    0.0000 C.ar    1  LIG1        0.1721
     13 C          -3.1040   -0.0670    0.0000 C.ar    1  LIG1        0.1724
     14 C          -2.2420   -0.5670    0.0000 C.ar    1  LIG1        0.0409
     15 O          -3.9790   -0.5670    0.0000 O.3     1  LIG1       -0.4684
     16 C          -3.9790   -1.5670    0.0000 C.3     1  LIG1        0.2526
     17 O          -3.9750    1.4380    0.0000 O.3     1  LIG1       -0.4684
     18 C          -3.9750    2.4330    0.0000 C.3     1  LIG1        0.2526
     19 C          -0.5130   -1.5670    0.0000 C.3     1  LIG1        0.0717
     20 C           0.4830   -1.5670    0.0000 C.ar    1  LIG1       -0.0130
     21 C           0.9750   -0.7040    0.0000 C.ar    1  LIG1        0.0362
     22 C           1.9670   -0.7040    0.0000 C.ar    1  LIG1        0.1721
     23 C           2.4750   -1.5670    0.0000 C.ar    1  LIG1        0.1724
     24 C           1.9750   -2.4290    0.0000 C.ar    1  LIG1        0.0397
     25 C           0.9750   -2.4290    0.0000 C.ar    1  LIG1       -0.0006
     26 O           3.4750   -1.5670    0.0000 O.3     1  LIG1       -0.4684
     27 C           3.9750   -2.4290    0.0000 C.3     1  LIG1        0.2526
     28 O           2.4710    0.1670    0.0000 O.3     1  LIG1       -0.4684
     29 C           3.4710    0.1670    0.0000 C.3     1  LIG1        0.2526
@<TRIPOS>BOND
     1     1     2    2
     2     1     6    1
     3     2     3    1
     4     2    19    1
     5     3     4   ar
     6     3    14   ar
     7     4     5    1
     8     4    11   ar
     9     5     6    1
    10     6     7    1
    11     7     8    2
    12     7     9    1
    13     9    10    1
    14    11    12   ar
    15    12    13   ar
    16    12    17    1
    17    13    14   ar
    18    13    15    1
    19    15    16    1
    20    17    18    1
    21    19    20    1
    22    20    21   ar
    23    20    25   ar
    24    21    22   ar
    25    22    23   ar
    26    22    28    1
    27    23    24   ar
    28    23    26    1
    29    24    25   ar
    30    26    27    1
    31    28    29    1
