@<TRIPOS>MOLECULE
24539_ChemDiv_7174-0008
 24 26 0 0 0
SMALL
GASTEIGER
Energy = 0

@<TRIPOS>ATOM
      1 C           1.3040    1.0000    0.0000 C.2     1  LIG1        0.0756
      2 N           2.1710    1.5000    0.0000 N.2     1  LIG1       -0.2739
      3 C           2.1710    2.4960    0.0000 C.3     1  LIG1        0.0888
      4 C           1.3000    2.9960    0.0000 C.3     1  LIG1        0.0489
      5 C           0.4380    2.5000    0.0000 C.ar    1  LIG1       -0.0157
      6 C           0.4420    1.5000    0.0000 C.ar    1  LIG1        0.0165
      7 C          -0.4210    1.0000    0.0000 C.ar    1  LIG1        0.0412
      8 C          -1.2920    1.5000    0.0000 C.ar    1  LIG1        0.1724
      9 C          -1.2880    2.4960    0.0000 C.ar    1  LIG1        0.1721
     10 C          -0.4210    2.9920    0.0000 C.ar    1  LIG1        0.0359
     11 O          -2.1630    3.0000    0.0000 O.3     1  LIG1       -0.4684
     12 C          -3.0250    2.4960    0.0000 C.3     1  LIG1        0.2526
     13 O          -2.1630    0.9920    0.0000 O.3     1  LIG1       -0.4684
     14 C          -3.0380    1.4920    0.0000 C.3     1  LIG1        0.2526
     15 C           2.1670    3.5040    0.0000 C.3     1  LIG1        0.0247
     16 C           3.0330    2.0000    0.0000 C.3     1  LIG1        0.0247
     17 C           1.3000   -0.0040    0.0000 C.ar    1  LIG1        0.0174
     18 C           0.4380   -0.5000    0.0000 C.ar    1  LIG1        0.0046
     19 C           0.4380   -1.5080    0.0000 C.ar    1  LIG1        0.0369
     20 C           1.3000   -2.0080    0.0000 C.ar    1  LIG1        0.1387
     21 C           2.1670   -1.5000    0.0000 C.ar    1  LIG1        0.0369
     22 C           2.1630   -0.5000    0.0000 C.ar    1  LIG1        0.0046
     23 O           1.3130   -3.0040    0.0000 O.3     1  LIG1       -0.4714
     24 C           2.1830   -3.5000    0.0000 C.3     1  LIG1        0.2525
@<TRIPOS>BOND
     1     1     2    2
     2     1     6    1
     3     1    17    1
     4     2     3    1
     5     3     4    1
     6     3    15    1
     7     3    16    1
     8     4     5    1
     9     5     6   ar
    10     5    10   ar
    11     6     7   ar
    12     7     8   ar
    13     8     9   ar
    14     8    13    1
    15     9    10   ar
    16     9    11    1
    17    11    12    1
    18    13    14    1
    19    17    18   ar
    20    17    22   ar
    21    18    19   ar
    22    19    20   ar
    23    20    21   ar
    24    20    23    1
    25    21    22   ar
    26    23    24    1
