@<TRIPOS>MOLECULE
24537_ChemDiv_7174-0006
 28 30 0 0 0
SMALL
GASTEIGER
Energy = 0

@<TRIPOS>ATOM
      1 C           1.3000    1.0000    0.0000 C.2     1  LIG1        0.0786
      2 C           0.4420    1.5000    0.0000 C.ar    1  LIG1        0.0505
      3 C          -0.4210    1.0000    0.0000 C.ar    1  LIG1        0.1765
      4 C          -1.2880    1.5000    0.0000 C.ar    1  LIG1        0.2061
      5 C          -1.2880    2.4920    0.0000 C.ar    1  LIG1        0.1751
      6 C          -0.4210    2.9920    0.0000 C.ar    1  LIG1        0.0361
      7 C           0.4380    2.5000    0.0000 C.ar    1  LIG1       -0.0127
      8 C           1.3000    2.9920    0.0000 C.3     1  LIG1        0.0490
      9 C           2.1670    2.4960    0.0000 C.3     1  LIG1        0.0888
     10 N           2.1670    1.5000    0.0000 N.2     1  LIG1       -0.2738
     11 C           2.1670    3.5040    0.0000 C.3     1  LIG1        0.0247
     12 C           3.0290    2.0040    0.0000 C.3     1  LIG1        0.0247
     13 O          -2.1580    2.9960    0.0000 O.3     1  LIG1       -0.4683
     14 C          -3.0250    2.4920    0.0000 C.3     1  LIG1        0.2526
     15 O          -2.1630    0.9880    0.0000 O.3     1  LIG1       -0.4654
     16 C          -3.0330    1.4920    0.0000 C.3     1  LIG1        0.2528
     17 O          -0.4210    0.0000    0.0000 O.3     1  LIG1       -0.4682
     18 C          -1.2880   -0.4960    0.0000 C.3     1  LIG1        0.2526
     19 C           1.3000   -0.0080    0.0000 C.ar    1  LIG1        0.0205
     20 C           0.4330   -0.5000    0.0000 C.ar    1  LIG1        0.0415
     21 C           0.4380   -1.5080    0.0000 C.ar    1  LIG1        0.1724
     22 C           1.3000   -2.0040    0.0000 C.ar    1  LIG1        0.1724
     23 C           2.1630   -1.5000    0.0000 C.ar    1  LIG1        0.0401
     24 C           2.1580   -0.5040    0.0000 C.ar    1  LIG1        0.0048
     25 O           1.3080   -3.0000    0.0000 O.3     1  LIG1       -0.4684
     26 C           2.1790   -3.5000    0.0000 C.3     1  LIG1        0.2526
     27 O          -0.4380   -2.0130    0.0000 O.3     1  LIG1       -0.4684
     28 C          -1.3080   -1.5170    0.0000 C.3     1  LIG1        0.2526
@<TRIPOS>BOND
     1     1     2    1
     2     1    10    2
     3     1    19    1
     4     2     3   ar
     5     2     7   ar
     6     3     4   ar
     7     3    17    1
     8     4     5   ar
     9     4    15    1
    10     5     6   ar
    11     5    13    1
    12     6     7   ar
    13     7     8    1
    14     8     9    1
    15     9    10    1
    16     9    11    1
    17     9    12    1
    18    13    14    1
    19    15    16    1
    20    17    18    1
    21    19    20   ar
    22    19    24   ar
    23    20    21   ar
    24    21    22   ar
    25    21    27    1
    26    22    23   ar
    27    22    25    1
    28    23    24   ar
    29    25    26    1
    30    27    28    1
