@<TRIPOS>MOLECULE
24531_ChemDiv_5841-0184
 27 30 0 0 0
SMALL
GASTEIGER
Energy = 0

@<TRIPOS>ATOM
      1 C           1.2540   -0.3210    0.0000 C.ar    1  LIG1        0.0933
      2 C           1.2540    0.6830    0.0000 C.2     1  LIG1        0.0818
      3 N           2.1250    1.1880    0.0000 N.2     1  LIG1       -0.2737
      4 C           2.1290    2.1960    0.0000 C.3     1  LIG1        0.0888
      5 C           1.2540    2.6790    0.0000 C.3     1  LIG1        0.0489
      6 C           0.3790    2.1830    0.0000 C.ar    1  LIG1       -0.0156
      7 C           0.3790    1.1880    0.0000 C.ar    1  LIG1        0.0168
      8 C          -0.4750    0.6830    0.0000 C.ar    1  LIG1        0.0412
      9 C          -1.3420    1.1880    0.0000 C.ar    1  LIG1        0.1724
     10 C          -1.3420    2.1830    0.0000 C.ar    1  LIG1        0.1721
     11 C          -0.4750    2.6790    0.0000 C.ar    1  LIG1        0.0359
     12 O          -2.2080    2.6790    0.0000 O.3     1  LIG1       -0.4684
     13 C          -2.2080    3.6670    0.0000 C.3     1  LIG1        0.2526
     14 O          -2.2080    0.7000    0.0000 O.3     1  LIG1       -0.4684
     15 C          -3.0580    1.1960    0.0000 C.3     1  LIG1        0.2526
     16 C           2.1540    3.2170    0.0000 C.3     1  LIG1        0.0247
     17 C           3.0540    1.7540    0.0000 C.3     1  LIG1        0.0247
     18 C           2.0330   -0.9460    0.0000 C.ar    1  LIG1        0.3472
     19 O           1.8830   -1.9210    0.0000 O.2     1  LIG1       -0.4210
     20 C           0.9580   -2.2830    0.0000 C.ar    1  LIG1        0.1487
     21 C           0.1670   -1.6790    0.0000 C.ar    1  LIG1        0.0349
     22 C           0.3250   -0.6790    0.0000 C.ar    1  LIG1        0.0110
     23 C          -0.7460   -2.0540    0.0000 C.ar    1  LIG1        0.0030
     24 C          -0.8920   -3.0290    0.0000 C.ar    1  LIG1        0.0002
     25 C          -0.1080   -3.6630    0.0000 C.ar    1  LIG1        0.0031
     26 C           0.8290   -3.2750    0.0000 C.ar    1  LIG1        0.0376
     27 O           2.9710   -0.5830    0.0000 O.2     1  LIG1       -0.2444
@<TRIPOS>BOND
     1     1     2    1
     2     1    18   ar
     3     1    22   ar
     4     2     3    2
     5     2     7    1
     6     3     4    1
     7     4     5    1
     8     4    16    1
     9     4    17    1
    10     5     6    1
    11     6     7   ar
    12     6    11   ar
    13     7     8   ar
    14     8     9   ar
    15     9    10   ar
    16     9    14    1
    17    10    11   ar
    18    10    12    1
    19    12    13    1
    20    14    15    1
    21    18    19   ar
    22    18    27    2
    23    19    20   ar
    24    20    21   ar
    25    20    26   ar
    26    21    22   ar
    27    21    23   ar
    28    23    24   ar
    29    24    25   ar
    30    25    26   ar
