@<TRIPOS>MOLECULE
24541_ChemDiv_7174-0010
 28 30 0 0 0
SMALL
GASTEIGER
Energy = 0

@<TRIPOS>ATOM
      1 C           0.8790    1.0000    0.0000 C.2     1  LIG1        0.0758
      2 N           1.7420    1.5000    0.0000 N.2     1  LIG1       -0.2739
      3 C           1.7420    2.5000    0.0000 C.3     1  LIG1        0.0888
      4 C           0.8750    2.9960    0.0000 C.3     1  LIG1        0.0489
      5 C           0.0080    2.5000    0.0000 C.ar    1  LIG1       -0.0157
      6 C           0.0130    1.5040    0.0000 C.ar    1  LIG1        0.0165
      7 C          -0.8500    1.0000    0.0000 C.ar    1  LIG1        0.0412
      8 C          -1.7210    1.5000    0.0000 C.ar    1  LIG1        0.1724
      9 C          -1.7210    2.4960    0.0000 C.ar    1  LIG1        0.1721
     10 C          -0.8540    2.9960    0.0000 C.ar    1  LIG1        0.0359
     11 O          -2.5920    3.0000    0.0000 O.3     1  LIG1       -0.4684
     12 C          -3.4580    2.4960    0.0000 C.3     1  LIG1        0.2526
     13 O          -2.5920    0.9920    0.0000 O.3     1  LIG1       -0.4684
     14 C          -3.4670    1.4920    0.0000 C.3     1  LIG1        0.2526
     15 C           1.7380    3.5040    0.0000 C.3     1  LIG1        0.0247
     16 C           2.6000    2.0040    0.0000 C.3     1  LIG1        0.0247
     17 C           0.8750   -0.0040    0.0000 C.ar    1  LIG1        0.0235
     18 C           0.0040   -0.5000    0.0000 C.ar    1  LIG1        0.0417
     19 C           0.0080   -1.5080    0.0000 C.ar    1  LIG1        0.1755
     20 C           0.8710   -2.0080    0.0000 C.ar    1  LIG1        0.2061
     21 C           1.7330   -1.5040    0.0000 C.ar    1  LIG1        0.1755
     22 C           1.7330   -0.5000    0.0000 C.ar    1  LIG1        0.0417
     23 O           2.6000   -2.0000    0.0000 O.3     1  LIG1       -0.4683
     24 C           3.4630   -1.5000    0.0000 C.3     1  LIG1        0.2526
     25 O           0.8830   -3.0040    0.0000 O.3     1  LIG1       -0.4654
     26 C           1.7540   -3.5000    0.0000 C.3     1  LIG1        0.2528
     27 O          -0.8540   -2.0080    0.0000 O.3     1  LIG1       -0.4683
     28 C          -0.8540   -3.0040    0.0000 C.3     1  LIG1        0.2526
@<TRIPOS>BOND
     1     1     2    2
     2     1     6    1
     3     1    17    1
     4     2     3    1
     5     3     4    1
     6     3    15    1
     7     3    16    1
     8     4     5    1
     9     5     6   ar
    10     5    10   ar
    11     6     7   ar
    12     7     8   ar
    13     8     9   ar
    14     8    13    1
    15     9    10   ar
    16     9    11    1
    17    11    12    1
    18    13    14    1
    19    17    18   ar
    20    17    22   ar
    21    18    19   ar
    22    19    20   ar
    23    19    27    1
    24    20    21   ar
    25    20    25    1
    26    21    22   ar
    27    21    23    1
    28    23    24    1
    29    25    26    1
    30    27    28    1
