@<TRIPOS>MOLECULE
24548_ChemDiv_2392-4132
 18 20 0 0 0
SMALL
GASTEIGER
Energy = 0

@<TRIPOS>ATOM
      1 C          -0.8540   -0.6670    0.0000 C.ar    1  LIG1        0.1066
      2 C           0.0130   -0.1630    0.0000 C.ar    1  LIG1        0.1541
      3 C           0.0130    0.8210    0.0000 C.ar    1  LIG1        0.0309
      4 C           0.8710    1.3460    0.0000 C.ar    1  LIG1       -0.0125
      5 C           1.7380    0.8500    0.0000 C.ar    1  LIG1        0.0781
      6 C           1.7380   -0.1630    0.0000 C.ar    1  LIG1        0.3456
      7 O           0.8710   -0.6670    0.0000 O.2     1  LIG1       -0.4209
      8 O           2.5880   -0.6830    0.0000 O.2     1  LIG1       -0.2445
      9 C           0.8710    2.3420    0.0000 C.3     1  LIG1        0.0313
     10 C          -0.8540    1.3420    0.0000 C.ar    1  LIG1        0.0014
     11 C          -1.7250    0.8380    0.0000 C.ar    1  LIG1        0.0121
     12 C          -1.7250   -0.1630    0.0000 C.ar    1  LIG1        0.1409
     13 O          -2.4630   -0.8500    0.0000 O.3     1  LIG1       -0.4672
     14 C          -2.0330   -1.7670    0.0000 C.3     1  LIG1        0.2737
     15 C          -1.0330   -1.6380    0.0000 C.2     1  LIG1        0.2228
     16 O          -0.3540   -2.3380    0.0000 O.2     1  LIG1       -0.2872
     17 C          -2.5920    1.3420    0.0000 C.3     1  LIG1        0.0294
     18 C          -2.5920    2.3250    0.0000 C.3     1  LIG1        0.0051
@<TRIPOS>BOND
     1     1     2   ar
     2     1    12   ar
     3     1    15    1
     4     2     3   ar
     5     2     7   ar
     6     3     4   ar
     7     3    10   ar
     8     4     5   ar
     9     4     9    1
    10     5     6   ar
    11     6     7   ar
    12     6     8    2
    13    10    11   ar
    14    11    12   ar
    15    11    17    1
    16    12    13    1
    17    13    14    1
    18    14    15    1
    19    15    16    2
    20    17    18    1
