@<TRIPOS>MOLECULE
24550_ChemDiv_6944-0049
 18 20 0 0 0
SMALL
GASTEIGER
Energy = 0

@<TRIPOS>ATOM
      1 O          -1.5920   -0.8080    0.0000 O.3     1  LIG1       -0.4765
      2 C          -0.6460   -0.5040    0.0000 C.ar    1  LIG1        0.1376
      3 C          -0.6540    0.4920    0.0000 C.ar    1  LIG1        0.0157
      4 C          -1.6080    0.8000    0.0000 C.3     1  LIG1        0.0755
      5 C          -2.1830   -0.0040    0.0000 C.3     1  LIG1        0.1978
      6 C          -3.1790   -0.0170    0.0000 C.3     1  LIG1        0.1634
      7 O          -3.6830    0.8460    0.0000 O.3     1  LIG1       -0.2220
      8 C          -3.6790   -0.8830    0.0000 C.3     1  LIG1        0.0367
      9 C          -2.9290    0.9540    0.0000 C.3     1  LIG1        0.0367
     10 C           0.2080    0.9960    0.0000 C.ar    1  LIG1        0.0019
     11 C           1.0710    0.5080    0.0000 C.ar    1  LIG1        0.0348
     12 C           1.0710   -0.5040    0.0000 C.ar    1  LIG1        0.1517
     13 O           1.9420   -1.0040    0.0000 O.2     1  LIG1       -0.4209
     14 C           2.8210   -0.5040    0.0000 C.ar    1  LIG1        0.3459
     15 C           2.8210    0.5000    0.0000 C.ar    1  LIG1        0.0824
     16 C           1.9460    1.0080    0.0000 C.ar    1  LIG1        0.0097
     17 O           3.6790   -1.0040    0.0000 O.2     1  LIG1       -0.2445
     18 C           0.2080   -1.0040    0.0000 C.ar    1  LIG1        0.0741
@<TRIPOS>BOND
     1     1     2    1
     2     1     5    1
     3     2     3   ar
     4     2    18   ar
     5     3     4    1
     6     3    10   ar
     7     4     5    1
     8     5     6    1
     9     6     7    1
    10     6     8    1
    11     6     9    1
    12    10    11   ar
    13    11    12   ar
    14    11    16   ar
    15    12    13   ar
    16    12    18   ar
    17    13    14   ar
    18    14    15   ar
    19    14    17    2
    20    15    16   ar
