@<TRIPOS>MOLECULE
24556_ChemDiv_8011-5632
 24 27 0 0 0
SMALL
GASTEIGER
Energy = 0

@<TRIPOS>ATOM
      1 C          -0.1170   -0.8290    0.0000 C.2     1  LIG1        0.0819
      2 C          -1.0830   -0.9290    0.0000 C.ar    1  LIG1        0.0755
      3 C          -1.8040   -0.2630    0.0000 C.ar    1  LIG1        0.1514
      4 C          -2.7500   -0.5830    0.0000 C.ar    1  LIG1        0.0311
      5 C          -3.4830    0.0580    0.0000 C.ar    1  LIG1       -0.0125
      6 C          -3.2630    1.0290    0.0000 C.ar    1  LIG1        0.0781
      7 C          -2.3250    1.3500    0.0000 C.ar    1  LIG1        0.3456
      8 O          -1.6040    0.6960    0.0000 O.2     1  LIG1       -0.4209
      9 O          -2.1250    2.3920    0.0000 O.2     1  LIG1       -0.2445
     10 C          -4.4630   -0.2080    0.0000 C.3     1  LIG1        0.0313
     11 C          -2.9670   -1.5460    0.0000 C.ar    1  LIG1        0.0059
     12 C          -2.2250   -2.2080    0.0000 C.ar    1  LIG1        0.0378
     13 C          -1.2880   -1.9080    0.0000 C.ar    1  LIG1        0.1518
     14 O          -0.4330   -2.3880    0.0000 O.3     1  LIG1       -0.4209
     15 C           0.2710   -1.7580    0.0000 C.2     1  LIG1        0.3459
     16 O           1.2670   -2.0290    0.0000 O.2     1  LIG1       -0.2445
     17 C           0.4080    0.0500    0.0000 C.2     1  LIG1        0.0067
     18 C           1.4250    0.0500    0.0000 C.ar    1  LIG1        0.0002
     19 C           1.9460   -0.8710    0.0000 C.ar    1  LIG1        0.0005
     20 C           2.9380   -0.8710    0.0000 C.ar    1  LIG1        0.0067
     21 C           3.4670    0.0330    0.0000 C.ar    1  LIG1        0.0346
     22 BR          4.4580    0.0500    0.0000 Br      1  LIG1       -0.0490
     23 C           2.9460    0.8880    0.0000 C.ar    1  LIG1        0.0067
     24 C           1.9290    0.8880    0.0000 C.ar    1  LIG1        0.0005
@<TRIPOS>BOND
     1     1     2    1
     2     1    15    1
     3     1    17    2
     4     2     3   ar
     5     2    13   ar
     6     3     4   ar
     7     3     8   ar
     8     4     5   ar
     9     4    11   ar
    10     5     6   ar
    11     5    10    1
    12     6     7   ar
    13     7     8   ar
    14     7     9    2
    15    11    12   ar
    16    12    13   ar
    17    13    14    1
    18    14    15    1
    19    15    16    2
    20    17    18    1
    21    18    19   ar
    22    18    24   ar
    23    19    20   ar
    24    20    21   ar
    25    21    22    1
    26    21    23   ar
    27    23    24   ar
