@<TRIPOS>MOLECULE
24554_ChemDiv_8010-6020
 23 26 0 0 0
SMALL
GASTEIGER
Energy = 0

@<TRIPOS>ATOM
      1 C          -0.4130   -0.4000    0.0000 C.2     1  LIG1        0.0819
      2 C           1.0460    0.4330    0.0000 C.ar    1  LIG1        0.0755
      3 C           2.0080    0.4330    0.0000 C.ar    1  LIG1        0.1514
      4 C           2.4830    1.2670    0.0000 C.ar    1  LIG1        0.0311
      5 C           3.4460    1.2670    0.0000 C.ar    1  LIG1       -0.0125
      6 C           3.9250    0.4330    0.0000 C.ar    1  LIG1        0.0781
      7 C           3.4330   -0.4000    0.0000 C.ar    1  LIG1        0.3456
      8 O           2.4830   -0.4000    0.0000 O.2     1  LIG1       -0.4209
      9 O           3.8960   -1.2380    0.0000 O.2     1  LIG1       -0.2445
     10 C           3.9250    2.0960    0.0000 C.3     1  LIG1        0.0313
     11 C           2.0080    2.0960    0.0000 C.ar    1  LIG1        0.0059
     12 C           1.0460    2.0960    0.0000 C.ar    1  LIG1        0.0378
     13 C           0.5460    1.2670    0.0000 C.ar    1  LIG1        0.1518
     14 O          -0.4130    1.2670    0.0000 O.3     1  LIG1       -0.4209
     15 C          -0.8880    0.4330    0.0000 C.2     1  LIG1        0.3459
     16 O          -1.8500    0.4330    0.0000 O.2     1  LIG1       -0.2445
     17 C          -0.8880   -1.2380    0.0000 C.2     1  LIG1        0.0067
     18 C          -1.9250   -1.2380    0.0000 C.ar    1  LIG1        0.0002
     19 C          -2.4330   -0.3580    0.0000 C.ar    1  LIG1        0.0000
     20 C          -3.4170   -0.3580    0.0000 C.ar    1  LIG1        0.0000
     21 C          -3.9290   -1.2380    0.0000 C.ar    1  LIG1        0.0000
     22 C          -3.4170   -2.0920    0.0000 C.ar    1  LIG1        0.0000
     23 C          -2.4330   -2.0920    0.0000 C.ar    1  LIG1        0.0000
@<TRIPOS>BOND
     1     1     2    1
     2     1    15    1
     3     1    17    2
     4     2     3   ar
     5     2    13   ar
     6     3     4   ar
     7     3     8   ar
     8     4     5   ar
     9     4    11   ar
    10     5     6   ar
    11     5    10    1
    12     6     7   ar
    13     7     8   ar
    14     7     9    2
    15    11    12   ar
    16    12    13   ar
    17    13    14    1
    18    14    15    1
    19    15    16    2
    20    17    18    1
    21    18    19   ar
    22    18    23   ar
    23    19    20   ar
    24    20    21   ar
    25    21    22   ar
    26    22    23   ar
