@<TRIPOS>MOLECULE
24552_ChemDiv_6944-0079
 21 23 0 0 0
SMALL
GASTEIGER
Energy = 0

@<TRIPOS>ATOM
      1 O          -0.8540   -0.4380    0.0000 O.3     1  LIG1       -0.4755
      2 C           0.0920   -0.1290    0.0000 C.ar    1  LIG1        0.1377
      3 C           0.0920    0.8790    0.0000 C.ar    1  LIG1        0.0157
      4 C          -0.8630    1.1830    0.0000 C.3     1  LIG1        0.0766
      5 C          -1.4460    0.3670    0.0000 C.3     1  LIG1        0.2064
      6 C          -2.4460    0.3630    0.0000 C.3     1  LIG1        0.1727
      7 O          -2.9420   -0.5040    0.0000 O.3     1  LIG1       -0.4521
      8 C          -3.9330   -0.5040    0.0000 C.2     1  LIG1        0.3174
      9 O          -4.4380    0.3540    0.0000 O.2     1  LIG1       -0.2501
     10 C          -4.4290   -1.3710    0.0000 C.3     1  LIG1        0.1212
     11 C          -2.9500    1.2210    0.0000 C.3     1  LIG1        0.0475
     12 C          -3.4040    0.1000    0.0000 C.3     1  LIG1        0.0475
     13 C           0.9580    1.3750    0.0000 C.ar    1  LIG1        0.0019
     14 C           1.8330    0.8790    0.0000 C.ar    1  LIG1        0.0348
     15 C           1.8330   -0.1290    0.0000 C.ar    1  LIG1        0.1517
     16 O           2.6880   -0.6290    0.0000 O.2     1  LIG1       -0.4209
     17 C           3.5580   -0.1290    0.0000 C.ar    1  LIG1        0.3459
     18 C           3.5580    0.8710    0.0000 C.ar    1  LIG1        0.0824
     19 C           2.6880    1.3750    0.0000 C.ar    1  LIG1        0.0097
     20 O           4.4330   -0.6330    0.0000 O.2     1  LIG1       -0.2445
     21 C           0.9630   -0.6290    0.0000 C.ar    1  LIG1        0.0741
@<TRIPOS>BOND
     1     1     2    1
     2     1     5    1
     3     2     3   ar
     4     2    21   ar
     5     3     4    1
     6     3    13   ar
     7     4     5    1
     8     5     6    1
     9     6     7    1
    10     6    11    1
    11     6    12    1
    12     7     8    1
    13     8     9    2
    14     8    10    1
    15    13    14   ar
    16    14    15   ar
    17    14    19   ar
    18    15    16   ar
    19    15    21   ar
    20    16    17   ar
    21    17    18   ar
    22    17    20    2
    23    18    19   ar
