@<TRIPOS>MOLECULE
24560_ChemDiv_D060-0130
 19 22 0 0 0
SMALL
GASTEIGER
Energy = 0

@<TRIPOS>ATOM
      1 C          -1.3130   -0.1750    0.0000 C.ar    1  LIG1        0.1507
      2 C          -1.3130    0.8250    0.0000 C.ar    1  LIG1        0.1065
      3 C          -0.4540    1.3250    0.0000 C.ar    1  LIG1        0.1478
      4 C           0.4170    0.8380    0.0000 C.ar    1  LIG1        0.0692
      5 C           0.4170   -0.1790    0.0000 C.ar    1  LIG1        0.1573
      6 C          -0.4500   -0.6750    0.0000 C.ar    1  LIG1        0.1072
      7 C          -0.6630   -1.6500    0.0000 C.2     1  LIG1        0.2228
      8 C          -1.6540   -1.7580    0.0000 C.3     1  LIG1        0.2738
      9 O          -2.0580   -0.8420    0.0000 O.3     1  LIG1       -0.4667
     10 O           0.0040   -2.3920    0.0000 O.2     1  LIG1       -0.2872
     11 O           1.2790   -0.6790    0.0000 O.2     1  LIG1       -0.4207
     12 C           2.1580   -0.1790    0.0000 C.ar    1  LIG1        0.3459
     13 C           2.1580    0.8380    0.0000 C.ar    1  LIG1        0.0825
     14 C           1.2880    1.3380    0.0000 C.ar    1  LIG1        0.0127
     15 O           3.0250   -0.6790    0.0000 O.2     1  LIG1       -0.2445
     16 O          -0.6670    2.2960    0.0000 O.3     1  LIG1       -0.4668
     17 C          -1.6540    2.3960    0.0000 C.3     1  LIG1        0.2738
     18 C          -2.0580    1.4880    0.0000 C.2     1  LIG1        0.2228
     19 O          -3.0290    1.2790    0.0000 O.2     1  LIG1       -0.2872
@<TRIPOS>BOND
     1     1     2   ar
     2     1     6   ar
     3     1     9    1
     4     2     3   ar
     5     2    18    1
     6     3     4   ar
     7     3    16    1
     8     4     5   ar
     9     4    14   ar
    10     5     6   ar
    11     5    11   ar
    12     6     7    1
    13     7     8    1
    14     7    10    2
    15     8     9    1
    16    11    12   ar
    17    12    13   ar
    18    12    15    2
    19    13    14   ar
    20    16    17    1
    21    17    18    1
    22    18    19    2
