@<TRIPOS>MOLECULE
24567_ChemDiv_8009-3799
 29 31 0 0 0
SMALL
GASTEIGER
Energy = 0

@<TRIPOS>ATOM
      1 C           1.3040    1.0170    0.0000 C.ar    1  LIG1        0.0128
      2 C           2.1710    0.5000    0.0000 C.2     1  LIG1        0.0578
      3 N           3.0540    1.0170    0.0000 N.2     1  LIG1       -0.2740
      4 C           3.0540    2.0170    0.0000 C.3     1  LIG1        0.1298
      5 C           2.1710    2.5170    0.0000 C.3     1  LIG1        0.0527
      6 C           1.3040    2.0170    0.0000 C.ar    1  LIG1       -0.0158
      7 C           0.4380    2.5170    0.0000 C.ar    1  LIG1        0.0359
      8 C          -0.4330    2.0170    0.0000 C.ar    1  LIG1        0.1719
      9 C          -0.4330    1.0170    0.0000 C.ar    1  LIG1        0.1722
     10 C           0.4380    0.5000    0.0000 C.ar    1  LIG1        0.0409
     11 O          -1.3130    0.5000    0.0000 O.3     1  LIG1       -0.4724
     12 C          -2.1830    0.9920    0.0000 C.3     1  LIG1        0.2057
     13 C          -3.0580    0.4750    0.0000 C.3     1  LIG1        0.0512
     14 O          -1.3130    2.5170    0.0000 O.3     1  LIG1       -0.4724
     15 C          -2.1630    1.9710    0.0000 C.3     1  LIG1        0.2057
     16 C          -3.0580    2.4710    0.0000 C.3     1  LIG1        0.0512
     17 C           2.1710   -0.5000    0.0000 C.3     1  LIG1        0.0717
     18 C           1.3040   -1.0000    0.0000 C.ar    1  LIG1       -0.0130
     19 C           0.4380   -0.5000    0.0000 C.ar    1  LIG1        0.0362
     20 C          -0.4330   -1.0000    0.0000 C.ar    1  LIG1        0.1719
     21 C          -0.4330   -2.0040    0.0000 C.ar    1  LIG1        0.1722
     22 C           0.4380   -2.5130    0.0000 C.ar    1  LIG1        0.0397
     23 C           1.3040   -2.0040    0.0000 C.ar    1  LIG1       -0.0006
     24 O          -1.3130   -2.5130    0.0000 O.3     1  LIG1       -0.4724
     25 C          -2.1630   -2.0040    0.0000 C.3     1  LIG1        0.2057
     26 C          -3.0580   -2.5130    0.0000 C.3     1  LIG1        0.0512
     27 O          -1.3130   -0.4920    0.0000 O.3     1  LIG1       -0.4724
     28 C          -1.9540   -0.8750    0.0000 C.3     1  LIG1        0.2057
     29 C          -2.8420   -0.3830    0.0000 C.3     1  LIG1        0.0512
@<TRIPOS>BOND
     1     1     2    1
     2     1     6   ar
     3     1    10   ar
     4     2     3    2
     5     2    17    1
     6     3     4    1
     7     4     5    1
     8     5     6    1
     9     6     7   ar
    10     7     8   ar
    11     8     9   ar
    12     8    14    1
    13     9    10   ar
    14     9    11    1
    15    11    12    1
    16    12    13    1
    17    14    15    1
    18    15    16    1
    19    17    18    1
    20    18    19   ar
    21    18    23   ar
    22    19    20   ar
    23    20    21   ar
    24    20    27    1
    25    21    22   ar
    26    21    24    1
    27    22    23   ar
    28    24    25    1
    29    25    26    1
    30    27    28    1
    31    28    29    1
