@<TRIPOS>MOLECULE
24563_ChemDiv_8008-3413
 23 25 0 0 0
SMALL
GASTEIGER
Energy = 0

@<TRIPOS>ATOM
      1 C           0.4420    0.9290    0.0000 C.2     1  LIG1        0.0620
      2 C           0.4420   -0.0630    0.0000 C.3     1  LIG1        0.1237
      3 C           1.2960   -0.5670    0.0000 C.2     1  LIG1        0.2662
      4 O           2.1460   -0.0460    0.0000 O.2     1  LIG1       -0.2712
      5 N           1.2960   -1.5750    0.0000 N.am    1  LIG1       -0.0875
      6 C          -0.4130   -0.5670    0.0000 C.3     1  LIG1        0.0415
      7 C          -0.4130   -1.5580    0.0000 C.ar    1  LIG1       -0.0213
      8 C          -1.2670   -2.0670    0.0000 C.ar    1  LIG1       -0.0042
      9 C          -1.2580   -3.0630    0.0000 C.ar    1  LIG1       -0.0003
     10 C          -0.4080   -3.5670    0.0000 C.ar    1  LIG1       -0.0000
     11 C           0.4500   -3.0500    0.0000 C.ar    1  LIG1       -0.0003
     12 C           0.4420   -2.0540    0.0000 C.ar    1  LIG1       -0.0042
     13 N           1.3040    1.4250    0.0000 N.2     1  LIG1       -0.2777
     14 C           1.3040    2.4380    0.0000 C.3     1  LIG1        0.0884
     15 C           0.4420    2.9380    0.0000 C.3     1  LIG1        0.0488
     16 C          -0.4130    2.4130    0.0000 C.ar    1  LIG1       -0.0192
     17 C          -0.4130    1.4250    0.0000 C.ar    1  LIG1        0.0097
     18 C          -1.2790    0.9290    0.0000 C.ar    1  LIG1        0.0009
     19 C          -2.1500    1.4250    0.0000 C.ar    1  LIG1        0.0000
     20 C          -2.1500    2.4290    0.0000 C.ar    1  LIG1       -0.0003
     21 C          -1.2790    2.9210    0.0000 C.ar    1  LIG1       -0.0042
     22 C           1.3170    3.5710    0.0000 C.3     1  LIG1        0.0247
     23 C           2.1330    1.9880    0.0000 C.3     1  LIG1        0.0247
@<TRIPOS>BOND
     1     1     2    1
     2     1    13    2
     3     1    17    1
     4     2     3    1
     5     2     6    1
     6     3     4    2
     7     3     5   am
     8     6     7    1
     9     7     8   ar
    10     7    12   ar
    11     8     9   ar
    12     9    10   ar
    13    10    11   ar
    14    11    12   ar
    15    13    14    1
    16    14    15    1
    17    14    22    1
    18    14    23    1
    19    15    16    1
    20    16    17   ar
    21    16    21   ar
    22    17    18   ar
    23    18    19   ar
    24    19    20   ar
    25    20    21   ar
