@<TRIPOS>MOLECULE
24561_ChemDiv_8006-6693
 23 25 0 0 0
SMALL
GASTEIGER
Energy = 0

@<TRIPOS>ATOM
      1 C          -0.4210   -0.3750    0.0000 C.2     1  LIG1        0.0624
      2 N           0.4630    0.1420    0.0000 N.2     1  LIG1       -0.2777
      3 C           0.4630    1.1380    0.0000 C.3     1  LIG1        0.0883
      4 C          -0.4210    1.6460    0.0000 C.3     1  LIG1        0.0488
      5 C          -1.3080    1.1380    0.0000 C.ar    1  LIG1       -0.0192
      6 C          -1.3080    0.1420    0.0000 C.ar    1  LIG1        0.0097
      7 C          -2.1540   -0.3750    0.0000 C.ar    1  LIG1        0.0009
      8 C          -3.0380    0.1420    0.0000 C.ar    1  LIG1        0.0000
      9 C          -3.0380    1.1380    0.0000 C.ar    1  LIG1       -0.0003
     10 C          -2.1540    1.6460    0.0000 C.ar    1  LIG1       -0.0042
     11 C           1.4580    1.3330    0.0000 C.3     1  LIG1        0.0228
     12 C           1.7710    2.2710    0.0000 C.3     1  LIG1        0.0020
     13 C          -0.1920    1.9040    0.0000 C.3     1  LIG1        0.0228
     14 C           0.1500    2.8420    0.0000 C.3     1  LIG1        0.0020
     15 C          -0.4210   -1.3670    0.0000 C.3     1  LIG1        0.1304
     16 C           0.4330   -1.8670    0.0000 C.2     1  LIG1        0.2318
     17 N           1.2830   -1.3580    0.0000 N.am    1  LIG1       -0.2741
     18 C           1.3290   -0.3630    0.0000 C.3     1  LIG1        0.1255
     19 C           2.1960    0.1080    0.0000 C.3     1  LIG1        0.1636
     20 O           3.0330   -0.4170    0.0000 O.3     1  LIG1       -0.3501
     21 C           2.9960   -1.4130    0.0000 C.3     1  LIG1        0.1636
     22 C           2.1130   -1.8790    0.0000 C.3     1  LIG1        0.1255
     23 O           0.3880   -2.8380    0.0000 O.2     1  LIG1       -0.2744
@<TRIPOS>BOND
     1     1     2    2
     2     1     6    1
     3     1    15    1
     4     2     3    1
     5     3     4    1
     6     3    11    1
     7     3    13    1
     8     4     5    1
     9     5     6   ar
    10     5    10   ar
    11     6     7   ar
    12     7     8   ar
    13     8     9   ar
    14     9    10   ar
    15    11    12    1
    16    13    14    1
    17    15    16    1
    18    16    17   am
    19    16    23    2
    20    17    18    1
    21    17    22    1
    22    18    19    1
    23    19    20    1
    24    20    21    1
    25    21    22    1
