@<TRIPOS>MOLECULE
24569_ChemDiv_8011-1858
 28 31 0 0 0
SMALL
GASTEIGER
Energy = 0

@<TRIPOS>ATOM
      1 C           0.8670    0.2250    0.0000 C.2     1  LIG1        0.0927
      2 C           0.8750   -0.7750    0.0000 C.2     1  LIG1        0.0926
      3 N           0.0210   -1.2830    0.0000 N.2     1  LIG1       -0.2724
      4 C           0.0500   -2.2750    0.0000 C.3     1  LIG1        0.0888
      5 C           0.9250   -2.7500    0.0000 C.3     1  LIG1        0.0488
      6 C           1.7710   -2.2250    0.0000 C.ar    1  LIG1       -0.0188
      7 C           1.7500   -1.2290    0.0000 C.ar    1  LIG1        0.0148
      8 C           2.6210   -0.7210    0.0000 C.ar    1  LIG1        0.0012
      9 C           3.4960   -1.1750    0.0000 C.ar    1  LIG1        0.0000
     10 C           3.5210   -2.1670    0.0000 C.ar    1  LIG1       -0.0003
     11 C           2.6710   -2.6960    0.0000 C.ar    1  LIG1       -0.0042
     12 C          -0.5000   -3.0830    0.0000 C.3     1  LIG1        0.0247
     13 C          -1.0420   -2.2580    0.0000 C.3     1  LIG1        0.0247
     14 N           1.7170    0.7630    0.0000 N.2     1  LIG1       -0.2724
     15 C           1.6920    1.7250    0.0000 C.3     1  LIG1        0.0888
     16 C           0.8170    2.2380    0.0000 C.3     1  LIG1        0.0489
     17 C          -0.0250    1.7250    0.0000 C.ar    1  LIG1       -0.0156
     18 C          -0.0250    0.7250    0.0000 C.ar    1  LIG1        0.0180
     19 C          -0.8580    0.2040    0.0000 C.ar    1  LIG1        0.0413
     20 C          -1.7210    0.6750    0.0000 C.ar    1  LIG1        0.1724
     21 C          -1.7380    1.6670    0.0000 C.ar    1  LIG1        0.1721
     22 C          -0.8920    2.1920    0.0000 C.ar    1  LIG1        0.0359
     23 O          -2.6420    2.1170    0.0000 O.3     1  LIG1       -0.4684
     24 C          -2.6960    3.0880    0.0000 C.3     1  LIG1        0.2526
     25 O          -2.6250    0.2000    0.0000 O.3     1  LIG1       -0.4684
     26 C          -3.5250    0.7250    0.0000 C.3     1  LIG1        0.2526
     27 C           2.6750    1.5540    0.0000 C.3     1  LIG1        0.0247
     28 C           2.2000    2.5830    0.0000 C.3     1  LIG1        0.0247
@<TRIPOS>BOND
     1     1     2    1
     2     1    14    2
     3     1    18    1
     4     2     3    2
     5     2     7    1
     6     3     4    1
     7     4     5    1
     8     4    12    1
     9     4    13    1
    10     5     6    1
    11     6     7   ar
    12     6    11   ar
    13     7     8   ar
    14     8     9   ar
    15     9    10   ar
    16    10    11   ar
    17    14    15    1
    18    15    16    1
    19    15    27    1
    20    15    28    1
    21    16    17    1
    22    17    18   ar
    23    17    22   ar
    24    18    19   ar
    25    19    20   ar
    26    20    21   ar
    27    20    25    1
    28    21    22   ar
    29    21    23    1
    30    23    24    1
    31    25    26    1
