@<TRIPOS>MOLECULE
24575_ChemDiv_8012-0264
 15 16 0 0 0
SMALL
GASTEIGER
Energy = 0

@<TRIPOS>ATOM
      1 C           0.4330    0.2540    0.0000 C.ar    1  LIG1        0.0126
      2 C           1.3130   -0.2460    0.0000 C.2     1  LIG1        0.0531
      3 N           2.1790    0.2540    0.0000 N.2     1  LIG1       -0.2744
      4 C           2.1790    1.2500    0.0000 C.3     1  LIG1        0.1298
      5 C           1.3130    1.7460    0.0000 C.3     1  LIG1        0.0527
      6 C           0.4330    1.2500    0.0000 C.ar    1  LIG1       -0.0157
      7 C          -0.4420    1.7460    0.0000 C.ar    1  LIG1        0.0412
      8 C          -1.3130    1.2500    0.0000 C.ar    1  LIG1        0.2339
      9 C          -1.3130    0.2540    0.0000 C.ar    1  LIG1        0.2343
     10 C          -0.4420   -0.2460    0.0000 C.ar    1  LIG1        0.0462
     11 O          -2.1830   -0.2460    0.0000 O.3     1  LIG1       -0.2831
     12 O          -2.1830    1.7460    0.0000 O.3     1  LIG1       -0.2832
     13 C           1.3130   -1.2460    0.0000 C.3     1  LIG1        0.0399
     14 C           0.4500   -1.7420    0.0000 C.3     1  LIG1        0.0063
     15 C           2.1710   -1.6920    0.0000 C.3     1  LIG1        0.0063
@<TRIPOS>BOND
     1     1     2    1
     2     1     6   ar
     3     1    10   ar
     4     2     3    2
     5     2    13    1
     6     3     4    1
     7     4     5    1
     8     5     6    1
     9     6     7   ar
    10     7     8   ar
    11     8     9   ar
    12     8    12    1
    13     9    10   ar
    14     9    11    1
    15    13    14    1
    16    13    15    1
