@<TRIPOS>MOLECULE
24571_ChemDiv_8011-5429
 18 19 0 0 0
SMALL
GASTEIGER
Energy = 0

@<TRIPOS>ATOM
      1 N           2.1580    0.4210    0.0000 N.2     1  LIG1       -0.2638
      2 C           1.6540   -0.4290    0.0000 C.2     1  LIG1        0.1436
      3 C           0.6580   -0.4290    0.0000 C.ar    1  LIG1        0.0264
      4 C           0.1830    0.4250    0.0000 C.ar    1  LIG1       -0.0150
      5 C          -0.8080    0.4250    0.0000 C.ar    1  LIG1        0.0359
      6 C          -1.3170   -0.4290    0.0000 C.ar    1  LIG1        0.1721
      7 C          -0.8500   -1.2960    0.0000 C.ar    1  LIG1        0.1724
      8 C           0.1580   -1.2960    0.0000 C.ar    1  LIG1        0.0419
      9 O          -1.3290   -2.1540    0.0000 O.3     1  LIG1       -0.4684
     10 C          -2.3330   -2.1540    0.0000 C.3     1  LIG1        0.2526
     11 O          -2.3250   -0.4330    0.0000 O.3     1  LIG1       -0.4684
     12 C          -2.7960    0.4380    0.0000 C.3     1  LIG1        0.2526
     13 C           0.6830    1.2710    0.0000 C.3     1  LIG1        0.0489
     14 C           1.6790    1.2710    0.0000 C.3     1  LIG1        0.0895
     15 C           2.7920    1.2710    0.0000 C.3     1  LIG1        0.0247
     16 C           1.1630    2.1630    0.0000 C.3     1  LIG1        0.0247
     17 C           2.1250   -1.2960    0.0000 C.1     1  LIG1        0.1193
     18 N           2.6040   -2.1580    0.0000 N.1     1  LIG1       -0.1893
@<TRIPOS>BOND
     1     1     2    2
     2     1    14    1
     3     2     3    1
     4     2    17    1
     5     3     4   ar
     6     3     8   ar
     7     4     5   ar
     8     4    13    1
     9     5     6   ar
    10     6     7   ar
    11     6    11    1
    12     7     8   ar
    13     7     9    1
    14     9    10    1
    15    11    12    1
    16    13    14    1
    17    14    15    1
    18    14    16    1
    19    17    18    3
