@<TRIPOS>MOLECULE
24577_ChemDiv_0080-0033
 36 39 0 0 0
SMALL
GASTEIGER
Energy = 0

@<TRIPOS>ATOM
      1 C           0.5130   -0.8830    0.0000 C.ar    1  LIG1        0.1047
      2 C           1.3920   -0.3790    0.0000 C.3     1  LIG1        0.1604
      3 C           2.2750   -0.8830    0.0000 C.3     1  LIG1        0.2595
      4 C           2.2750   -1.9080    0.0000 C.3     1  LIG1        0.1757
      5 O           1.3920   -2.4130    0.0000 O.3     1  LIG1       -0.4788
      6 C           0.5130   -1.9080    0.0000 C.ar    1  LIG1        0.1429
      7 C          -0.3380   -2.4130    0.0000 C.ar    1  LIG1        0.0370
      8 C          -1.2210   -1.9080    0.0000 C.ar    1  LIG1        0.0063
      9 C          -1.2210   -0.8830    0.0000 C.ar    1  LIG1        0.0392
     10 C          -0.3380   -0.3790    0.0000 C.ar    1  LIG1        0.2000
     11 O          -0.3380    0.6170    0.0000 O.3     1  LIG1       -0.2866
     12 C          -2.1000   -0.3540    0.0000 C.2     1  LIG1        0.0078
     13 C          -3.0130   -0.8500    0.0000 C.2     1  LIG1        0.0581
     14 C          -3.8630   -0.3250    0.0000 C.2     1  LIG1        0.2493
     15 N          -3.8380    0.6710    0.0000 N.am    1  LIG1       -0.2709
     16 C          -4.6880    1.2040    0.0000 C.3     1  LIG1        0.1258
     17 C          -4.6580    2.2000    0.0000 C.3     1  LIG1        0.1637
     18 O          -3.7790    2.7040    0.0000 O.3     1  LIG1       -0.3501
     19 C          -2.9250    2.1710    0.0000 C.3     1  LIG1        0.1637
     20 C          -2.9580    1.1750    0.0000 C.3     1  LIG1        0.1258
     21 O          -4.7750   -0.7960    0.0000 O.2     1  LIG1       -0.2699
     22 C           2.8630   -2.7290    0.0000 C.3     1  LIG1        0.0476
     23 C           3.2710   -1.8250    0.0000 C.3     1  LIG1        0.0476
     24 O           3.1540   -0.3540    0.0000 O.3     1  LIG1       -0.4422
     25 C           3.1250    0.6460    0.0000 C.2     1  LIG1        0.3172
     26 O           2.5500    0.9960    0.0000 O.2     1  LIG1       -0.2501
     27 C           3.9750    1.1750    0.0000 C.3     1  LIG1        0.1096
     28 C           3.9460    2.2000    0.0000 C.3     1  LIG1        0.0111
     29 C           4.7710    2.7330    0.0000 C.3     1  LIG1        0.0006
     30 C           3.0630    2.6710    0.0000 C.3     1  LIG1        0.0006
     31 N           1.3630    0.6170    0.0000 N.4     1  LIG1        0.3831
     32 C           2.2420    1.1130    0.0000 C.3     1  LIG1        0.1716
     33 C           2.2750    2.1170    0.0000 C.3     1  LIG1        0.2048
     34 O           1.3630    2.6130    0.0000 O.3     1  LIG1       -0.3411
     35 C           0.5130    2.1170    0.0000 C.3     1  LIG1        0.2048
     36 C           0.5130    1.1130    0.0000 C.3     1  LIG1        0.1716
@<TRIPOS>BOND
     1     1     2    1
     2     1     6   ar
     3     1    10   ar
     4     2     3    1
     5     2    31    1
     6     3     4    1
     7     3    24    1
     8     4     5    1
     9     4    22    1
    10     4    23    1
    11     5     6    1
    12     6     7   ar
    13     7     8   ar
    14     8     9   ar
    15     9    10   ar
    16     9    12    1
    17    10    11    1
    18    12    13    2
    19    13    14    1
    20    14    15   am
    21    14    21    2
    22    15    16    1
    23    15    20    1
    24    16    17    1
    25    17    18    1
    26    18    19    1
    27    19    20    1
    28    24    25    1
    29    25    26    2
    30    25    27    1
    31    27    28    1
    32    28    29    1
    33    28    30    1
    34    31    32    1
    35    31    36    1
    36    32    33    1
    37    33    34    1
    38    34    35    1
    39    35    36    1
