@<TRIPOS>MOLECULE
24573_ChemDiv_8011-8974
 32 35 0 0 0
SMALL
GASTEIGER
Energy = 0

@<TRIPOS>ATOM
      1 C          -0.0040    0.4330    0.0000 C.2     1  LIG1        0.0927
      2 C          -0.0040   -0.4750    0.0000 C.2     1  LIG1        0.0927
      3 N          -0.8830   -0.9830    0.0000 N.2     1  LIG1       -0.2724
      4 C          -0.8830   -1.9790    0.0000 C.3     1  LIG1        0.0888
      5 C          -0.0040   -2.4750    0.0000 C.3     1  LIG1        0.0489
      6 C           0.8710   -1.9790    0.0000 C.ar    1  LIG1       -0.0156
      7 C           0.8710   -0.9830    0.0000 C.ar    1  LIG1        0.0180
      8 C           1.7460   -0.4750    0.0000 C.ar    1  LIG1        0.0413
      9 C           2.6210   -0.9830    0.0000 C.ar    1  LIG1        0.1724
     10 C           2.6210   -1.9790    0.0000 C.ar    1  LIG1        0.1721
     11 C           1.7460   -2.4750    0.0000 C.ar    1  LIG1        0.0359
     12 O           3.4880   -2.4670    0.0000 O.3     1  LIG1       -0.4684
     13 C           4.3630   -2.0210    0.0000 C.3     1  LIG1        0.2526
     14 O           3.4960   -0.5000    0.0000 O.3     1  LIG1       -0.4684
     15 C           4.3420   -1.0040    0.0000 C.3     1  LIG1        0.2526
     16 C          -1.7380   -2.4670    0.0000 C.3     1  LIG1        0.0247
     17 C          -1.7380   -1.5130    0.0000 C.3     1  LIG1        0.0247
     18 N           0.8540    0.9500    0.0000 N.2     1  LIG1       -0.2724
     19 C           0.8540    1.9580    0.0000 C.3     1  LIG1        0.0888
     20 C          -0.0040    2.4580    0.0000 C.3     1  LIG1        0.0489
     21 C          -0.8830    1.9580    0.0000 C.ar    1  LIG1       -0.0156
     22 C          -0.8830    0.9500    0.0000 C.ar    1  LIG1        0.0180
     23 C          -1.7500    0.4330    0.0000 C.ar    1  LIG1        0.0413
     24 C          -2.6460    0.9500    0.0000 C.ar    1  LIG1        0.1724
     25 C          -2.6460    1.9580    0.0000 C.ar    1  LIG1        0.1721
     26 C          -1.7500    2.4580    0.0000 C.ar    1  LIG1        0.0359
     27 O          -3.5080    2.4580    0.0000 O.3     1  LIG1       -0.4684
     28 C          -4.3670    1.9580    0.0000 C.3     1  LIG1        0.2526
     29 O          -3.5170    0.4630    0.0000 O.3     1  LIG1       -0.4684
     30 C          -4.3670    0.9750    0.0000 C.3     1  LIG1        0.2526
     31 C           1.7040    2.4790    0.0000 C.3     1  LIG1        0.0247
     32 C           1.7580    1.4960    0.0000 C.3     1  LIG1        0.0247
@<TRIPOS>BOND
     1     1     2    1
     2     1    18    2
     3     1    22    1
     4     2     3    2
     5     2     7    1
     6     3     4    1
     7     4     5    1
     8     4    16    1
     9     4    17    1
    10     5     6    1
    11     6     7   ar
    12     6    11   ar
    13     7     8   ar
    14     8     9   ar
    15     9    10   ar
    16     9    14    1
    17    10    11   ar
    18    10    12    1
    19    12    13    1
    20    14    15    1
    21    18    19    1
    22    19    20    1
    23    19    31    1
    24    19    32    1
    25    20    21    1
    26    21    22   ar
    27    21    26   ar
    28    22    23   ar
    29    23    24   ar
    30    24    25   ar
    31    24    29    1
    32    25    26   ar
    33    25    27    1
    34    27    28    1
    35    29    30    1
