@<TRIPOS>MOLECULE
24579_ChemDiv_N021-0003
 33 36 0 0 0
SMALL
GASTEIGER
Energy = 0

@<TRIPOS>ATOM
      1 C          -0.0040   -1.5540    0.0000 C.ar    1  LIG1        0.1047
      2 C           0.8540   -1.0710    0.0000 C.3     1  LIG1        0.1604
      3 C           1.7250   -1.5540    0.0000 C.3     1  LIG1        0.2595
      4 C           1.7250   -2.5580    0.0000 C.3     1  LIG1        0.1757
      5 O           0.8540   -3.0630    0.0000 O.3     1  LIG1       -0.4788
      6 C          -0.0040   -2.5580    0.0000 C.ar    1  LIG1        0.1429
      7 C          -0.8630   -3.0630    0.0000 C.ar    1  LIG1        0.0370
      8 C          -1.7290   -2.5580    0.0000 C.ar    1  LIG1        0.0063
      9 C          -1.7290   -1.5540    0.0000 C.ar    1  LIG1        0.0392
     10 C          -0.8630   -1.0710    0.0000 C.ar    1  LIG1        0.2000
     11 O          -0.8630   -0.0540    0.0000 O.3     1  LIG1       -0.2866
     12 C          -2.6080   -1.0710    0.0000 C.2     1  LIG1        0.0078
     13 C          -2.6080   -0.0540    0.0000 C.2     1  LIG1        0.0581
     14 C          -3.4670    0.4330    0.0000 C.2     1  LIG1        0.2493
     15 N          -3.4670    1.4420    0.0000 N.am    1  LIG1       -0.2709
     16 C          -4.3290    1.9330    0.0000 C.3     1  LIG1        0.1258
     17 C          -4.3290    2.9420    0.0000 C.3     1  LIG1        0.1637
     18 O          -3.4670    3.4380    0.0000 O.3     1  LIG1       -0.3501
     19 C          -2.6080    2.9420    0.0000 C.3     1  LIG1        0.1637
     20 C          -2.6080    1.9330    0.0000 C.3     1  LIG1        0.1258
     21 O          -4.3290   -0.0540    0.0000 O.2     1  LIG1       -0.2699
     22 C           2.7330   -2.5580    0.0000 C.3     1  LIG1        0.0476
     23 C           2.2250   -3.4330    0.0000 C.3     1  LIG1        0.0476
     24 O           2.6000   -1.0710    0.0000 O.3     1  LIG1       -0.4421
     25 C           3.4580   -1.5540    0.0000 C.2     1  LIG1        0.3178
     26 O           4.3250   -1.0710    0.0000 O.2     1  LIG1       -0.2501
     27 C           3.4580   -2.5670    0.0000 C.3     1  LIG1        0.1212
     28 N           0.8540   -0.0540    0.0000 N.4     1  LIG1        0.3831
     29 C          -0.0040    0.4500    0.0000 C.3     1  LIG1        0.1716
     30 C          -0.0040    1.4420    0.0000 C.3     1  LIG1        0.2048
     31 O           0.8540    1.9540    0.0000 O.3     1  LIG1       -0.3411
     32 C           1.7250    1.4420    0.0000 C.3     1  LIG1        0.2048
     33 C           1.7250    0.4500    0.0000 C.3     1  LIG1        0.1716
@<TRIPOS>BOND
     1     1     2    1
     2     1     6   ar
     3     1    10   ar
     4     2     3    1
     5     2    28    1
     6     3     4    1
     7     3    24    1
     8     4     5    1
     9     4    22    1
    10     4    23    1
    11     5     6    1
    12     6     7   ar
    13     7     8   ar
    14     8     9   ar
    15     9    10   ar
    16     9    12    1
    17    10    11    1
    18    12    13    2
    19    13    14    1
    20    14    15   am
    21    14    21    2
    22    15    16    1
    23    15    20    1
    24    16    17    1
    25    17    18    1
    26    18    19    1
    27    19    20    1
    28    24    25    1
    29    25    26    2
    30    25    27    1
    31    28    29    1
    32    28    33    1
    33    29    30    1
    34    30    31    1
    35    31    32    1
    36    32    33    1
