@<TRIPOS>MOLECULE
24583_ChemDiv_0083-0020
 17 18 0 0 0
SMALL
GASTEIGER
Energy = 0

@<TRIPOS>ATOM
      1 C          -0.8750    1.0380    0.0000 C.2     1  LIG1        0.1955
      2 C           0.0040    0.5290    0.0000 C.ar    1  LIG1        0.0390
      3 C           0.0040   -0.4880    0.0000 C.ar    1  LIG1        0.0044
      4 C           0.8790   -1.0040    0.0000 C.ar    1  LIG1        0.0146
      5 C           1.7460   -0.4880    0.0000 C.ar    1  LIG1        0.0479
      6 N           2.6210   -1.0420    0.0000 N.pl3   1  LIG1       -0.3041
      7 C           2.5830   -2.0170    0.0000 C.3     1  LIG1        0.1122
      8 C           3.4960   -0.5250    0.0000 C.3     1  LIG1        0.1122
      9 C           1.7460    0.5290    0.0000 C.ar    1  LIG1        0.0146
     10 C           0.8790    1.0000    0.0000 C.ar    1  LIG1        0.0044
     11 O          -0.8750    2.0210    0.0000 O.2     1  LIG1       -0.2866
     12 C          -1.7500    0.5290    0.0000 C.ar    1  LIG1        0.0390
     13 C          -2.6210    1.0380    0.0000 C.ar    1  LIG1        0.0032
     14 C          -3.4630    0.5670    0.0000 C.ar    1  LIG1        0.0001
     15 C          -3.5000   -0.4210    0.0000 C.ar    1  LIG1        0.0000
     16 C          -2.6210   -0.9290    0.0000 C.ar    1  LIG1        0.0001
     17 C          -1.7880   -0.4500    0.0000 C.ar    1  LIG1        0.0032
@<TRIPOS>BOND
     1     1     2    1
     2     1    11    2
     3     1    12    1
     4     2     3   ar
     5     2    10   ar
     6     3     4   ar
     7     4     5   ar
     8     5     6    1
     9     5     9   ar
    10     6     7    1
    11     6     8    1
    12     9    10   ar
    13    12    13   ar
    14    12    17   ar
    15    13    14   ar
    16    14    15   ar
    17    15    16   ar
    18    16    17   ar
