@<TRIPOS>MOLECULE
24589_ChemDiv_0086-0010
 19 21 0 0 0
SMALL
GASTEIGER
Energy = 0

@<TRIPOS>ATOM
      1 N          -1.2040   -0.8040    0.0000 N.ar    1  LIG1       -0.1470
      2 C          -0.6130   -0.0080    0.0000 C.ar    1  LIG1        0.2969
      3 N          -1.2040    0.8000    0.0000 N.ar    1  LIG1       -0.2679
      4 C          -2.1330    0.5040    0.0000 C.ar    1  LIG1        0.1286
      5 C          -2.1330   -0.5000    0.0000 C.ar    1  LIG1        0.2435
      6 C          -3.0040   -1.0170    0.0000 C.ar    1  LIG1        0.0708
      7 C          -3.8880   -0.5250    0.0000 C.ar    1  LIG1        0.0062
      8 C          -3.8880    0.5040    0.0000 C.ar    1  LIG1        0.0019
      9 C          -3.0040    0.9960    0.0000 C.ar    1  LIG1        0.0234
     10 C          -0.8750    1.7670    0.0000 C.3     1  LIG1        0.1364
     11 C           0.3880    0.0580    0.0000 C.ar    1  LIG1        0.0823
     12 C           0.9210   -0.7790    0.0000 C.ar    1  LIG1        0.0107
     13 C           1.9210   -0.7380    0.0000 C.ar    1  LIG1        0.0372
     14 C           2.3920    0.1500    0.0000 C.ar    1  LIG1        0.1387
     15 C           1.8380    0.9960    0.0000 C.ar    1  LIG1        0.0372
     16 C           0.8210    0.9460    0.0000 C.ar    1  LIG1        0.0107
     17 O           3.4170    0.2000    0.0000 O.3     1  LIG1       -0.4714
     18 C           3.8830    0.9960    0.0000 C.3     1  LIG1        0.2525
     19 C          -0.8750   -1.7630    0.0000 C.3     1  LIG1        0.4094
@<TRIPOS>BOND
     1     1     2   ar
     2     1     5   ar
     3     1    19    1
     4     2     3   ar
     5     2    11    1
     6     3     4   ar
     7     3    10    1
     8     4     5   ar
     9     4     9   ar
    10     5     6   ar
    11     6     7   ar
    12     7     8   ar
    13     8     9   ar
    14    11    12   ar
    15    11    16   ar
    16    12    13   ar
    17    13    14   ar
    18    14    15   ar
    19    14    17    1
    20    15    16   ar
    21    17    18    1
