@<TRIPOS>MOLECULE
24580_ChemDiv_R507-0018
 20 22 0 0 0
SMALL
GASTEIGER
Energy = 0

@<TRIPOS>ATOM
      1 C          -0.8210    0.0540    0.0000 C.ar    1  LIG1        0.0390
      2 C          -0.0130    0.6460    0.0000 C.2     1  LIG1        0.1955
      3 C           0.8000    0.0670    0.0000 C.ar    1  LIG1        0.0390
      4 C           0.4960   -0.8830    0.0000 C.ar    1  LIG1        0.0032
      5 C          -0.5000   -0.8960    0.0000 C.ar    1  LIG1        0.0032
      6 C          -1.1710   -1.6460    0.0000 C.ar    1  LIG1        0.0001
      7 C          -2.1500   -1.4420    0.0000 C.ar    1  LIG1        0.0011
      8 C          -2.4580   -0.4880    0.0000 C.ar    1  LIG1        0.0141
      9 C          -1.7960    0.2540    0.0000 C.ar    1  LIG1        0.0043
     10 C          -3.4420   -0.2830    0.0000 C.2     1  LIG1        0.0729
     11 O          -4.1080   -1.0290    0.0000 O.co2   1  LIG1       -0.5446
     12 O          -3.7500    0.6670    0.0000 O.co2   1  LIG1       -0.5446
     13 C           1.1670   -1.6210    0.0000 C.ar    1  LIG1        0.0001
     14 C           2.1460   -1.4130    0.0000 C.ar    1  LIG1        0.0011
     15 C           2.4460   -0.4580    0.0000 C.ar    1  LIG1        0.0141
     16 C           1.7710    0.2790    0.0000 C.ar    1  LIG1        0.0043
     17 C           3.4250   -0.2420    0.0000 C.2     1  LIG1        0.0729
     18 O           3.7290    0.7130    0.0000 O.co2   1  LIG1       -0.5446
     19 O           4.1040   -0.9710    0.0000 O.co2   1  LIG1       -0.5446
     20 O          -0.0210    1.6500    0.0000 O.2     1  LIG1       -0.2866
@<TRIPOS>BOND
     1     1     2    1
     2     1     5   ar
     3     1     9   ar
     4     2     3    1
     5     2    20    2
     6     3     4   ar
     7     3    16   ar
     8     4     5    1
     9     4    13   ar
    10     5     6   ar
    11     6     7   ar
    12     7     8   ar
    13     8     9   ar
    14     8    10    1
    15    10    11   ar
    16    10    12   ar
    17    13    14   ar
    18    14    15   ar
    19    15    16   ar
    20    15    17    1
    21    17    18   ar
    22    17    19   ar
