@<TRIPOS>MOLECULE
24585_ChemDiv_0083-0043
 17 19 0 0 0
SMALL
GASTEIGER
Energy = 0

@<TRIPOS>ATOM
      1 N          -0.4500   -1.0000    0.0000 N.ar    1  LIG1        0.0927
      2 C           0.4250   -0.5210    0.0000 C.ar    1  LIG1        0.3481
      3 C           0.4250    0.5250    0.0000 C.ar    1  LIG1        0.3492
      4 N          -0.4500    1.0130    0.0000 N.ar    1  LIG1        0.0928
      5 C          -1.3040    0.4960    0.0000 C.ar    1  LIG1        0.3493
      6 C          -1.3040   -0.4960    0.0000 C.ar    1  LIG1        0.3493
      7 C          -2.1500   -1.0000    0.0000 C.ar    1  LIG1        0.0808
      8 C          -3.0040   -0.5210    0.0000 C.ar    1  LIG1        0.0067
      9 C          -3.0040    0.5250    0.0000 C.ar    1  LIG1        0.0067
     10 C          -2.1500    1.0130    0.0000 C.ar    1  LIG1        0.0808
     11 O          -0.4500    1.9960    0.0000 O.2     1  LIG1        0.0338
     12 C           1.2750    1.0130    0.0000 C.ar    1  LIG1        0.0795
     13 C           2.1540    0.5250    0.0000 C.ar    1  LIG1       -0.0099
     14 C           2.1540   -0.5210    0.0000 C.ar    1  LIG1       -0.0848
     15 C           1.2750   -1.0000    0.0000 C.ar    1  LIG1        0.0642
     16 O           3.0000   -1.0580    0.0000 O.co2   1  LIG1       -0.8727
     17 O          -0.4500   -1.9920    0.0000 O.2     1  LIG1        0.0338
@<TRIPOS>BOND
     1     1     2   ar
     2     1     6   ar
     3     1    17    2
     4     2     3   ar
     5     2    15   ar
     6     3     4   ar
     7     3    12   ar
     8     4     5   ar
     9     4    11    2
    10     5     6   ar
    11     5    10   ar
    12     6     7   ar
    13     7     8   ar
    14     8     9   ar
    15     9    10   ar
    16    12    13   ar
    17    13    14   ar
    18    14    15   ar
    19    14    16    1
