@<TRIPOS>MOLECULE
24584_ChemDiv_R507-0028
 16 18 0 0 0
SMALL
GASTEIGER
Energy = 0

@<TRIPOS>ATOM
      1 C           0.5040    0.4460    0.0000 C.ar    1  LIG1       -0.0028
      2 C           0.7960    1.4040    0.0000 C.ar    1  LIG1       -0.0178
      3 C          -0.0250    1.9750    0.0000 C.3     1  LIG1        0.0526
      4 C          -0.8250    1.3710    0.0000 C.ar    1  LIG1       -0.0178
      5 C          -0.4920    0.4250    0.0000 C.ar    1  LIG1       -0.0039
      6 C          -1.1500   -0.3380    0.0000 C.ar    1  LIG1       -0.0003
      7 C          -2.1330   -0.1460    0.0000 C.ar    1  LIG1       -0.0000
      8 C          -2.4540    0.8040    0.0000 C.ar    1  LIG1       -0.0003
      9 C          -1.8040    1.5580    0.0000 C.ar    1  LIG1       -0.0039
     10 C           1.7630    1.6290    0.0000 C.ar    1  LIG1       -0.0039
     11 C           2.4500    0.9040    0.0000 C.ar    1  LIG1       -0.0003
     12 C           2.1630   -0.0580    0.0000 C.ar    1  LIG1        0.0011
     13 C           1.1830   -0.2830    0.0000 C.ar    1  LIG1        0.0137
     14 C           0.8920   -1.2380    0.0000 C.2     1  LIG1        0.0729
     15 O           1.5750   -1.9710    0.0000 O.co2   1  LIG1       -0.5446
     16 O          -0.0790   -1.4670    0.0000 O.co2   1  LIG1       -0.5446
@<TRIPOS>BOND
     1     1     2   ar
     2     1     5    1
     3     1    13   ar
     4     2     3    1
     5     2    10   ar
     6     3     4    1
     7     4     5   ar
     8     4     9   ar
     9     5     6   ar
    10     6     7   ar
    11     7     8   ar
    12     8     9   ar
    13    10    11   ar
    14    11    12   ar
    15    12    13   ar
    16    13    14    1
    17    14    15   ar
    18    14    16   ar
