@<TRIPOS>MOLECULE
24586_ChemDiv_0199-0139
 18 19 0 0 0
SMALL
GASTEIGER
Energy = 0

@<TRIPOS>ATOM
      1 C          -0.5130   -1.2210    0.0000 C.3     1  LIG1        0.2600
      2 O          -0.5130   -0.2330    0.0000 O.3     1  LIG1       -0.3270
      3 C          -1.3580    0.2710    0.0000 C.3     1  LIG1        0.1476
      4 C          -2.2330   -0.2250    0.0000 C.3     1  LIG1        0.0595
      5 C          -2.2330   -1.2210    0.0000 C.3     1  LIG1        0.1476
      6 O          -1.3580   -1.7080    0.0000 O.3     1  LIG1       -0.3270
      7 C          -3.0750    0.2830    0.0000 C.3     1  LIG1        0.0050
      8 C          -3.0670    1.2830    0.0000 C.3     1  LIG1        0.0002
      9 C          -2.2000    1.7540    0.0000 C.3     1  LIG1        0.0000
     10 C          -2.1960    2.7540    0.0000 C.3     1  LIG1        0.0000
     11 C          -1.3210    3.2290    0.0000 C.3     1  LIG1        0.0000
     12 C           0.3500   -1.7210    0.0000 C.ar    1  LIG1        0.0338
     13 C           0.3500   -2.7080    0.0000 C.ar    1  LIG1        0.0038
     14 C           1.2040   -3.2130    0.0000 C.ar    1  LIG1        0.0419
     15 C           2.0710   -2.7080    0.0000 C.ar    1  LIG1        0.1957
     16 C           2.0710   -1.7210    0.0000 C.ar    1  LIG1        0.0419
     17 C           1.2040   -1.2210    0.0000 C.ar    1  LIG1        0.0038
     18 O           3.0710   -3.2250    0.0000 O.3     1  LIG1       -0.2866
@<TRIPOS>BOND
     1     1     2    1
     2     1     6    1
     3     1    12    1
     4     2     3    1
     5     3     4    1
     6     4     5    1
     7     4     7    1
     8     5     6    1
     9     7     8    1
    10     8     9    1
    11     9    10    1
    12    10    11    1
    13    12    13   ar
    14    12    17   ar
    15    13    14   ar
    16    14    15   ar
    17    15    16   ar
    18    15    18    1
    19    16    17   ar
