@<TRIPOS>MOLECULE
24594_ChemDiv_0136-0222
 19 20 0 0 0
SMALL
GASTEIGER
Energy = 0

@<TRIPOS>ATOM
      1 N          -2.5250    2.0460    0.0000 N.4     1  LIG1        0.3123
      2 C          -3.3920    2.5500    0.0000 C.3     1  LIG1        0.1366
      3 C          -4.2710    2.0460    0.0000 C.ar    1  LIG1        0.0328
      4 C          -5.1460    2.5500    0.0000 C.ar    1  LIG1        0.0014
      5 C          -6.0080    2.0460    0.0000 C.ar    1  LIG1       -0.0001
      6 C          -6.0080    1.0460    0.0000 C.ar    1  LIG1       -0.0000
      7 C          -5.1460    0.5460    0.0000 C.ar    1  LIG1       -0.0001
      8 C          -4.2710    1.0460    0.0000 C.ar    1  LIG1        0.0014
      9 C          -1.6830    1.5670    0.0000 C.3     1  LIG1        0.1575
     10 C          -1.6830    0.5460    0.0000 C.3     1  LIG1        0.2658
     11 O          -0.8170    0.0500    0.0000 O.3     1  LIG1       -0.4691
     12 C          -0.8170   -0.9540    0.0000 C.ar    1  LIG1        0.1389
     13 C          -1.6830   -1.4500    0.0000 C.ar    1  LIG1        0.0369
     14 C          -1.6830   -2.4330    0.0000 C.ar    1  LIG1        0.0031
     15 C          -0.8170   -2.9250    0.0000 C.ar    1  LIG1        0.0002
     16 C           0.0500   -2.4330    0.0000 C.ar    1  LIG1        0.0031
     17 C           0.0500   -1.4500    0.0000 C.ar    1  LIG1        0.0369
     18 C          -2.0290    2.9290    0.0000 C.3     1  LIG1        0.1712
     19 C          -3.0420    1.1830    0.0000 C.3     1  LIG1        0.1712
@<TRIPOS>BOND
     1     1     2    1
     2     1     9    1
     3     1    18    1
     4     1    19    1
     5     2     3    1
     6     3     4   ar
     7     3     8   ar
     8     4     5   ar
     9     5     6   ar
    10     6     7   ar
    11     7     8   ar
    12     9    10    1
    13    10    11    1
    14    11    12    1
    15    12    13   ar
    16    12    17   ar
    17    13    14   ar
    18    14    15   ar
    19    15    16   ar
    20    16    17   ar
