@<TRIPOS>MOLECULE
24591_ChemDiv_0086-0064
 17 19 0 0 0
SMALL
GASTEIGER
Energy = 0

@<TRIPOS>ATOM
      1 N          -0.4380   -0.8170    0.0000 N.ar    1  LIG1       -0.1470
      2 C           0.1250    0.0040    0.0000 C.ar    1  LIG1        0.2969
      3 N          -0.4380    0.8040    0.0000 N.ar    1  LIG1       -0.2679
      4 C          -1.3880    0.5080    0.0000 C.ar    1  LIG1        0.1286
      5 C          -1.3880   -0.5000    0.0000 C.ar    1  LIG1        0.2435
      6 C          -2.2580   -1.0080    0.0000 C.ar    1  LIG1        0.0708
      7 C          -3.1210   -0.5000    0.0000 C.ar    1  LIG1        0.0062
      8 C          -3.1210    0.5080    0.0000 C.ar    1  LIG1        0.0019
      9 C          -2.2580    0.9920    0.0000 C.ar    1  LIG1        0.0234
     10 C          -0.1080    1.7710    0.0000 C.3     1  LIG1        0.1364
     11 C           1.1170   -0.0380    0.0000 C.ar    1  LIG1        0.0821
     12 C           1.5830   -0.9380    0.0000 C.ar    1  LIG1        0.0076
     13 C           2.5710   -0.9830    0.0000 C.ar    1  LIG1        0.0003
     14 C           3.1170   -0.1460    0.0000 C.ar    1  LIG1        0.0000
     15 C           2.6790    0.7460    0.0000 C.ar    1  LIG1        0.0003
     16 C           1.6880    0.7830    0.0000 C.ar    1  LIG1        0.0076
     17 C          -0.1080   -1.7670    0.0000 C.3     1  LIG1        0.4094
@<TRIPOS>BOND
     1     1     2   ar
     2     1     5   ar
     3     1    17    1
     4     2     3   ar
     5     2    11    1
     6     3     4   ar
     7     3    10    1
     8     4     5   ar
     9     4     9   ar
    10     5     6   ar
    11     6     7   ar
    12     7     8   ar
    13     8     9   ar
    14    11    12   ar
    15    11    16   ar
    16    12    13   ar
    17    13    14   ar
    18    14    15   ar
    19    15    16   ar
