@<TRIPOS>MOLECULE
24599_ChemDiv_D011-4581
 19 21 0 0 0
SMALL
GASTEIGER
Energy = 0

@<TRIPOS>ATOM
      1 C          -0.1000   -1.0000    0.0000 C.ar    1  LIG1        0.1624
      2 N          -0.6880   -0.1880    0.0000 N.ar    1  LIG1       -0.2251
      3 C          -1.6460   -0.5040    0.0000 C.ar    1  LIG1        0.1006
      4 C          -1.6380   -1.5130    0.0000 C.ar    1  LIG1        0.1006
      5 N          -0.6880   -1.8170    0.0000 N.ar    1  LIG1       -0.2251
      6 C          -2.5130   -2.0130    0.0000 C.ar    1  LIG1        0.0207
      7 C          -3.3750   -1.5130    0.0000 C.ar    1  LIG1        0.0016
      8 C          -3.3750   -0.5130    0.0000 C.ar    1  LIG1        0.0016
      9 C          -2.5130   -0.0040    0.0000 C.ar    1  LIG1        0.0207
     10 C           0.7710   -0.5000    0.0000 C.ar    1  LIG1        0.0390
     11 C           1.6330   -0.9880    0.0000 C.ar    1  LIG1        0.0431
     12 C           2.4960   -0.4830    0.0000 C.ar    1  LIG1        0.1725
     13 C           2.4880    0.5210    0.0000 C.ar    1  LIG1        0.1724
     14 C           1.6130    1.0040    0.0000 C.ar    1  LIG1        0.0401
     15 C           0.7540    0.4960    0.0000 C.ar    1  LIG1        0.0064
     16 O           3.3500    1.0210    0.0000 O.3     1  LIG1       -0.4684
     17 C           3.3330    2.0170    0.0000 C.3     1  LIG1        0.2526
     18 O           3.3630   -0.9710    0.0000 O.3     1  LIG1       -0.4684
     19 C           3.3710   -1.9670    0.0000 C.3     1  LIG1        0.2526
@<TRIPOS>BOND
     1     1     2   ar
     2     1     5   ar
     3     1    10    1
     4     2     3   ar
     5     3     4   ar
     6     3     9   ar
     7     4     5   ar
     8     4     6   ar
     9     6     7   ar
    10     7     8   ar
    11     8     9   ar
    12    10    11   ar
    13    10    15   ar
    14    11    12   ar
    15    12    13   ar
    16    12    18    1
    17    13    14   ar
    18    13    16    1
    19    14    15   ar
    20    16    17    1
    21    18    19    1
