@<TRIPOS>MOLECULE
24595_ChemDiv_8010-4121
 28 32 0 0 0
SMALL
GASTEIGER
Energy = 0

@<TRIPOS>ATOM
      1 N          -0.3210    0.6880    0.0000 N.ar    1  LIG1       -0.2251
      2 C          -1.3040    0.4790    0.0000 C.ar    1  LIG1        0.1005
      3 C          -1.4040   -0.5210    0.0000 C.ar    1  LIG1        0.1005
      4 N          -0.4920   -0.9290    0.0000 N.ar    1  LIG1       -0.2251
      5 C           0.1670   -0.1790    0.0000 C.ar    1  LIG1        0.1625
      6 C           1.1710   -0.1130    0.0000 C.ar    1  LIG1        0.0420
      7 C           1.7250   -0.9710    0.0000 C.ar    1  LIG1        0.0435
      8 C           2.7080   -0.9290    0.0000 C.ar    1  LIG1        0.1806
      9 C           3.1750   -0.0290    0.0000 C.ar    1  LIG1        0.2627
     10 C           2.6210    0.8210    0.0000 C.ar    1  LIG1        0.1806
     11 C           1.6380    0.7540    0.0000 C.ar    1  LIG1        0.0435
     12 O           3.0380    1.7250    0.0000 O.3     1  LIG1       -0.4681
     13 C           4.0170    1.8080    0.0000 C.3     1  LIG1        0.2526
     14 O           4.1580    0.0330    0.0000 O.3     1  LIG1       -0.2801
     15 O           3.2210   -1.7830    0.0000 O.3     1  LIG1       -0.4681
     16 C           2.7500   -2.6460    0.0000 C.3     1  LIG1        0.2526
     17 C          -2.3210   -0.9500    0.0000 C.ar    1  LIG1        0.0192
     18 C          -3.1330   -0.3290    0.0000 C.ar    1  LIG1        0.0015
     19 C          -3.0080    0.6500    0.0000 C.ar    1  LIG1        0.0015
     20 C          -2.1130    1.0540    0.0000 C.ar    1  LIG1        0.0192
     21 C          -1.9830    2.0580    0.0000 C.ar    1  LIG1        0.0015
     22 C          -2.7960    2.6500    0.0000 C.ar    1  LIG1        0.0000
     23 C          -3.7080    2.2290    0.0000 C.ar    1  LIG1        0.0000
     24 C          -3.8210    1.2460    0.0000 C.ar    1  LIG1        0.0000
     25 C          -4.0540   -0.7330    0.0000 C.ar    1  LIG1        0.0000
     26 C          -4.1630   -1.7380    0.0000 C.ar    1  LIG1        0.0000
     27 C          -3.3500   -2.3580    0.0000 C.ar    1  LIG1        0.0000
     28 C          -2.4290   -1.9290    0.0000 C.ar    1  LIG1        0.0015
@<TRIPOS>BOND
     1     1     2   ar
     2     1     5   ar
     3     2     3   ar
     4     2    20   ar
     5     3     4   ar
     6     3    17   ar
     7     4     5   ar
     8     5     6    1
     9     6     7   ar
    10     6    11   ar
    11     7     8   ar
    12     8     9   ar
    13     8    15    1
    14     9    10   ar
    15     9    14    1
    16    10    11   ar
    17    10    12    1
    18    12    13    1
    19    15    16    1
    20    17    18   ar
    21    17    28   ar
    22    18    19   ar
    23    18    25   ar
    24    19    20   ar
    25    19    24   ar
    26    20    21   ar
    27    21    22   ar
    28    22    23   ar
    29    23    24   ar
    30    25    26   ar
    31    26    27   ar
    32    27    28   ar
