@<TRIPOS>MOLECULE
24593_ChemDiv_8009-1062
 26 31 0 0 0
SMALL
GASTEIGER
Energy = 0

@<TRIPOS>ATOM
      1 C           0.4460   -0.8500    0.0000 C.2     1  LIG1        0.3771
      2 C           1.4040   -1.1290    0.0000 C.2     1  LIG1        0.1086
      3 C           1.7250   -2.0420    0.0000 C.2     1  LIG1        0.1062
      4 N           2.7210   -2.0750    0.0000 N.2     1  LIG1       -0.2476
      5 C           3.0540   -1.1170    0.0000 C.2     1  LIG1        0.0636
      6 C           2.2040   -0.5130    0.0000 C.2     1  LIG1        0.0228
      7 C           2.3420    0.4710    0.0000 C.2     1  LIG1        0.0012
      8 C           3.2380    0.9290    0.0000 C.2     1  LIG1       -0.0041
      9 C           4.0580    0.3130    0.0000 C.2     1  LIG1       -0.0198
     10 C           3.9290   -0.6710    0.0000 C.3     1  LIG1        0.0717
     11 N          -0.3290   -1.4710    0.0000 N.2     1  LIG1       -0.0304
     12 C          -1.1630   -0.9330    0.0000 C.ar    1  LIG1        0.2356
     13 C          -0.8920    0.0290    0.0000 C.ar    1  LIG1        0.2323
     14 N           0.1040    0.0880    0.0000 N.2     1  LIG1       -0.0308
     15 C          -1.5960    0.7630    0.0000 C.ar    1  LIG1        0.0290
     16 C          -2.5580    0.4830    0.0000 C.ar    1  LIG1        0.0001
     17 C          -2.8290   -0.4750    0.0000 C.ar    1  LIG1        0.0035
     18 C          -2.1380   -1.1710    0.0000 C.ar    1  LIG1        0.0468
     19 C          -2.3790   -2.1420    0.0000 C.ar    1  LIG1        0.0038
     20 C          -3.3420   -2.4170    0.0000 C.ar    1  LIG1        0.0001
     21 C          -4.0630   -1.6830    0.0000 C.ar    1  LIG1        0.0000
     22 C          -3.8000   -0.7130    0.0000 C.ar    1  LIG1        0.0001
     23 C          -3.2500    1.2130    0.0000 C.2     1  LIG1       -0.0005
     24 C          -2.9920    2.1500    0.0000 C.2     1  LIG1       -0.0042
     25 C          -2.0210    2.4210    0.0000 C.2     1  LIG1       -0.0213
     26 C          -1.3250    1.6920    0.0000 C.3     1  LIG1        0.0562
@<TRIPOS>BOND
     1     1     2    1
     2     1    11    1
     3     1    14    2
     4     2     3    2
     5     2     6    1
     6     3     4    1
     7     4     5    2
     8     5     6    1
     9     5    10    1
    10     6     7    2
    11     7     8    1
    12     8     9    2
    13     9    10    1
    14    11    12    2
    15    12    13   ar
    16    12    18   ar
    17    13    14    1
    18    13    15   ar
    19    15    16   ar
    20    15    26    1
    21    16    17   ar
    22    16    23    2
    23    17    18   ar
    24    17    22   ar
    25    18    19   ar
    26    19    20   ar
    27    20    21   ar
    28    21    22   ar
    29    23    24    1
    30    24    25    2
    31    25    26    1
