@<TRIPOS>MOLECULE
24592_ChemDiv_1993-0018
 23 25 0 0 0
SMALL
GASTEIGER
Energy = 0

@<TRIPOS>ATOM
      1 C           3.2540   -0.8630    0.0000 C.2     1  LIG1        0.3412
      2 O           2.7420   -1.7290    0.0000 O.3     1  LIG1       -0.4439
      3 C           1.7460   -1.7290    0.0000 C.3     1  LIG1        0.2281
      4 C           1.2330   -2.5920    0.0000 C.3     1  LIG1        0.1911
      5 O           0.2080   -2.5920    0.0000 O.3     1  LIG1       -0.3231
      6 C          -0.2790   -1.7290    0.0000 C.3     1  LIG1        0.2602
      7 O           0.2080   -0.8630    0.0000 O.3     1  LIG1       -0.3231
      8 C           1.2330   -0.8630    0.0000 C.3     1  LIG1        0.1911
      9 C          -1.2790   -1.7290    0.0000 C.ar    1  LIG1        0.0336
     10 C          -1.7670   -2.5750    0.0000 C.ar    1  LIG1        0.0011
     11 C          -2.7630   -2.5920    0.0000 C.ar    1  LIG1        0.0065
     12 C          -3.2750   -1.7580    0.0000 C.ar    1  LIG1        0.0346
     13 C          -2.7790   -0.8830    0.0000 C.ar    1  LIG1        0.0065
     14 C          -1.7830   -0.8790    0.0000 C.ar    1  LIG1        0.0011
     15 BR         -4.2670   -1.7630    0.0000 Br      1  LIG1       -0.0490
     16 C           2.7420    0.0000    0.0000 C.ar    1  LIG1        0.0757
     17 C           1.7460    0.0000    0.0000 C.ar    1  LIG1        0.0069
     18 C           1.2330    0.8710    0.0000 C.ar    1  LIG1        0.0069
     19 C           1.7460    1.7330    0.0000 C.ar    1  LIG1        0.0346
     20 C           2.7420    1.7330    0.0000 C.ar    1  LIG1        0.0069
     21 C           3.2540    0.8710    0.0000 C.ar    1  LIG1        0.0069
     22 BR          1.2540    2.5960    0.0000 Br      1  LIG1       -0.0490
     23 O           4.2630   -0.8630    0.0000 O.2     1  LIG1       -0.2449
@<TRIPOS>BOND
     1     1     2    1
     2     1    16    1
     3     1    23    2
     4     2     3    1
     5     3     4    1
     6     3     8    1
     7     4     5    1
     8     5     6    1
     9     6     7    1
    10     6     9    1
    11     7     8    1
    12     9    10   ar
    13     9    14   ar
    14    10    11   ar
    15    11    12   ar
    16    12    13   ar
    17    12    15    1
    18    13    14   ar
    19    16    17   ar
    20    16    21   ar
    21    17    18   ar
    22    18    19   ar
    23    19    20   ar
    24    19    22    1
    25    20    21   ar
