@<TRIPOS>MOLECULE
24603_ChemDiv_0592-0121
 27 31 0 0 0
SMALL
GASTEIGER
Energy = 0

@<TRIPOS>ATOM
      1 N           1.7460    0.0000    0.0000 N.ar    1  LIG1       -0.2417
      2 C           1.2670    0.8580    0.0000 C.ar    1  LIG1        0.2669
      3 C           0.2500    0.8580    0.0000 C.ar    1  LIG1        0.0568
      4 C          -0.2540    0.0000    0.0000 C.ar    1  LIG1        0.0104
      5 C           0.2500   -0.8670    0.0000 C.ar    1  LIG1        0.0568
      6 C           1.2670   -0.8670    0.0000 C.ar    1  LIG1        0.2669
      7 O           1.7880   -1.7250    0.0000 O.2     1  LIG1       -0.2665
      8 C          -0.2540   -1.7250    0.0000 C.ar    1  LIG1        0.0048
      9 C          -1.2460   -1.7250    0.0000 C.ar    1  LIG1        0.0002
     10 C          -1.7630   -0.8670    0.0000 C.ar    1  LIG1        0.0012
     11 C          -1.2460    0.0000    0.0000 C.ar    1  LIG1        0.0136
     12 C          -1.7630    0.8580    0.0000 C.ar    1  LIG1        0.0478
     13 N          -2.7500    0.8580    0.0000 N.pl3   1  LIG1       -0.3075
     14 C          -3.2630    1.7290    0.0000 C.3     1  LIG1        0.0908
     15 C          -4.2460    1.7290    0.0000 C.3     1  LIG1        0.0215
     16 C          -4.7580    0.8580    0.0000 C.3     1  LIG1        0.0035
     17 C          -4.2460    0.0000    0.0000 C.3     1  LIG1        0.0215
     18 C          -3.2630    0.0000    0.0000 C.3     1  LIG1        0.0908
     19 C          -1.2460    1.7290    0.0000 C.ar    1  LIG1        0.0147
     20 C          -0.2540    1.7290    0.0000 C.ar    1  LIG1        0.0060
     21 O           1.7880    1.7290    0.0000 O.2     1  LIG1       -0.2665
     22 C           2.7790    0.0000    0.0000 C.ar    1  LIG1        0.0697
     23 C           3.2580   -0.8670    0.0000 C.ar    1  LIG1        0.0177
     24 C           4.2750   -0.8670    0.0000 C.ar    1  LIG1        0.0015
     25 C           4.7540    0.0000    0.0000 C.ar    1  LIG1        0.0001
     26 C           4.2750    0.8580    0.0000 C.ar    1  LIG1        0.0015
     27 C           3.2580    0.8580    0.0000 C.ar    1  LIG1        0.0177
@<TRIPOS>BOND
     1     1     2   ar
     2     1     6   ar
     3     1    22    1
     4     2     3   ar
     5     2    21    2
     6     3     4   ar
     7     3    20   ar
     8     4     5   ar
     9     4    11   ar
    10     5     6   ar
    11     5     8   ar
    12     6     7    2
    13     8     9   ar
    14     9    10   ar
    15    10    11   ar
    16    11    12   ar
    17    12    13    1
    18    12    19   ar
    19    13    14    1
    20    13    18    1
    21    14    15    1
    22    15    16    1
    23    16    17    1
    24    17    18    1
    25    19    20   ar
    26    22    23   ar
    27    22    27   ar
    28    23    24   ar
    29    24    25   ar
    30    25    26   ar
    31    26    27   ar
