@<TRIPOS>MOLECULE
24600_ChemDiv_0141-0263
 22 25 0 0 0
SMALL
GASTEIGER
Energy = 0

@<TRIPOS>ATOM
      1 C          -1.3080    1.0380    0.0000 C.ar    1  LIG1        0.1111
      2 N          -1.8750    1.8330    0.0000 N.ar    1  LIG1       -0.2383
      3 C          -2.8130    1.5170    0.0000 C.ar    1  LIG1        0.0878
      4 C          -2.8130    0.5290    0.0000 C.ar    1  LIG1        0.0485
      5 S          -1.8750    0.2250    0.0000 S.2     1  LIG1       -0.0665
      6 C          -3.6830    0.0210    0.0000 C.ar    1  LIG1        0.0080
      7 C          -4.5710    0.5290    0.0000 C.ar    1  LIG1        0.0006
      8 C          -4.5710    1.5170    0.0000 C.ar    1  LIG1        0.0016
      9 C          -3.6830    2.0210    0.0000 C.ar    1  LIG1        0.0196
     10 C          -0.2920    0.9500    0.0000 C.ar    1  LIG1        0.0361
     11 C           0.2750    1.7670    0.0000 C.ar    1  LIG1        0.0778
     12 C           1.2630    1.6790    0.0000 C.ar    1  LIG1        0.2905
     13 N           1.7130    0.7790    0.0000 N.ar    1  LIG1       -0.1555
     14 C           2.7000    0.7000    0.0000 C.3     1  LIG1        0.3502
     15 C           3.1460   -0.1790    0.0000 C.ar    1  LIG1        0.0555
     16 C           4.1460   -0.2670    0.0000 C.ar    1  LIG1        0.0025
     17 C           4.5670   -1.1960    0.0000 C.ar    1  LIG1       -0.0001
     18 C           4.0040   -2.0170    0.0000 C.ar    1  LIG1       -0.0000
     19 C           3.0130   -1.9290    0.0000 C.ar    1  LIG1       -0.0001
     20 C           2.5830   -0.9960    0.0000 C.ar    1  LIG1        0.0025
     21 C           1.1130   -0.0380    0.0000 C.ar    1  LIG1        0.2905
     22 C           0.1330    0.0500    0.0000 C.ar    1  LIG1        0.0778
@<TRIPOS>BOND
     1     1     2   ar
     2     1     5   ar
     3     1    10    1
     4     2     3   ar
     5     3     4   ar
     6     3     9   ar
     7     4     5   ar
     8     4     6   ar
     9     6     7   ar
    10     7     8   ar
    11     8     9   ar
    12    10    11   ar
    13    10    22   ar
    14    11    12   ar
    15    12    13   ar
    16    13    14    1
    17    13    21   ar
    18    14    15    1
    19    15    16   ar
    20    15    20   ar
    21    16    17   ar
    22    17    18   ar
    23    18    19   ar
    24    19    20   ar
    25    21    22   ar
