@<TRIPOS>MOLECULE
24601_ChemDiv_0109-0222
 26 29 0 0 0
SMALL
GASTEIGER
Energy = 0

@<TRIPOS>ATOM
      1 N           1.4790    0.3000    0.0000 N.ar    1  LIG1       -0.2417
      2 C           0.7880    1.0210    0.0000 C.ar    1  LIG1        0.2669
      3 C          -0.1500    0.8170    0.0000 C.ar    1  LIG1        0.0568
      4 C          -0.4710   -0.1580    0.0000 C.ar    1  LIG1        0.0104
      5 C           0.2330   -0.8880    0.0000 C.ar    1  LIG1        0.0568
      6 C           1.2040   -0.6420    0.0000 C.ar    1  LIG1        0.2669
      7 O           1.9000   -1.3710    0.0000 O.2     1  LIG1       -0.2665
      8 C          -0.0420   -1.8210    0.0000 C.ar    1  LIG1        0.0048
      9 C          -1.0210   -2.0250    0.0000 C.ar    1  LIG1        0.0002
     10 C          -1.7170   -1.3330    0.0000 C.ar    1  LIG1        0.0013
     11 C          -1.4080   -0.3960    0.0000 C.ar    1  LIG1        0.0152
     12 C          -2.1000    0.3630    0.0000 C.ar    1  LIG1        0.0655
     13 C          -1.8250    1.3000    0.0000 C.ar    1  LIG1        0.0162
     14 C          -0.8500    1.5130    0.0000 C.ar    1  LIG1        0.0061
     15 N          -3.1000    0.1250    0.0000 N.pl3   1  LIG1       -0.2306
     16 C          -3.7330    0.9210    0.0000 C.3     1  LIG1        0.1925
     17 C          -4.7130    0.7460    0.0000 C.3     1  LIG1        0.3387
     18 N          -5.3790    1.5130    0.0000 N.4     1  LIG1        0.5990
     19 O           1.0630    2.0290    0.0000 O.2     1  LIG1       -0.2665
     20 C           2.4460    0.5330    0.0000 C.ar    1  LIG1        0.0698
     21 C           2.6920    1.4710    0.0000 C.ar    1  LIG1        0.0186
     22 C           3.6630    1.7460    0.0000 C.ar    1  LIG1        0.0129
     23 C           4.3670    1.0210    0.0000 C.ar    1  LIG1        0.0578
     24 C           4.0920    0.0540    0.0000 C.ar    1  LIG1        0.0129
     25 C           3.1420   -0.1920    0.0000 C.ar    1  LIG1        0.0186
     26 CL          5.3750    1.2670    0.0000 Cl      1  LIG1       -0.0822
@<TRIPOS>BOND
     1     1     2   ar
     2     1     6   ar
     3     1    20    1
     4     2     3   ar
     5     2    19    2
     6     3     4   ar
     7     3    14   ar
     8     4     5   ar
     9     4    11   ar
    10     5     6   ar
    11     5     8   ar
    12     6     7    2
    13     8     9   ar
    14     9    10   ar
    15    10    11   ar
    16    11    12   ar
    17    12    13   ar
    18    12    15    1
    19    13    14   ar
    20    15    16    1
    21    16    17    1
    22    17    18    1
    23    20    21   ar
    24    20    25   ar
    25    21    22   ar
    26    22    23   ar
    27    23    24   ar
    28    23    26    1
    29    24    25   ar
