@<TRIPOS>MOLECULE
24617_ChemDiv_5786-1070
 30 33 0 0 0
SMALL
GASTEIGER
Energy = 0

@<TRIPOS>ATOM
      1 N          -1.2250    0.9040    0.0000 N.ar    1  LIG1       -0.3072
      2 C          -0.6250    1.7040    0.0000 C.ar    1  LIG1        0.1441
      3 N          -1.2250    2.5040    0.0000 N.ar    1  LIG1       -0.2268
      4 C          -2.1580    2.2080    0.0000 C.ar    1  LIG1        0.0987
      5 C          -2.1580    1.2040    0.0000 C.ar    1  LIG1        0.0791
      6 C          -3.0290    0.7000    0.0000 C.ar    1  LIG1        0.0188
      7 C          -3.8960    1.2040    0.0000 C.ar    1  LIG1        0.0016
      8 C          -3.8960    2.2080    0.0000 C.ar    1  LIG1        0.0016
      9 C          -3.0290    2.7080    0.0000 C.ar    1  LIG1        0.0206
     10 C           0.3790    1.7040    0.0000 C.ar    1  LIG1        0.0374
     11 C           0.8830    2.5710    0.0000 C.ar    1  LIG1        0.0430
     12 C           1.8880    2.5710    0.0000 C.ar    1  LIG1        0.1725
     13 C           2.3880    1.7040    0.0000 C.ar    1  LIG1        0.1724
     14 C           1.8880    0.8330    0.0000 C.ar    1  LIG1        0.0401
     15 C           0.8830    0.8330    0.0000 C.ar    1  LIG1        0.0063
     16 O           3.3920    1.7040    0.0000 O.3     1  LIG1       -0.4684
     17 C           3.8920    0.8330    0.0000 C.3     1  LIG1        0.2526
     18 O           2.3880    3.4460    0.0000 O.3     1  LIG1       -0.4684
     19 C           1.8880    4.3130    0.0000 C.3     1  LIG1        0.2526
     20 C          -0.7250    0.0380    0.0000 C.3     1  LIG1        0.1343
     21 C          -1.2250   -0.8420    0.0000 C.ar    1  LIG1        0.0036
     22 C          -0.7250   -1.7000    0.0000 C.ar    1  LIG1        0.0377
     23 C          -1.2250   -2.5670    0.0000 C.ar    1  LIG1        0.1721
     24 C          -2.2290   -2.5670    0.0000 C.ar    1  LIG1        0.1724
     25 C          -2.6960   -1.7000    0.0000 C.ar    1  LIG1        0.0398
     26 C          -2.2290   -0.8420    0.0000 C.ar    1  LIG1        0.0009
     27 O          -2.6960   -3.4330    0.0000 O.3     1  LIG1       -0.4684
     28 C          -2.2290   -4.3130    0.0000 C.3     1  LIG1        0.2526
     29 O          -0.7250   -3.4330    0.0000 O.3     1  LIG1       -0.4684
     30 C          -1.2250   -4.3130    0.0000 C.3     1  LIG1        0.2526
@<TRIPOS>BOND
     1     1     2   ar
     2     1     5   ar
     3     1    20    1
     4     2     3   ar
     5     2    10    1
     6     3     4   ar
     7     4     5   ar
     8     4     9   ar
     9     5     6   ar
    10     6     7   ar
    11     7     8   ar
    12     8     9   ar
    13    10    11   ar
    14    10    15   ar
    15    11    12   ar
    16    12    13   ar
    17    12    18    1
    18    13    14   ar
    19    13    16    1
    20    14    15   ar
    21    16    17    1
    22    18    19    1
    23    20    21    1
    24    21    22   ar
    25    21    26   ar
    26    22    23   ar
    27    23    24   ar
    28    23    29    1
    29    24    25   ar
    30    24    27    1
    31    25    26   ar
    32    27    28    1
    33    29    30    1
