@<TRIPOS>MOLECULE
24616_ChemDiv_6228-0813
 29 31 0 0 0
SMALL
GASTEIGER
Energy = 0

@<TRIPOS>ATOM
      1 C          -2.9420    1.5330    0.0000 C.3     1  LIG1        0.2598
      2 O          -2.8710    2.5250    0.0000 O.3     1  LIG1       -0.3319
      3 C          -3.6960    3.0830    0.0000 C.3     1  LIG1        0.0980
      4 C          -4.5920    2.6500    0.0000 C.3     1  LIG1        0.0569
      5 C          -4.6630    1.6540    0.0000 C.3     1  LIG1        0.1205
      6 O          -3.8330    1.0880    0.0000 O.3     1  LIG1       -0.3296
      7 C          -5.5710    1.2210    0.0000 C.3     1  LIG1        0.0322
      8 C          -4.3500    3.8380    0.0000 C.3     1  LIG1        0.0298
      9 C          -2.8040    3.5210    0.0000 C.3     1  LIG1        0.0298
     10 C          -1.9460    1.4580    0.0000 C.ar    1  LIG1        0.0368
     11 C          -1.1380    2.0420    0.0000 C.ar    1  LIG1        0.0406
     12 C          -0.2290    1.6380    0.0000 C.ar    1  LIG1        0.1722
     13 C          -0.1250    0.6460    0.0000 C.ar    1  LIG1        0.1727
     14 O           0.7960    0.2330    0.0000 O.3     1  LIG1       -0.4676
     15 C           0.8920   -0.7670    0.0000 C.3     1  LIG1        0.2321
     16 C           1.8000   -1.1880    0.0000 C.ar    1  LIG1        0.0212
     17 C           1.8960   -2.1880    0.0000 C.ar    1  LIG1       -0.0005
     18 C           2.8040   -2.6000    0.0000 C.ar    1  LIG1        0.0062
     19 C           3.6210   -2.0170    0.0000 C.ar    1  LIG1        0.0756
     20 C           4.5500   -2.4290    0.0000 C.2     1  LIG1        0.3413
     21 O           5.3630   -1.8380    0.0000 O.2     1  LIG1       -0.2449
     22 O           4.6540   -3.4250    0.0000 O.3     1  LIG1       -0.4413
     23 C           5.5670   -3.8330    0.0000 C.3     1  LIG1        0.2560
     24 C           3.5250   -1.0210    0.0000 C.ar    1  LIG1        0.0062
     25 C           2.6130   -0.6080    0.0000 C.ar    1  LIG1       -0.0005
     26 C          -0.9290    0.0580    0.0000 C.ar    1  LIG1        0.0399
     27 C          -1.8420    0.4670    0.0000 C.ar    1  LIG1        0.0039
     28 O           0.5790    2.2250    0.0000 O.3     1  LIG1       -0.4684
     29 C           0.4750    3.2130    0.0000 C.3     1  LIG1        0.2526
@<TRIPOS>BOND
     1     1     2    1
     2     1     6    1
     3     1    10    1
     4     2     3    1
     5     3     4    1
     6     3     8    1
     7     3     9    1
     8     4     5    1
     9     5     6    1
    10     5     7    1
    11    10    11   ar
    12    10    27   ar
    13    11    12   ar
    14    12    13   ar
    15    12    28    1
    16    13    14    1
    17    13    26   ar
    18    14    15    1
    19    15    16    1
    20    16    17   ar
    21    16    25   ar
    22    17    18   ar
    23    18    19   ar
    24    19    20    1
    25    19    24   ar
    26    20    21    2
    27    20    22    1
    28    22    23    1
    29    24    25   ar
    30    26    27   ar
    31    28    29    1
