@<TRIPOS>MOLECULE
24618_ChemDiv_8011-0719
 16 17 0 0 0
SMALL
GASTEIGER
Energy = 0

@<TRIPOS>ATOM
      1 C          -2.7670   -0.4170    0.0000 C.2     1  LIG1        0.3413
      2 C          -1.7670   -0.4170    0.0000 C.ar    1  LIG1        0.0756
      3 C          -1.2710   -1.2880    0.0000 C.ar    1  LIG1        0.0063
      4 C          -0.2830   -1.2880    0.0000 C.ar    1  LIG1        0.0008
      5 C           0.2420   -0.4170    0.0000 C.ar    1  LIG1        0.0336
      6 C           1.2500   -0.4170    0.0000 C.3     1  LIG1        0.2600
      7 O           1.7540    0.4500    0.0000 O.3     1  LIG1       -0.3270
      8 C           2.7420    0.4500    0.0000 C.3     1  LIG1        0.1477
      9 C           3.2580   -0.4170    0.0000 C.3     1  LIG1        0.0643
     10 C           2.7420   -1.2880    0.0000 C.3     1  LIG1        0.1477
     11 O           1.7540   -1.2880    0.0000 O.3     1  LIG1       -0.3270
     12 C          -0.2540    0.4500    0.0000 C.ar    1  LIG1        0.0008
     13 C          -1.2710    0.4500    0.0000 C.ar    1  LIG1        0.0063
     14 O          -3.2630   -1.2750    0.0000 O.2     1  LIG1       -0.2449
     15 O          -3.2630    0.4330    0.0000 O.3     1  LIG1       -0.4413
     16 C          -2.7670    1.2920    0.0000 C.3     1  LIG1        0.2560
@<TRIPOS>BOND
     1     1     2    1
     2     1    14    2
     3     1    15    1
     4     2     3   ar
     5     2    13   ar
     6     3     4   ar
     7     4     5   ar
     8     5     6    1
     9     5    12   ar
    10     6     7    1
    11     6    11    1
    12     7     8    1
    13     8     9    1
    14     9    10    1
    15    10    11    1
    16    12    13   ar
    17    15    16    1
