@<TRIPOS>MOLECULE
24611_ChemDiv_4587-0326
 20 22 0 0 0
SMALL
GASTEIGER
Energy = 0

@<TRIPOS>ATOM
      1 C          -0.3750    1.6500    0.0000 C.ar    1  LIG1        0.1438
      2 N          -0.9790    2.4960    0.0000 N.ar    1  LIG1       -0.2268
      3 C          -1.9250    2.1920    0.0000 C.ar    1  LIG1        0.0987
      4 C          -1.9250    1.1460    0.0000 C.ar    1  LIG1        0.0788
      5 N          -0.9790    0.8380    0.0000 N.ar    1  LIG1       -0.3115
      6 C          -0.5080    0.0130    0.0000 C.3     1  LIG1        0.1075
      7 C          -0.9790   -0.8750    0.0000 C.3     1  LIG1        0.0245
      8 C          -0.5080   -1.7460    0.0000 C.3     1  LIG1        0.0020
      9 C          -0.9790   -2.6210    0.0000 C.3     1  LIG1        0.0001
     10 C          -2.8000    0.6420    0.0000 C.ar    1  LIG1        0.0188
     11 C          -3.6330    1.1460    0.0000 C.ar    1  LIG1        0.0016
     12 C          -3.6330    2.1540    0.0000 C.ar    1  LIG1        0.0016
     13 C          -2.8380    2.6250    0.0000 C.ar    1  LIG1        0.0206
     14 C           0.6380    1.6500    0.0000 C.ar    1  LIG1        0.0342
     15 C           1.1040    0.7750    0.0000 C.ar    1  LIG1        0.0044
     16 C           2.1170    0.7750    0.0000 C.ar    1  LIG1        0.0182
     17 C           2.6210    1.6500    0.0000 C.ar    1  LIG1        0.0891
     18 N           3.6290    1.6500    0.0000 N.pl3   1  LIG1       -0.1281
     19 C           2.1170    2.5250    0.0000 C.ar    1  LIG1        0.0182
     20 C           1.1040    2.5250    0.0000 C.ar    1  LIG1        0.0044
@<TRIPOS>BOND
     1     1     2   ar
     2     1     5   ar
     3     1    14    1
     4     2     3   ar
     5     3     4   ar
     6     3    13   ar
     7     4     5   ar
     8     4    10   ar
     9     5     6    1
    10     6     7    1
    11     7     8    1
    12     8     9    1
    13    10    11   ar
    14    11    12   ar
    15    12    13   ar
    16    14    15   ar
    17    14    20   ar
    18    15    16   ar
    19    16    17   ar
    20    17    18    1
    21    17    19   ar
    22    19    20   ar
