@<TRIPOS>MOLECULE
24613_ChemDiv_5481-0185
 24 27 0 0 0
SMALL
GASTEIGER
Energy = 0

@<TRIPOS>ATOM
      1 N          -0.4540    0.7290    0.0000 N.ar    1  LIG1       -0.3072
      2 C           0.1330    1.5330    0.0000 C.ar    1  LIG1        0.1441
      3 N          -0.4540    2.3460    0.0000 N.ar    1  LIG1       -0.2268
      4 C          -1.4080    2.0290    0.0000 C.ar    1  LIG1        0.0987
      5 C          -1.4080    1.0290    0.0000 C.ar    1  LIG1        0.0791
      6 C          -2.2750    0.5290    0.0000 C.ar    1  LIG1        0.0188
      7 C          -3.1380    1.0290    0.0000 C.ar    1  LIG1        0.0016
      8 C          -3.1380    2.0290    0.0000 C.ar    1  LIG1        0.0016
      9 C          -2.2750    2.5290    0.0000 C.ar    1  LIG1        0.0206
     10 C           1.1330    1.5330    0.0000 C.ar    1  LIG1        0.0373
     11 C           1.6330    2.4000    0.0000 C.ar    1  LIG1        0.0450
     12 C           2.6330    2.4130    0.0000 C.ar    1  LIG1        0.1958
     13 O           3.1330    3.2790    0.0000 O.3     1  LIG1       -0.2866
     14 C           3.1330    1.5460    0.0000 C.ar    1  LIG1        0.0420
     15 C           2.6330    0.6790    0.0000 C.ar    1  LIG1        0.0034
     16 C           1.6330    0.6790    0.0000 C.ar    1  LIG1        0.0032
     17 C          -0.4580   -0.2750    0.0000 C.3     1  LIG1        0.1343
     18 C           0.4000   -0.7750    0.0000 C.ar    1  LIG1        0.0036
     19 C           0.4000   -1.7750    0.0000 C.ar    1  LIG1        0.0396
     20 C           1.2580   -2.2750    0.0000 C.ar    1  LIG1        0.1955
     21 O           1.2580   -3.2750    0.0000 O.3     1  LIG1       -0.2866
     22 C           2.1290   -1.7750    0.0000 C.ar    1  LIG1        0.0420
     23 C           2.1290   -0.7750    0.0000 C.ar    1  LIG1        0.0030
     24 C           1.2670   -0.2750    0.0000 C.ar    1  LIG1       -0.0022
@<TRIPOS>BOND
     1     1     2   ar
     2     1     5   ar
     3     1    17    1
     4     2     3   ar
     5     2    10    1
     6     3     4   ar
     7     4     5   ar
     8     4     9   ar
     9     5     6   ar
    10     6     7   ar
    11     7     8   ar
    12     8     9   ar
    13    10    11   ar
    14    10    16   ar
    15    11    12   ar
    16    12    13    1
    17    12    14   ar
    18    14    15   ar
    19    15    16   ar
    20    17    18    1
    21    18    19   ar
    22    18    24   ar
    23    19    20   ar
    24    20    21    1
    25    20    22   ar
    26    22    23   ar
    27    23    24   ar
