@<TRIPOS>MOLECULE
24612_ChemDiv_3527-0143
 15 16 0 0 0
SMALL
GASTEIGER
Energy = 0

@<TRIPOS>ATOM
      1 C           1.4920    0.5500    0.0000 C.3     1  LIG1        0.2787
      2 C           0.6540    1.0460    0.0000 C.3     1  LIG1        0.2172
      3 O          -0.1830    0.5500    0.0000 O.3     1  LIG1       -0.3203
      4 C          -0.1830   -0.4170    0.0000 C.3     1  LIG1        0.2604
      5 O           0.6540   -0.8880    0.0000 O.3     1  LIG1       -0.3203
      6 C           1.4920   -0.4170    0.0000 C.3     1  LIG1        0.2172
      7 C          -1.0210   -0.8880    0.0000 C.ar    1  LIG1        0.0367
      8 C          -1.8580   -0.4040    0.0000 C.ar    1  LIG1        0.0212
      9 C          -2.7000   -0.8880    0.0000 C.ar    1  LIG1        0.0987
     10 N          -2.7000   -1.8710    0.0000 N.ar    1  LIG1       -0.2423
     11 C          -1.8580   -2.3500    0.0000 C.ar    1  LIG1        0.0987
     12 C          -1.0210   -1.8710    0.0000 C.ar    1  LIG1        0.0212
     13 N           2.6960    0.5500    0.0000 N.4     1  LIG1        0.5922
     14 C           2.3710    1.4380    0.0000 C.3     1  LIG1        0.2539
     15 O           2.1130    2.3540    0.0000 O.3     1  LIG1       -0.2134
@<TRIPOS>BOND
     1     1     2    1
     2     1     6    1
     3     1    13    1
     4     1    14    1
     5     2     3    1
     6     3     4    1
     7     4     5    1
     8     4     7    1
     9     5     6    1
    10     7     8   ar
    11     7    12   ar
    12     8     9   ar
    13     9    10   ar
    14    10    11   ar
    15    11    12   ar
    16    14    15    1
