@<TRIPOS>MOLECULE
24620_ChemDiv_0200-5215
 22 23 0 0 0
SMALL
GASTEIGER
Energy = 0

@<TRIPOS>ATOM
      1 C          -1.9540    1.2790    0.0000 C.ar    1  LIG1        0.2087
      2 S          -2.6630    0.5750    0.0000 S.2     1  LIG1       -0.0225
      3 C          -3.5500    1.0170    0.0000 C.ar    1  LIG1        0.1607
      4 N          -3.4000    2.0170    0.0000 N.ar    1  LIG1       -0.1331
      5 N          -2.4130    2.1710    0.0000 N.ar    1  LIG1       -0.1230
      6 S          -4.5130    0.6420    0.0000 S.3     1  LIG1       -0.0866
      7 C          -5.2830    1.2790    0.0000 C.3     1  LIG1        0.0642
      8 C          -6.2210    0.9500    0.0000 C.3     1  LIG1        0.0130
      9 N          -0.9830    1.1500    0.0000 N.am    1  LIG1       -0.1490
     10 C          -0.5880    0.2290    0.0000 C.2     1  LIG1        0.2707
     11 C           0.4000    0.0750    0.0000 C.ar    1  LIG1        0.0556
     12 C           1.0000    0.8630    0.0000 C.ar    1  LIG1        0.0077
     13 C           1.9960    0.7670    0.0000 C.ar    1  LIG1        0.0370
     14 C           2.4080   -0.1580    0.0000 C.ar    1  LIG1        0.1386
     15 C           1.7580   -0.9920    0.0000 C.ar    1  LIG1        0.0370
     16 C           0.7750   -0.8290    0.0000 C.ar    1  LIG1        0.0077
     17 O           3.4000   -0.2250    0.0000 O.3     1  LIG1       -0.4755
     18 C           3.8330   -1.1250    0.0000 C.3     1  LIG1        0.2054
     19 C           4.8330   -1.2130    0.0000 C.3     1  LIG1        0.0473
     20 C           5.2420   -2.1000    0.0000 C.3     1  LIG1        0.0038
     21 C           6.2210   -2.1670    0.0000 C.3     1  LIG1        0.0001
     22 O          -1.1920   -0.5710    0.0000 O.2     1  LIG1       -0.2679
@<TRIPOS>BOND
     1     1     2   ar
     2     1     5   ar
     3     1     9    1
     4     2     3   ar
     5     3     4   ar
     6     3     6    1
     7     4     5   ar
     8     6     7    1
     9     7     8    1
    10     9    10   am
    11    10    11    1
    12    10    22    2
    13    11    12   ar
    14    11    16   ar
    15    12    13   ar
    16    13    14   ar
    17    14    15   ar
    18    14    17    1
    19    15    16   ar
    20    17    18    1
    21    18    19    1
    22    19    20    1
    23    20    21    1
