@<TRIPOS>MOLECULE
24629_ChemDiv_5169-1156
 30 34 0 0 0
SMALL
GASTEIGER
Energy = 0

@<TRIPOS>ATOM
      1 N          -0.4380    2.2500    0.0000 N.ar    1  LIG1       -0.2387
      2 C           0.4330    1.7460    0.0000 C.ar    1  LIG1        0.2670
      3 C           0.4330    0.7380    0.0000 C.ar    1  LIG1        0.0568
      4 C          -0.4380    0.2540    0.0000 C.ar    1  LIG1        0.0104
      5 C          -1.3000    0.7540    0.0000 C.ar    1  LIG1        0.0568
      6 C          -1.3000    1.7460    0.0000 C.ar    1  LIG1        0.2670
      7 O          -2.1670    2.2460    0.0000 O.2     1  LIG1       -0.2665
      8 C          -2.1630    0.2500    0.0000 C.ar    1  LIG1        0.0048
      9 C          -2.1630   -0.7500    0.0000 C.ar    1  LIG1        0.0002
     10 C          -1.2830   -1.2420    0.0000 C.ar    1  LIG1        0.0012
     11 C          -0.4290   -0.7330    0.0000 C.ar    1  LIG1        0.0136
     12 C           0.4170   -1.2420    0.0000 C.ar    1  LIG1        0.0481
     13 N           0.4080   -2.2460    0.0000 N.pl3   1  LIG1       -0.2972
     14 C           1.2790   -2.7460    0.0000 C.3     1  LIG1        0.1544
     15 C           1.2670   -3.7580    0.0000 C.3     1  LIG1        0.1608
     16 N           0.3920   -4.2420    0.0000 N.4     1  LIG1        0.3847
     17 C          -0.4750   -3.7380    0.0000 C.3     1  LIG1        0.1608
     18 C          -0.4670   -2.7290    0.0000 C.3     1  LIG1        0.1544
     19 C           0.3790   -5.2500    0.0000 C.3     1  LIG1        0.2024
     20 C           1.2880   -0.7500    0.0000 C.ar    1  LIG1        0.0147
     21 C           1.2880    0.2500    0.0000 C.ar    1  LIG1        0.0060
     22 O           1.3000    2.2460    0.0000 O.2     1  LIG1       -0.2665
     23 C          -0.4380    3.2580    0.0000 C.ar    1  LIG1        0.1035
     24 C           0.4330    3.7580    0.0000 C.ar    1  LIG1        0.1548
     25 O           1.3000    3.2580    0.0000 O.3     1  LIG1       -0.4700
     26 C           2.1630    3.7580    0.0000 C.3     1  LIG1        0.2525
     27 C           0.4330    4.7420    0.0000 C.ar    1  LIG1        0.0384
     28 C          -0.4380    5.2500    0.0000 C.ar    1  LIG1        0.0032
     29 C          -1.3170    4.7420    0.0000 C.ar    1  LIG1        0.0017
     30 C          -1.3000    3.7580    0.0000 C.ar    1  LIG1        0.0208
@<TRIPOS>BOND
     1     1     2   ar
     2     1     6   ar
     3     1    23    1
     4     2     3   ar
     5     2    22    2
     6     3     4   ar
     7     3    21   ar
     8     4     5   ar
     9     4    11   ar
    10     5     6   ar
    11     5     8   ar
    12     6     7    2
    13     8     9   ar
    14     9    10   ar
    15    10    11   ar
    16    11    12   ar
    17    12    13    1
    18    12    20   ar
    19    13    14    1
    20    13    18    1
    21    14    15    1
    22    15    16    1
    23    16    17    1
    24    16    19    1
    25    17    18    1
    26    20    21   ar
    27    23    24   ar
    28    23    30   ar
    29    24    25    1
    30    24    27   ar
    31    25    26    1
    32    27    28   ar
    33    28    29   ar
    34    29    30   ar
