@<TRIPOS>MOLECULE
24623_ChemDiv_D011-4195
 19 21 0 0 0
SMALL
GASTEIGER
Energy = 0

@<TRIPOS>ATOM
      1 C           0.1460    0.8420    0.0000 C.ar    1  LIG1        0.1438
      2 N          -0.4460    1.6500    0.0000 N.ar    1  LIG1       -0.2268
      3 C          -1.4000    1.3420    0.0000 C.ar    1  LIG1        0.0987
      4 C          -1.4000    0.3290    0.0000 C.ar    1  LIG1        0.0788
      5 N          -0.4460    0.0210    0.0000 N.ar    1  LIG1       -0.3115
      6 C           0.0540   -0.8420    0.0000 C.3     1  LIG1        0.1075
      7 C          -0.4380   -1.7040    0.0000 C.3     1  LIG1        0.0245
      8 C           0.0630   -2.5670    0.0000 C.3     1  LIG1        0.0021
      9 C          -2.2710   -0.1710    0.0000 C.ar    1  LIG1        0.0188
     10 C          -3.1330    0.3290    0.0000 C.ar    1  LIG1        0.0016
     11 C          -3.1330    1.3290    0.0000 C.ar    1  LIG1        0.0016
     12 C          -2.2710    1.8420    0.0000 C.ar    1  LIG1        0.0206
     13 C           1.1460    0.8420    0.0000 C.ar    1  LIG1        0.0338
     14 C           1.6380    1.7040    0.0000 C.ar    1  LIG1       -0.0013
     15 C           2.6210    1.7040    0.0000 C.ar    1  LIG1       -0.0218
     16 C           3.1290    0.8420    0.0000 C.ar    1  LIG1       -0.0043
     17 C           2.6380   -0.0250    0.0000 C.ar    1  LIG1       -0.0002
     18 C           1.6380   -0.0250    0.0000 C.ar    1  LIG1        0.0030
     19 C           3.1210    2.5710    0.0000 C.3     1  LIG1        0.0310
@<TRIPOS>BOND
     1     1     2   ar
     2     1     5   ar
     3     1    13    1
     4     2     3   ar
     5     3     4   ar
     6     3    12   ar
     7     4     5   ar
     8     4     9   ar
     9     5     6    1
    10     6     7    1
    11     7     8    1
    12     9    10   ar
    13    10    11   ar
    14    11    12   ar
    15    13    14   ar
    16    13    18   ar
    17    14    15   ar
    18    15    16   ar
    19    15    19    1
    20    16    17   ar
    21    17    18   ar
