@<TRIPOS>MOLECULE
24637_ChemDiv_8009-9366
 24 27 0 0 0
SMALL
GASTEIGER
Energy = 0

@<TRIPOS>ATOM
      1 N           0.2500    0.0750    0.0000 N.ar    1  LIG1       -0.2417
      2 C           0.7580   -0.8170    0.0000 C.ar    1  LIG1        0.2669
      3 C           1.7670   -0.7880    0.0000 C.ar    1  LIG1        0.0567
      4 C           2.2540    0.0750    0.0000 C.ar    1  LIG1        0.0092
      5 C           1.7380    0.9250    0.0000 C.ar    1  LIG1        0.0567
      6 C           0.7380    0.9250    0.0000 C.ar    1  LIG1        0.2669
      7 O           0.2170    1.7830    0.0000 O.2     1  LIG1       -0.2665
      8 C           2.2250    1.8080    0.0000 C.ar    1  LIG1        0.0047
      9 C           3.2290    1.8080    0.0000 C.ar    1  LIG1        0.0002
     10 C           3.7500    0.9580    0.0000 C.ar    1  LIG1        0.0000
     11 C           3.2630    0.1000    0.0000 C.ar    1  LIG1        0.0003
     12 C           3.7500   -0.7540    0.0000 C.ar    1  LIG1        0.0000
     13 C           3.2630   -1.6500    0.0000 C.ar    1  LIG1        0.0002
     14 C           2.2540   -1.6500    0.0000 C.ar    1  LIG1        0.0047
     15 O           0.3040   -1.7290    0.0000 O.2     1  LIG1       -0.2665
     16 C          -0.7580    0.0460    0.0000 C.ar    1  LIG1        0.0715
     17 C          -1.2710    0.8710    0.0000 C.ar    1  LIG1        0.0305
     18 C          -2.2790    0.8420    0.0000 C.ar    1  LIG1        0.0766
     19 C          -2.7670   -0.0080    0.0000 C.ar    1  LIG1        0.1102
     20 C          -2.2210   -0.9000    0.0000 C.ar    1  LIG1        0.0766
     21 C          -1.2460   -0.8420    0.0000 C.ar    1  LIG1        0.0305
     22 CL         -2.6210   -1.8040    0.0000 Cl      1  LIG1       -0.0808
     23 N          -3.7540    0.0000    0.0000 N.pl3   1  LIG1       -0.1263
     24 CL         -2.7960    1.6750    0.0000 Cl      1  LIG1       -0.0808
@<TRIPOS>BOND
     1     1     2   ar
     2     1     6   ar
     3     1    16    1
     4     2     3   ar
     5     2    15    2
     6     3     4   ar
     7     3    14   ar
     8     4     5   ar
     9     4    11   ar
    10     5     6   ar
    11     5     8   ar
    12     6     7    2
    13     8     9   ar
    14     9    10   ar
    15    10    11   ar
    16    11    12   ar
    17    12    13   ar
    18    13    14   ar
    19    16    17   ar
    20    16    21   ar
    21    17    18   ar
    22    18    19   ar
    23    18    24    1
    24    19    20   ar
    25    19    23    1
    26    20    21   ar
    27    20    22    1
