@<TRIPOS>MOLECULE
24633_ChemDiv_8006-7569
 23 26 0 0 0
SMALL
GASTEIGER
Energy = 0

@<TRIPOS>ATOM
      1 N           0.2580   -0.0210    0.0000 N.ar    1  LIG1       -0.2420
      2 C          -0.2920    0.8460    0.0000 C.ar    1  LIG1        0.2669
      3 C          -1.2710    0.8460    0.0000 C.ar    1  LIG1        0.0567
      4 C          -1.7790   -0.0210    0.0000 C.ar    1  LIG1        0.0092
      5 C          -1.2710   -0.8830    0.0000 C.ar    1  LIG1        0.0567
      6 C          -0.2920   -0.8830    0.0000 C.ar    1  LIG1        0.2669
      7 O           0.2580   -1.7500    0.0000 O.2     1  LIG1       -0.2665
      8 C          -1.7790   -1.7500    0.0000 C.ar    1  LIG1        0.0047
      9 C          -2.7540   -1.7500    0.0000 C.ar    1  LIG1        0.0002
     10 C          -3.2710   -0.8830    0.0000 C.ar    1  LIG1        0.0000
     11 C          -2.7540   -0.0210    0.0000 C.ar    1  LIG1        0.0003
     12 C          -3.2710    0.8000    0.0000 C.ar    1  LIG1        0.0000
     13 C          -2.7540    1.7080    0.0000 C.ar    1  LIG1        0.0002
     14 C          -1.7790    1.7080    0.0000 C.ar    1  LIG1        0.0047
     15 O           0.2580    1.7540    0.0000 O.2     1  LIG1       -0.2665
     16 C           1.2460   -0.0210    0.0000 C.ar    1  LIG1        0.0654
     17 C           1.7380    0.8460    0.0000 C.ar    1  LIG1       -0.0095
     18 C           2.7330    0.8460    0.0000 C.ar    1  LIG1       -0.0244
     19 C           3.2670    0.0040    0.0000 C.ar    1  LIG1       -0.0045
     20 C           2.7580   -0.8830    0.0000 C.ar    1  LIG1        0.0012
     21 C           1.7580   -0.8830    0.0000 C.ar    1  LIG1        0.0174
     22 C           3.1960    1.6830    0.0000 C.3     1  LIG1        0.0307
     23 C           1.2460    1.6830    0.0000 C.3     1  LIG1        0.0322
@<TRIPOS>BOND
     1     1     2   ar
     2     1     6   ar
     3     1    16    1
     4     2     3   ar
     5     2    15    2
     6     3     4   ar
     7     3    14   ar
     8     4     5   ar
     9     4    11   ar
    10     5     6   ar
    11     5     8   ar
    12     6     7    2
    13     8     9   ar
    14     9    10   ar
    15    10    11   ar
    16    11    12   ar
    17    12    13   ar
    18    13    14   ar
    19    16    17   ar
    20    16    21   ar
    21    17    18   ar
    22    17    23    1
    23    18    19   ar
    24    18    22    1
    25    19    20   ar
    26    20    21   ar
