@<TRIPOS>MOLECULE
24639_ChemDiv_0111-0165
 24 29 0 0 0
SMALL
GASTEIGER
Energy = 0

@<TRIPOS>ATOM
      1 C           0.3250   -1.0580    0.0000 C.2     1  LIG1        0.3390
      2 N           1.2500   -1.3670    0.0000 N.am    1  LIG1       -0.1906
      3 C           1.9920   -0.7080    0.0000 C.3     1  LIG1        0.0802
      4 C           2.4630    0.0080    0.0000 C.3     1  LIG1        0.0201
      5 C           2.2460    1.0540    0.0000 C.3     1  LIG1        0.0017
      6 C           3.1580    1.5960    0.0000 C.3     1  LIG1        0.0001
      7 C           2.6830    0.8580    0.0000 C.3     1  LIG1        0.0017
      8 C           2.8960   -0.2000    0.0000 C.3     1  LIG1        0.0201
      9 C           1.4330    0.8580    0.0000 C.3     1  LIG1        0.0001
     10 C           0.7330    0.4380    0.0000 C.3     1  LIG1        0.0017
     11 C           0.9790   -0.3790    0.0000 C.3     1  LIG1        0.0201
     12 C           1.1130    1.2540    0.0000 C.3     1  LIG1        0.0001
     13 N           0.1290   -0.1250    0.0000 N.am    1  LIG1       -0.1906
     14 C          -0.7920    0.2000    0.0000 C.3     1  LIG1        0.0802
     15 C          -1.4130   -0.5500    0.0000 C.3     1  LIG1        0.0201
     16 C          -2.3000   -0.2000    0.0000 C.3     1  LIG1        0.0017
     17 C          -3.1630   -0.6380    0.0000 C.3     1  LIG1        0.0001
     18 C          -2.7830    0.2540    0.0000 C.3     1  LIG1        0.0017
     19 C          -1.8380    0.0170    0.0000 C.3     1  LIG1        0.0201
     20 C          -2.7830    1.2250    0.0000 C.3     1  LIG1        0.0001
     21 C          -1.7170    1.5710    0.0000 C.3     1  LIG1        0.0017
     22 C          -0.6290    1.1500    0.0000 C.3     1  LIG1        0.0201
     23 C          -2.2460    0.7710    0.0000 C.3     1  LIG1        0.0001
     24 O          -0.5500   -1.5920    0.0000 O.2     1  LIG1       -0.2492
@<TRIPOS>BOND
     1     1     2   am
     2     1    13   am
     3     1    24    2
     4     2     3    1
     5     3     4    1
     6     3     8    1
     7     3    11    1
     8     4     5    1
     9     5     6    1
    10     5    12    1
    11     6     7    1
    12     7     8    1
    13     7     9    1
    14     9    10    1
    15    10    11    1
    16    10    12    1
    17    13    14    1
    18    14    15    1
    19    14    19    1
    20    14    22    1
    21    15    16    1
    22    16    17    1
    23    16    23    1
    24    17    18    1
    25    18    19    1
    26    18    20    1
    27    20    21    1
    28    21    22    1
    29    21    23    1
