@<TRIPOS>MOLECULE
24648_ChemDiv_8011-6195
 30 33 0 0 0
SMALL
GASTEIGER
Energy = 0

@<TRIPOS>ATOM
      1 N           2.2210   -0.8540    0.0000 N.ar    1  LIG1       -0.1941
      2 C           2.7170   -1.6960    0.0000 C.ar    1  LIG1        0.4292
      3 O           2.2330   -2.5500    0.0000 O.2     1  LIG1       -0.4064
      4 C           0.7790   -1.6960    0.0000 C.ar    1  LIG1        0.1677
      5 C           1.2580   -0.8540    0.0000 C.ar    1  LIG1        0.1086
      6 C           0.7790   -0.0290    0.0000 C.ar    1  LIG1        0.0222
      7 C          -0.1710   -0.0290    0.0000 C.ar    1  LIG1        0.0186
      8 C          -0.6670   -0.8540    0.0000 C.ar    1  LIG1        0.0924
      9 S          -1.6330   -0.8540    0.0000 S.O2    1  LIG1       -0.0577
     10 N          -2.5830   -0.8540    0.0000 N.pl3   1  LIG1       -0.5358
     11 C          -3.1170    0.0210    0.0000 C.ar    1  LIG1       -0.1126
     12 C          -4.0750    0.0210    0.0000 C.ar    1  LIG1       -0.0281
     13 C          -4.5960    0.8830    0.0000 C.ar    1  LIG1       -0.0236
     14 C          -4.1000    1.7380    0.0000 C.ar    1  LIG1       -0.0044
     15 C          -3.1170    1.7380    0.0000 C.ar    1  LIG1       -0.0022
     16 C          -2.5920    0.8830    0.0000 C.ar    1  LIG1       -0.0239
     17 C          -5.5790    0.8830    0.0000 C.3     1  LIG1        0.0310
     18 O          -1.6330    0.0790    0.0000 O.2     1  LIG1       -0.1842
     19 O          -1.6330   -1.8380    0.0000 O.2     1  LIG1       -0.1842
     20 C          -0.1710   -1.6960    0.0000 C.ar    1  LIG1        0.0561
     21 O           3.6630   -1.6960    0.0000 O.2     1  LIG1       -0.2221
     22 C           2.7290    0.0000    0.0000 C.2     1  LIG1        0.3439
     23 N           3.6880    0.0000    0.0000 N.am    1  LIG1       -0.1875
     24 C           4.0920    0.8250    0.0000 C.3     1  LIG1        0.0971
     25 C           5.0830    0.8250    0.0000 C.3     1  LIG1        0.0217
     26 C           5.5750    1.6710    0.0000 C.3     1  LIG1        0.0018
     27 C           5.0580    2.5540    0.0000 C.3     1  LIG1        0.0001
     28 C           4.0750    2.5540    0.0000 C.3     1  LIG1        0.0018
     29 C           3.5710    1.6710    0.0000 C.3     1  LIG1        0.0217
     30 O           2.2170    0.8960    0.0000 O.2     1  LIG1       -0.2472
@<TRIPOS>BOND
     1     1     2   ar
     2     1     5   ar
     3     1    22   am
     4     2     3   ar
     5     2    21    2
     6     3     4   ar
     7     4     5   ar
     8     4    20   ar
     9     5     6   ar
    10     6     7   ar
    11     7     8   ar
    12     8     9    1
    13     8    20   ar
    14     9    10    1
    15     9    18    2
    16     9    19    2
    17    10    11    1
    18    11    12   ar
    19    11    16   ar
    20    12    13   ar
    21    13    14   ar
    22    13    17    1
    23    14    15   ar
    24    15    16   ar
    25    22    23   am
    26    22    30    2
    27    23    24    1
    28    24    25    1
    29    24    29    1
    30    25    26    1
    31    26    27    1
    32    27    28    1
    33    28    29    1
