@<TRIPOS>MOLECULE
24646_ChemDiv_7163-0458
 22 24 0 0 0
SMALL
GASTEIGER
Energy = 0

@<TRIPOS>ATOM
      1 S          -0.0040   -0.4710    0.0000 S.O2    1  LIG1       -0.0576
      2 N          -0.0040   -1.4710    0.0000 N.pl3   1  LIG1       -0.5333
      3 C           0.0000   -2.4880    0.0000 C.ar    1  LIG1       -0.0716
      4 C           0.8580   -2.9880    0.0000 C.ar    1  LIG1       -0.0093
      5 C           0.8580   -3.9880    0.0000 C.ar    1  LIG1        0.0561
      6 C           0.0000   -4.4750    0.0000 C.ar    1  LIG1        0.0146
      7 C          -0.8630   -3.9750    0.0000 C.ar    1  LIG1        0.0410
      8 C          -0.8630   -2.9880    0.0000 C.ar    1  LIG1        0.1738
      9 O          -1.7290   -2.4880    0.0000 O.3     1  LIG1       -0.2885
     10 CL          1.7250   -4.4880    0.0000 Cl      1  LIG1       -0.0823
     11 C          -0.0040    0.5290    0.0000 C.ar    1  LIG1        0.0924
     12 C           0.8580    1.0290    0.0000 C.ar    1  LIG1        0.0561
     13 C           0.8580    2.0380    0.0000 C.ar    1  LIG1        0.1692
     14 O           1.6040    2.7080    0.0000 O.2     1  LIG1       -0.4055
     15 C           1.1960    3.6130    0.0000 C.ar    1  LIG1        0.4408
     16 N           0.2080    3.5130    0.0000 N.ar    1  LIG1       -0.1713
     17 C          -0.0040    2.5380    0.0000 C.ar    1  LIG1        0.1222
     18 C          -0.8790    2.0250    0.0000 C.ar    1  LIG1        0.0237
     19 C          -0.8790    1.0290    0.0000 C.ar    1  LIG1        0.0187
     20 O           1.6960    4.4880    0.0000 O.2     1  LIG1       -0.2207
     21 O          -1.0040   -0.4710    0.0000 O.2     1  LIG1       -0.1842
     22 O           0.9920   -0.4710    0.0000 O.2     1  LIG1       -0.1842
@<TRIPOS>BOND
     1     1     2    1
     2     1    11    1
     3     1    21    2
     4     1    22    2
     5     2     3    1
     6     3     4   ar
     7     3     8   ar
     8     4     5   ar
     9     5     6   ar
    10     5    10    1
    11     6     7   ar
    12     7     8   ar
    13     8     9    1
    14    11    12   ar
    15    11    19   ar
    16    12    13   ar
    17    13    14   ar
    18    13    17   ar
    19    14    15   ar
    20    15    16   ar
    21    15    20    2
    22    16    17   ar
    23    17    18   ar
    24    18    19   ar
