@<TRIPOS>MOLECULE
24641_ChemDiv_D011-4730
 17 19 0 0 0
SMALL
GASTEIGER
Energy = 0

@<TRIPOS>ATOM
      1 C           0.1380    0.3630    0.0000 C.ar    1  LIG1        0.1438
      2 N          -0.4540    1.1790    0.0000 N.ar    1  LIG1       -0.2268
      3 C          -1.4040    0.8500    0.0000 C.ar    1  LIG1        0.0987
      4 C          -1.4000   -0.1500    0.0000 C.ar    1  LIG1        0.0789
      5 N          -0.4460   -0.4540    0.0000 N.ar    1  LIG1       -0.3094
      6 C           0.0500   -1.3130    0.0000 C.3     1  LIG1        0.1319
      7 C          -2.2750   -0.6500    0.0000 C.ar    1  LIG1        0.0188
      8 C          -3.1380   -0.1500    0.0000 C.ar    1  LIG1        0.0016
      9 C          -3.1380    0.8500    0.0000 C.ar    1  LIG1        0.0016
     10 C          -2.2750    1.3500    0.0000 C.ar    1  LIG1        0.0206
     11 C           1.1330    0.3670    0.0000 C.ar    1  LIG1        0.0346
     12 C           1.6380   -0.4960    0.0000 C.ar    1  LIG1        0.0097
     13 C           2.6290   -0.4830    0.0000 C.ar    1  LIG1        0.0347
     14 BR          3.1330   -1.3460    0.0000 Br      1  LIG1       -0.0490
     15 C           3.1250    0.3790    0.0000 C.ar    1  LIG1        0.0067
     16 C           2.6170    1.2540    0.0000 C.ar    1  LIG1        0.0006
     17 C           1.6210    1.2380    0.0000 C.ar    1  LIG1        0.0030
@<TRIPOS>BOND
     1     1     2   ar
     2     1     5   ar
     3     1    11    1
     4     2     3   ar
     5     3     4   ar
     6     3    10   ar
     7     4     5   ar
     8     4     7   ar
     9     5     6    1
    10     7     8   ar
    11     8     9   ar
    12     9    10   ar
    13    11    12   ar
    14    11    17   ar
    15    12    13   ar
    16    13    14    1
    17    13    15   ar
    18    15    16   ar
    19    16    17   ar
