@<TRIPOS>MOLECULE
24644_ChemDiv_6142-0002
 24 26 0 0 0
SMALL
GASTEIGER
Energy = 0

@<TRIPOS>ATOM
      1 S           0.8330    0.0750    0.0000 S.O2    1  LIG1       -0.0577
      2 C           1.1040   -0.8960    0.0000 C.ar    1  LIG1        0.0924
      3 C           0.4040   -1.6080    0.0000 C.ar    1  LIG1        0.0561
      4 C           0.6670   -2.5670    0.0000 C.ar    1  LIG1        0.1692
      5 O           0.1210   -3.4080    0.0000 O.2     1  LIG1       -0.4055
      6 C           0.7500   -4.1830    0.0000 C.ar    1  LIG1        0.4408
      7 N           1.6790   -3.8210    0.0000 N.ar    1  LIG1       -0.1713
      8 C           1.6290   -2.8290    0.0000 C.ar    1  LIG1        0.1222
      9 C           2.3330   -2.1170    0.0000 C.ar    1  LIG1        0.0237
     10 C           2.0750   -1.1670    0.0000 C.ar    1  LIG1        0.0187
     11 O           0.4830   -5.1540    0.0000 O.2     1  LIG1       -0.2207
     12 N           0.5670    1.0460    0.0000 N.pl3   1  LIG1       -0.5358
     13 C          -0.4000    1.3040    0.0000 C.ar    1  LIG1       -0.1110
     14 C          -0.6710    2.2630    0.0000 C.ar    1  LIG1       -0.0072
     15 C          -1.6290    2.5170    0.0000 C.ar    1  LIG1        0.0716
     16 N          -1.8960    3.4830    0.0000 N.am    1  LIG1       -0.1793
     17 C          -1.1880    4.1920    0.0000 C.2     1  LIG1        0.2461
     18 O          -1.4580    5.1540    0.0000 O.2     1  LIG1       -0.2730
     19 C          -0.2210    3.9380    0.0000 C.3     1  LIG1        0.0968
     20 C          -2.3380    1.8040    0.0000 C.ar    1  LIG1        0.0165
     21 C          -2.0630    0.8500    0.0000 C.ar    1  LIG1       -0.0005
     22 C          -1.1080    0.5920    0.0000 C.ar    1  LIG1       -0.0238
     23 O           1.8000    0.3380    0.0000 O.2     1  LIG1       -0.1842
     24 O          -0.1380   -0.1960    0.0000 O.2     1  LIG1       -0.1842
@<TRIPOS>BOND
     1     1     2    1
     2     1    12    1
     3     1    23    2
     4     1    24    2
     5     2     3   ar
     6     2    10   ar
     7     3     4   ar
     8     4     5   ar
     9     4     8   ar
    10     5     6   ar
    11     6     7   ar
    12     6    11    2
    13     7     8   ar
    14     8     9   ar
    15     9    10   ar
    16    12    13    1
    17    13    14   ar
    18    13    22   ar
    19    14    15   ar
    20    15    16    1
    21    15    20   ar
    22    16    17   am
    23    17    18    2
    24    17    19    1
    25    20    21   ar
    26    21    22   ar
