@<TRIPOS>MOLECULE
24642_ChemDiv_0217-0025
 22 24 0 0 0
SMALL
GASTEIGER
Energy = 0

@<TRIPOS>ATOM
      1 S          -1.6960    1.2670    0.0000 S.O2    1  LIG1       -0.0577
      2 C          -0.8130    1.7670    0.0000 C.ar    1  LIG1        0.0924
      3 C           0.0580    1.2670    0.0000 C.ar    1  LIG1        0.0561
      4 C           0.9250    1.7670    0.0000 C.ar    1  LIG1        0.1692
      5 O           1.8630    1.4670    0.0000 O.2     1  LIG1       -0.4055
      6 C           2.4330    2.2580    0.0000 C.ar    1  LIG1        0.4408
      7 N           1.8630    3.0710    0.0000 N.ar    1  LIG1       -0.1713
      8 C           0.9250    2.7670    0.0000 C.ar    1  LIG1        0.1222
      9 C           0.0580    3.2580    0.0000 C.ar    1  LIG1        0.0237
     10 C          -0.8130    2.7670    0.0000 C.ar    1  LIG1        0.0187
     11 O           3.4290    2.2580    0.0000 O.2     1  LIG1       -0.2207
     12 N          -2.5630    0.7540    0.0000 N.pl3   1  LIG1       -0.5358
     13 C          -2.5630   -0.2580    0.0000 C.ar    1  LIG1       -0.1114
     14 C          -1.6960   -0.7670    0.0000 C.ar    1  LIG1       -0.0116
     15 C          -1.6960   -1.7630    0.0000 C.ar    1  LIG1        0.0664
     16 C          -2.5630   -2.2580    0.0000 C.ar    1  LIG1        0.0681
     17 C          -3.4330   -1.7630    0.0000 C.ar    1  LIG1        0.0104
     18 C          -3.4330   -0.7670    0.0000 C.ar    1  LIG1       -0.0229
     19 CL         -2.5830   -3.2540    0.0000 Cl      1  LIG1       -0.0814
     20 CL         -0.8130   -2.2580    0.0000 Cl      1  LIG1       -0.0814
     21 O          -1.1830    0.3790    0.0000 O.2     1  LIG1       -0.1842
     22 O          -2.1920    2.1330    0.0000 O.2     1  LIG1       -0.1842
@<TRIPOS>BOND
     1     1     2    1
     2     1    12    1
     3     1    21    2
     4     1    22    2
     5     2     3   ar
     6     2    10   ar
     7     3     4   ar
     8     4     5   ar
     9     4     8   ar
    10     5     6   ar
    11     6     7   ar
    12     6    11    2
    13     7     8   ar
    14     8     9   ar
    15     9    10   ar
    16    12    13    1
    17    13    14   ar
    18    13    18   ar
    19    14    15   ar
    20    15    16   ar
    21    15    20    1
    22    16    17   ar
    23    16    19    1
    24    17    18   ar
