@<TRIPOS>MOLECULE
24649_ChemDiv_K906-2435
 19 21 0 0 0
SMALL
GASTEIGER
Energy = 0

@<TRIPOS>ATOM
      1 N          -0.4500    0.4250    0.0000 N.ar    1  LIG1       -0.3060
      2 C           0.1380    1.2290    0.0000 C.ar    1  LIG1        0.1441
      3 N          -0.4500    2.0500    0.0000 N.ar    1  LIG1       -0.2268
      4 C          -1.4000    1.7290    0.0000 C.ar    1  LIG1        0.0987
      5 C          -1.4000    0.7290    0.0000 C.ar    1  LIG1        0.0791
      6 C          -2.2710    0.2290    0.0000 C.ar    1  LIG1        0.0188
      7 C          -3.1330    0.7290    0.0000 C.ar    1  LIG1        0.0016
      8 C          -3.1330    1.7290    0.0000 C.ar    1  LIG1        0.0016
      9 C          -2.2710    2.2290    0.0000 C.ar    1  LIG1        0.0206
     10 C           1.1420    1.2290    0.0000 C.ar    1  LIG1        0.0342
     11 C           1.6290    0.3670    0.0000 C.ar    1  LIG1        0.0030
     12 C           2.6290    0.3670    0.0000 C.ar    1  LIG1        0.0001
     13 C           3.1290    1.2290    0.0000 C.ar    1  LIG1        0.0000
     14 C           2.6290    2.1000    0.0000 C.ar    1  LIG1        0.0001
     15 C           1.6290    2.0960    0.0000 C.ar    1  LIG1        0.0030
     16 C          -0.1420   -0.5290    0.0000 C.3     1  LIG1        0.1491
     17 C          -0.8130   -1.2710    0.0000 C.2     1  LIG1        0.0732
     18 O          -0.5080   -2.2250    0.0000 O.co2   1  LIG1       -0.5472
     19 O          -1.7880   -1.0710    0.0000 O.co2   1  LIG1       -0.5472
@<TRIPOS>BOND
     1     1     2   ar
     2     1     5   ar
     3     1    16    1
     4     2     3   ar
     5     2    10    1
     6     3     4   ar
     7     4     5   ar
     8     4     9   ar
     9     5     6   ar
    10     6     7   ar
    11     7     8   ar
    12     8     9   ar
    13    10    11   ar
    14    10    15   ar
    15    11    12   ar
    16    12    13   ar
    17    13    14   ar
    18    14    15   ar
    19    16    17    1
    20    17    18   ar
    21    17    19   ar
