@<TRIPOS>MOLECULE
24647_ChemDiv_D011-5603
 22 24 0 0 0
SMALL
GASTEIGER
Energy = 0

@<TRIPOS>ATOM
      1 C          -0.6040    1.2130    0.0000 C.ar    1  LIG1        0.1446
      2 N          -1.2080    2.0210    0.0000 N.ar    1  LIG1       -0.2268
      3 C          -2.1580    1.7040    0.0000 C.ar    1  LIG1        0.0987
      4 C          -2.1500    0.6920    0.0000 C.ar    1  LIG1        0.0796
      5 N          -1.1920    0.3960    0.0000 N.ar    1  LIG1       -0.2995
      6 C          -0.6960   -0.4670    0.0000 C.3     1  LIG1        0.1852
      7 C          -1.1920   -1.3290    0.0000 C.1     1  LIG1       -0.0525
      8 C          -0.6880   -2.1960    0.0000 C.1     1  LIG1       -0.0122
      9 C          -3.0170    0.1960    0.0000 C.ar    1  LIG1        0.0188
     10 C          -3.8920    0.7000    0.0000 C.ar    1  LIG1        0.0016
     11 C          -3.8920    1.7040    0.0000 C.ar    1  LIG1        0.0016
     12 C          -3.0170    2.2000    0.0000 C.ar    1  LIG1        0.0206
     13 C           0.3920    1.2210    0.0000 C.ar    1  LIG1        0.0374
     14 C           0.9040    0.3630    0.0000 C.ar    1  LIG1        0.0430
     15 C           1.8960    0.3750    0.0000 C.ar    1  LIG1        0.1725
     16 C           2.3920    1.2380    0.0000 C.ar    1  LIG1        0.1724
     17 C           1.8830    2.0960    0.0000 C.ar    1  LIG1        0.0401
     18 C           0.8830    2.0830    0.0000 C.ar    1  LIG1        0.0063
     19 O           3.3830    1.2500    0.0000 O.3     1  LIG1       -0.4684
     20 C           3.8880    0.3830    0.0000 C.3     1  LIG1        0.2526
     21 O           2.4040   -0.4830    0.0000 O.3     1  LIG1       -0.4684
     22 C           1.9130   -1.3420    0.0000 C.3     1  LIG1        0.2526
@<TRIPOS>BOND
     1     1     2   ar
     2     1     5   ar
     3     1    13    1
     4     2     3   ar
     5     3     4   ar
     6     3    12   ar
     7     4     5   ar
     8     4     9   ar
     9     5     6    1
    10     6     7    1
    11     7     8    3
    12     9    10   ar
    13    10    11   ar
    14    11    12   ar
    15    13    14   ar
    16    13    18   ar
    17    14    15   ar
    18    15    16   ar
    19    15    21    1
    20    16    17   ar
    21    16    19    1
    22    17    18   ar
    23    19    20    1
    24    21    22    1
