@<TRIPOS>MOLECULE
24643_ChemDiv_D011-5495
 18 20 0 0 0
SMALL
GASTEIGER
Energy = 0

@<TRIPOS>ATOM
      1 C           0.1380    1.2040    0.0000 C.ar    1  LIG1        0.1445
      2 N          -0.4670    2.0210    0.0000 N.ar    1  LIG1       -0.2268
      3 C          -1.4080    1.6880    0.0000 C.ar    1  LIG1        0.0987
      4 C          -1.4040    0.6920    0.0000 C.ar    1  LIG1        0.0796
      5 N          -0.4500    0.3880    0.0000 N.ar    1  LIG1       -0.2995
      6 C           0.0500   -0.4750    0.0000 C.3     1  LIG1        0.1852
      7 C          -0.4420   -1.3380    0.0000 C.1     1  LIG1       -0.0525
      8 C           0.0580   -2.2000    0.0000 C.1     1  LIG1       -0.0122
      9 C          -2.2710    0.1920    0.0000 C.ar    1  LIG1        0.0188
     10 C          -3.1330    0.6920    0.0000 C.ar    1  LIG1        0.0016
     11 C          -3.1330    1.6920    0.0000 C.ar    1  LIG1        0.0016
     12 C          -2.2710    2.2040    0.0000 C.ar    1  LIG1        0.0206
     13 C           1.1380    1.2210    0.0000 C.ar    1  LIG1        0.0342
     14 C           1.6210    2.0830    0.0000 C.ar    1  LIG1        0.0030
     15 C           2.6210    2.0960    0.0000 C.ar    1  LIG1        0.0001
     16 C           3.1290    1.2250    0.0000 C.ar    1  LIG1        0.0000
     17 C           2.6330    0.3580    0.0000 C.ar    1  LIG1        0.0001
     18 C           1.6380    0.3580    0.0000 C.ar    1  LIG1        0.0030
@<TRIPOS>BOND
     1     1     2   ar
     2     1     5   ar
     3     1    13    1
     4     2     3   ar
     5     3     4   ar
     6     3    12   ar
     7     4     5   ar
     8     4     9   ar
     9     5     6    1
    10     6     7    1
    11     7     8    3
    12     9    10   ar
    13    10    11   ar
    14    11    12   ar
    15    13    14   ar
    16    13    18   ar
    17    14    15   ar
    18    15    16   ar
    19    16    17   ar
    20    17    18   ar
