@<TRIPOS>MOLECULE
24659_ChemDiv_0KPI-0055
 18 20 0 0 0
SMALL
GASTEIGER
Energy = 0

@<TRIPOS>ATOM
      1 C          -0.3790    1.3210    0.0000 C.3     1  LIG1        0.0968
      2 C          -1.2500    1.7040    0.0000 C.3     1  LIG1        0.0201
      3 C          -2.2710    1.0460    0.0000 C.3     1  LIG1        0.0017
      4 C          -1.9750    0.1380    0.0000 C.3     1  LIG1        0.0001
      5 C          -1.0500    0.1380    0.0000 C.3     1  LIG1        0.0017
      6 C          -0.1420    0.3880    0.0000 C.3     1  LIG1        0.0201
      7 C          -0.4540   -0.5960    0.0000 C.3     1  LIG1        0.0017
      8 C          -1.2040   -0.0380    0.0000 C.3     1  LIG1        0.0001
      9 C          -1.5920    0.8330    0.0000 C.3     1  LIG1        0.0017
     10 C          -2.2710   -0.7540    0.0000 C.3     1  LIG1        0.0000
     11 N           0.3880    1.9580    0.0000 N.am    1  LIG1       -0.1890
     12 C           1.2790    1.6460    0.0000 C.2     1  LIG1        0.3392
     13 O           2.0960    2.3290    0.0000 O.2     1  LIG1       -0.2492
     14 N           1.3290    0.6460    0.0000 N.am    1  LIG1       -0.1872
     15 C           2.2210    0.2080    0.0000 C.3     1  LIG1        0.1168
     16 C           2.2670   -0.7880    0.0000 C.3     1  LIG1        0.0235
     17 C           1.4460   -1.3460    0.0000 C.3     1  LIG1        0.0018
     18 C           1.5040   -2.3250    0.0000 C.3     1  LIG1        0.0001
@<TRIPOS>BOND
     1     1     2    1
     2     1     6    1
     3     1    11    1
     4     2     3    1
     5     2     9    1
     6     3     4    1
     7     4     5    1
     8     4    10    1
     9     5     6    1
    10     6     7    1
    11     7     8    1
    12     8     9    1
    13     8    10    1
    14    11    12   am
    15    12    13    2
    16    12    14   am
    17    14    15    1
    18    15    16    1
    19    16    17    1
    20    17    18    1
