@<TRIPOS>MOLECULE
24657_ChemDiv_0334-0093
 19 21 0 0 0
SMALL
GASTEIGER
Energy = 0

@<TRIPOS>ATOM
      1 C          -2.1540    0.0960    0.0000 C.3     1  LIG1        0.0017
      2 C          -2.7920   -0.9290    0.0000 C.3     1  LIG1        0.0001
      3 C          -3.5250   -0.4500    0.0000 C.3     1  LIG1        0.0000
      4 C          -3.4580    0.5420    0.0000 C.3     1  LIG1        0.0000
      5 C          -3.0170    1.6000    0.0000 C.3     1  LIG1        0.0000
      6 C          -2.1540    1.1040    0.0000 C.3     1  LIG1        0.0001
      7 C          -3.8750    1.1040    0.0000 C.3     1  LIG1        0.0000
      8 C          -3.8750    0.0960    0.0000 C.3     1  LIG1        0.0000
      9 C          -3.0170   -0.3920    0.0000 C.3     1  LIG1        0.0001
     10 C          -4.4630   -0.7040    0.0000 C.3     1  LIG1        0.0000
     11 C          -1.2330    0.4210    0.0000 C.3     1  LIG1        0.0235
     12 C          -0.4960   -0.2500    0.0000 C.3     1  LIG1        0.1168
     13 N           0.4170    0.0210    0.0000 N.am    1  LIG1       -0.1872
     14 C           1.1580   -0.6330    0.0000 C.2     1  LIG1        0.3392
     15 O           0.9380   -1.5960    0.0000 O.2     1  LIG1       -0.2492
     16 N           2.0880   -0.3500    0.0000 N.am    1  LIG1       -0.1872
     17 C           2.8000   -1.0290    0.0000 C.3     1  LIG1        0.1168
     18 C           3.7460   -0.7500    0.0000 C.3     1  LIG1        0.0235
     19 C           4.4580   -1.4380    0.0000 C.3     1  LIG1        0.0019
@<TRIPOS>BOND
     1     1     2    1
     2     1     6    1
     3     1     9    1
     4     1    11    1
     5     2     3    1
     6     3     4    1
     7     3    10    1
     8     4     5    1
     9     5     6    1
    10     5     7    1
    11     7     8    1
    12     8     9    1
    13     8    10    1
    14    11    12    1
    15    12    13    1
    16    13    14   am
    17    14    15    2
    18    14    16   am
    19    16    17    1
    20    17    18    1
    21    18    19    1
