@<TRIPOS>MOLECULE
24652_ChemDiv_8017-8072
 28 30 0 0 0
SMALL
GASTEIGER
Energy = 0

@<TRIPOS>ATOM
      1 N           1.4080   -0.4460    0.0000 N.ar    1  LIG1       -0.1941
      2 C           1.7080   -1.4040    0.0000 C.ar    1  LIG1        0.4292
      3 O           0.9210   -1.9830    0.0000 O.2     1  LIG1       -0.4064
      4 C           0.1080   -1.4040    0.0000 C.ar    1  LIG1        0.1677
      5 C           0.4080   -0.4710    0.0000 C.ar    1  LIG1        0.1086
      6 C          -0.2710    0.2710    0.0000 C.ar    1  LIG1        0.0222
      7 C          -1.2460    0.0710    0.0000 C.ar    1  LIG1        0.0186
      8 C          -1.5460   -0.8920    0.0000 C.ar    1  LIG1        0.0924
      9 S          -2.5460   -1.0960    0.0000 S.O2    1  LIG1       -0.0577
     10 N          -3.5460   -1.3080    0.0000 N.pl3   1  LIG1       -0.5358
     11 C          -4.1960   -0.5420    0.0000 C.ar    1  LIG1       -0.1126
     12 C          -3.8500    0.3960    0.0000 C.ar    1  LIG1       -0.0281
     13 C          -4.5000    1.1580    0.0000 C.ar    1  LIG1       -0.0236
     14 C          -5.4750    0.9500    0.0000 C.ar    1  LIG1       -0.0044
     15 C          -5.8000    0.0210    0.0000 C.ar    1  LIG1       -0.0022
     16 C          -5.1750   -0.7290    0.0000 C.ar    1  LIG1       -0.0239
     17 C          -4.1880    2.1000    0.0000 C.3     1  LIG1        0.0310
     18 O          -2.7580   -0.0960    0.0000 O.2     1  LIG1       -0.1842
     19 O          -2.3630   -2.0960    0.0000 O.2     1  LIG1       -0.1842
     20 C          -0.8750   -1.6330    0.0000 C.ar    1  LIG1        0.0561
     21 O           2.6580   -1.7290    0.0000 O.2     1  LIG1       -0.2221
     22 C           1.9830    0.3710    0.0000 C.2     1  LIG1        0.3440
     23 O           1.5960    1.2960    0.0000 O.2     1  LIG1       -0.2472
     24 N           2.9830    0.2710    0.0000 N.am    1  LIG1       -0.1857
     25 C           3.4080   -0.6580    0.0000 C.3     1  LIG1        0.1170
     26 C           4.3830   -0.7460    0.0000 C.3     1  LIG1        0.0235
     27 C           4.8210   -1.6580    0.0000 C.3     1  LIG1        0.0018
     28 C           5.7960   -1.7290    0.0000 C.3     1  LIG1        0.0001
@<TRIPOS>BOND
     1     1     2   ar
     2     1     5   ar
     3     1    22   am
     4     2     3   ar
     5     2    21    2
     6     3     4   ar
     7     4     5   ar
     8     4    20   ar
     9     5     6   ar
    10     6     7   ar
    11     7     8   ar
    12     8     9    1
    13     8    20   ar
    14     9    10    1
    15     9    18    2
    16     9    19    2
    17    10    11    1
    18    11    12   ar
    19    11    16   ar
    20    12    13   ar
    21    13    14   ar
    22    13    17    1
    23    14    15   ar
    24    15    16   ar
    25    22    23    2
    26    22    24   am
    27    24    25    1
    28    25    26    1
    29    26    27    1
    30    27    28    1
