@<TRIPOS>MOLECULE
24654_ChemDiv_C517-5347
 24 27 0 0 0
SMALL
GASTEIGER
Energy = 0

@<TRIPOS>ATOM
      1 S          -0.4170    1.1790    0.0000 S.O2    1  LIG1       -0.0577
      2 C           0.5960    1.1790    0.0000 C.ar    1  LIG1        0.0924
      3 C           1.0920    0.3210    0.0000 C.ar    1  LIG1        0.0560
      4 C           2.0790    0.3210    0.0000 C.ar    1  LIG1        0.1672
      5 O           2.7460   -0.4130    0.0000 O.2     1  LIG1       -0.4067
      6 C           3.6500   -0.0130    0.0000 C.ar    1  LIG1        0.4220
      7 N           3.5540    0.9750    0.0000 N.ar    1  LIG1       -0.2601
      8 C           2.5750    1.1920    0.0000 C.ar    1  LIG1        0.1001
      9 C           2.0790    2.0420    0.0000 C.ar    1  LIG1        0.0217
     10 C           1.0920    2.0420    0.0000 C.ar    1  LIG1        0.0186
     11 C           4.2880    1.6540    0.0000 C.3     1  LIG1        0.1369
     12 O           4.5130   -0.5080    0.0000 O.2     1  LIG1       -0.2226
     13 N          -1.4170    1.1790    0.0000 N.pl3   1  LIG1       -0.5357
     14 C          -1.9250    0.3080    0.0000 C.ar    1  LIG1       -0.1091
     15 C          -2.9330    0.3080    0.0000 C.ar    1  LIG1        0.0164
     16 C          -3.4290   -0.5630    0.0000 C.ar    1  LIG1        0.1746
     17 C          -2.9250   -1.4330    0.0000 C.ar    1  LIG1        0.1763
     18 O          -3.5920   -2.1790    0.0000 O.3     1  LIG1       -0.4346
     19 C          -4.5170   -1.7670    0.0000 C.3     1  LIG1        0.4294
     20 O          -4.4080   -0.7790    0.0000 O.3     1  LIG1       -0.4347
     21 C          -1.9250   -1.4330    0.0000 C.ar    1  LIG1        0.0383
     22 C          -1.4170   -0.5630    0.0000 C.ar    1  LIG1       -0.0205
     23 O          -0.4290    2.1830    0.0000 O.2     1  LIG1       -0.1842
     24 O          -0.4170    0.1710    0.0000 O.2     1  LIG1       -0.1842
@<TRIPOS>BOND
     1     1     2    1
     2     1    13    1
     3     1    23    2
     4     1    24    2
     5     2     3   ar
     6     2    10   ar
     7     3     4   ar
     8     4     5   ar
     9     4     8   ar
    10     5     6   ar
    11     6     7   ar
    12     6    12    2
    13     7     8   ar
    14     7    11    1
    15     8     9   ar
    16     9    10   ar
    17    13    14    1
    18    14    15   ar
    19    14    22   ar
    20    15    16   ar
    21    16    17   ar
    22    16    20    1
    23    17    18    1
    24    17    21   ar
    25    18    19    1
    26    19    20    1
    27    21    22   ar
