@<TRIPOS>MOLECULE
24651_ChemDiv_0086-0043
 19 21 0 0 0
SMALL
GASTEIGER
Energy = 0

@<TRIPOS>ATOM
      1 N          -0.5000    0.4500    0.0000 N.ar    1  LIG1       -0.1526
      2 C           0.5040    0.4500    0.0000 C.3     1  LIG1        0.3922
      3 C           1.0040   -0.4210    0.0000 C.2     1  LIG1        0.2511
      4 O           0.5040   -1.3000    0.0000 O.2     1  LIG1       -0.2840
      5 C           2.0170   -0.4210    0.0000 C.ar    1  LIG1        0.0417
      6 C           2.5210    0.4500    0.0000 C.ar    1  LIG1        0.0031
      7 C           3.4920    0.4500    0.0000 C.ar    1  LIG1        0.0001
      8 C           3.9920   -0.4210    0.0000 C.ar    1  LIG1        0.0000
      9 C           3.4920   -1.3000    0.0000 C.ar    1  LIG1        0.0001
     10 C           2.4830   -1.2710    0.0000 C.ar    1  LIG1        0.0031
     11 C          -1.0040   -0.4210    0.0000 C.ar    1  LIG1        0.2903
     12 C          -2.0130   -0.4210    0.0000 C.ar    1  LIG1        0.0699
     13 C          -2.5130    0.4500    0.0000 C.ar    1  LIG1        0.0120
     14 C          -2.0130    1.3040    0.0000 C.ar    1  LIG1        0.0758
     15 C          -1.0040    1.3040    0.0000 C.ar    1  LIG1        0.2905
     16 C          -3.4880    0.4500    0.0000 C.ar    1  LIG1        0.0004
     17 C          -3.9960   -0.4210    0.0000 C.ar    1  LIG1        0.0000
     18 C          -3.4880   -1.3000    0.0000 C.ar    1  LIG1        0.0002
     19 C          -2.4880   -1.2710    0.0000 C.ar    1  LIG1        0.0061
@<TRIPOS>BOND
     1     1     2    1
     2     1    11   ar
     3     1    15   ar
     4     2     3    1
     5     3     4    2
     6     3     5    1
     7     5     6   ar
     8     5    10   ar
     9     6     7   ar
    10     7     8   ar
    11     8     9   ar
    12     9    10   ar
    13    11    12   ar
    14    12    13   ar
    15    12    19   ar
    16    13    14   ar
    17    13    16   ar
    18    14    15   ar
    19    16    17   ar
    20    17    18   ar
    21    18    19   ar
