@<TRIPOS>MOLECULE
24668_ChemDiv_1073-0094
 15 16 0 0 0
SMALL
GASTEIGER
Energy = 0

@<TRIPOS>ATOM
      1 N          -0.2670   -0.0080    0.0000 N.pl3   1  LIG1       -0.2972
      2 C           0.7460   -0.0080    0.0000 C.ar    1  LIG1        0.0482
      3 C           1.2330    0.8540    0.0000 C.ar    1  LIG1        0.0159
      4 C           2.2540    0.8540    0.0000 C.ar    1  LIG1        0.0193
      5 C           2.7630   -0.0080    0.0000 C.ar    1  LIG1        0.0892
      6 N           3.7580   -0.0080    0.0000 N.pl3   1  LIG1       -0.1281
      7 C           2.2540   -0.8670    0.0000 C.ar    1  LIG1        0.0193
      8 C           1.2330   -0.8670    0.0000 C.ar    1  LIG1        0.0159
      9 C          -0.7540    0.8710    0.0000 C.3     1  LIG1        0.1544
     10 C          -1.7460    0.8710    0.0000 C.3     1  LIG1        0.1605
     11 N          -2.2540    0.0130    0.0000 N.4     1  LIG1        0.3799
     12 C          -1.7670   -0.8420    0.0000 C.3     1  LIG1        0.1605
     13 C          -0.7540   -0.8670    0.0000 C.3     1  LIG1        0.1544
     14 C          -3.2580    0.0130    0.0000 C.3     1  LIG1        0.1389
     15 C          -3.7630   -0.8420    0.0000 C.3     1  LIG1        0.0688
@<TRIPOS>BOND
     1     1     2    1
     2     1     9    1
     3     1    13    1
     4     2     3   ar
     5     2     8   ar
     6     3     4   ar
     7     4     5   ar
     8     5     6    1
     9     5     7   ar
    10     7     8   ar
    11     9    10    1
    12    10    11    1
    13    11    12    1
    14    11    14    1
    15    12    13    1
    16    14    15    1
