@<TRIPOS>MOLECULE
24667_ChemDiv_0114-0084
 28 33 0 0 0
SMALL
GASTEIGER
Energy = 0

@<TRIPOS>ATOM
      1 N           1.1460   -0.7000    0.0000 N.am    1  LIG1       -0.2255
      2 C           0.2710   -1.1040    0.0000 C.2     1  LIG1        0.2323
      3 C          -0.2880   -0.1830    0.0000 C.3     1  LIG1        0.0944
      4 C          -0.0460    0.2330    0.0000 C.3     1  LIG1        0.0944
      5 C           1.0250    0.2670    0.0000 C.2     1  LIG1        0.2323
      6 O           1.4830    0.7830    0.0000 O.2     1  LIG1       -0.2744
      7 C          -1.0170    0.7830    0.0000 C.3     1  LIG1        0.0530
      8 C          -0.9420    1.7210    0.0000 C.ar    1  LIG1       -0.0216
      9 C          -1.4130    1.2250    0.0000 C.ar    1  LIG1       -0.0216
     10 C          -1.2710    0.3420    0.0000 C.3     1  LIG1        0.0530
     11 C          -3.0830   -0.5170    0.0000 C.ar    1  LIG1       -0.0216
     12 C          -2.7790   -0.0500    0.0000 C.ar    1  LIG1       -0.0216
     13 C          -3.0330    0.9670    0.0000 C.ar    1  LIG1       -0.0042
     14 C          -4.0630    0.9630    0.0000 C.ar    1  LIG1       -0.0003
     15 C          -4.5580    0.1790    0.0000 C.ar    1  LIG1       -0.0003
     16 C          -4.1170   -0.6380    0.0000 C.ar    1  LIG1       -0.0042
     17 C          -2.4540    1.3630    0.0000 C.ar    1  LIG1       -0.0042
     18 C          -2.7130    2.2710    0.0000 C.ar    1  LIG1       -0.0003
     19 C          -2.0540    2.9460    0.0000 C.ar    1  LIG1       -0.0003
     20 C          -1.1080    2.7210    0.0000 C.ar    1  LIG1       -0.0042
     21 O           0.1080   -1.8080    0.0000 O.2     1  LIG1       -0.2744
     22 C           1.7670   -1.4750    0.0000 C.3     1  LIG1        0.1274
     23 C           2.8540   -1.5250    0.0000 C.ar    1  LIG1       -0.0019
     24 C           3.6960   -1.0580    0.0000 C.ar    1  LIG1       -0.0026
     25 C           4.5540   -1.4880    0.0000 C.ar    1  LIG1       -0.0003
     26 C           4.5380   -2.4580    0.0000 C.ar    1  LIG1       -0.0000
     27 C           3.6960   -2.9420    0.0000 C.ar    1  LIG1       -0.0003
     28 C           2.8540   -2.4580    0.0000 C.ar    1  LIG1       -0.0026
@<TRIPOS>BOND
     1     1     2   am
     2     1     5   am
     3     1    22    1
     4     2     3    1
     5     2    21    2
     6     3     4    1
     7     3    10    1
     8     4     5    1
     9     4     7    1
    10     5     6    2
    11     7     8    1
    12     7    12    1
    13     8     9   ar
    14     8    20   ar
    15     9    10    1
    16     9    17   ar
    17    10    11    1
    18    11    12   ar
    19    11    16   ar
    20    12    13   ar
    21    13    14   ar
    22    14    15   ar
    23    15    16   ar
    24    17    18   ar
    25    18    19   ar
    26    19    20   ar
    27    22    23    1
    28    23    24   ar
    29    23    28   ar
    30    24    25   ar
    31    25    26   ar
    32    26    27   ar
    33    27    28   ar
