@<TRIPOS>MOLECULE
24661_ChemDiv_5929-0093
 32 36 0 0 0
SMALL
GASTEIGER
Energy = 0

@<TRIPOS>ATOM
      1 C           0.7830    2.3000    0.0000 C.2     1  LIG1        0.3236
      2 N           1.2630    3.1500    0.0000 N.am    1  LIG1       -0.2509
      3 C           2.2250    3.1500    0.0000 C.3     1  LIG1        0.1578
      4 C           2.7540    3.9630    0.0000 C.3     1  LIG1        0.1609
      5 N           2.2460    4.8040    0.0000 N.4     1  LIG1        0.3847
      6 C           1.2710    4.8210    0.0000 C.3     1  LIG1        0.1609
      7 C           0.7830    3.9630    0.0000 C.3     1  LIG1        0.1578
      8 C           2.7540    5.6880    0.0000 C.3     1  LIG1        0.2024
      9 N          -0.2130    2.3000    0.0000 N.am    1  LIG1       -0.1884
     10 C          -0.8290    1.5670    0.0000 C.3     1  LIG1        0.1167
     11 C          -0.8290    0.6330    0.0000 C.3     1  LIG1        0.0202
     12 C          -1.7420   -0.0710    0.0000 C.3     1  LIG1        0.0034
     13 C          -1.7040   -1.0880    0.0000 C.3     1  LIG1        0.0202
     14 C          -0.7210   -1.4080    0.0000 C.3     1  LIG1        0.0017
     15 C           0.0000   -0.7500    0.0000 C.3     1  LIG1        0.0001
     16 C           0.0000    0.1170    0.0000 C.3     1  LIG1        0.0017
     17 C          -0.8920   -0.9540    0.0000 C.3     1  LIG1        0.0000
     18 C          -1.9500   -0.6880    0.0000 C.3     1  LIG1        0.0001
     19 C          -1.9500    0.3750    0.0000 C.3     1  LIG1        0.0017
     20 C          -2.7580   -1.4080    0.0000 C.3     1  LIG1        0.0017
     21 C          -1.7040   -2.0830    0.0000 C.3     1  LIG1        0.1167
     22 N          -0.8580   -2.5880    0.0000 N.am    1  LIG1       -0.1884
     23 C          -0.8580   -3.5830    0.0000 C.2     1  LIG1        0.3236
     24 N          -0.0080   -4.0790    0.0000 N.am    1  LIG1       -0.2509
     25 C           0.8670   -3.6040    0.0000 C.3     1  LIG1        0.1578
     26 C           1.7130   -4.1420    0.0000 C.3     1  LIG1        0.1609
     27 N           1.6880   -5.1580    0.0000 N.4     1  LIG1        0.3847
     28 C           0.8040   -5.6170    0.0000 C.3     1  LIG1        0.1609
     29 C          -0.0460   -5.0750    0.0000 C.3     1  LIG1        0.1578
     30 C           2.5000   -5.6880    0.0000 C.3     1  LIG1        0.2024
     31 O          -1.6750   -4.0540    0.0000 O.2     1  LIG1       -0.2508
     32 O           1.2420    1.4330    0.0000 O.2     1  LIG1       -0.2508
@<TRIPOS>BOND
     1     1     2   am
     2     1     9   am
     3     1    32    2
     4     2     3    1
     5     2     7    1
     6     3     4    1
     7     4     5    1
     8     5     6    1
     9     5     8    1
    10     6     7    1
    11     9    10    1
    12    10    11    1
    13    11    12    1
    14    11    16    1
    15    11    19    1
    16    12    13    1
    17    13    14    1
    18    13    20    1
    19    13    21    1
    20    14    15    1
    21    15    16    1
    22    15    17    1
    23    17    18    1
    24    18    19    1
    25    18    20    1
    26    21    22    1
    27    22    23   am
    28    23    24   am
    29    23    31    2
    30    24    25    1
    31    24    29    1
    32    25    26    1
    33    26    27    1
    34    27    28    1
    35    27    30    1
    36    28    29    1
