@<TRIPOS>MOLECULE
24665_ChemDiv_D012-0365
 17 18 0 0 0
SMALL
GASTEIGER
Energy = 0

@<TRIPOS>ATOM
      1 C           0.0420    0.2420    0.0000 C.2     1  LIG1        0.3232
      2 N          -0.9580    0.2080    0.0000 N.am    1  LIG1       -0.2629
      3 C          -1.3670    1.1290    0.0000 C.3     1  LIG1        0.0950
      4 C          -2.3000    1.4830    0.0000 C.3     1  LIG1        0.0216
      5 C          -3.2080    1.0830    0.0000 C.3     1  LIG1        0.0018
      6 C          -3.5670    0.1420    0.0000 C.3     1  LIG1        0.0001
      7 C          -3.1580   -0.7670    0.0000 C.3     1  LIG1        0.0018
      8 C          -2.2210   -1.1290    0.0000 C.3     1  LIG1        0.0216
      9 C          -1.3130   -0.7210    0.0000 C.3     1  LIG1        0.0950
     10 N           0.5710   -0.6170    0.0000 N.am    1  LIG1       -0.1902
     11 C           1.5710   -0.6170    0.0000 C.3     1  LIG1        0.0969
     12 C           2.0630   -1.4790    0.0000 C.3     1  LIG1        0.0217
     13 C           3.0630   -1.4790    0.0000 C.3     1  LIG1        0.0018
     14 C           3.5630   -0.6170    0.0000 C.3     1  LIG1        0.0001
     15 C           3.0630    0.2500    0.0000 C.3     1  LIG1        0.0018
     16 C           2.0630    0.2500    0.0000 C.3     1  LIG1        0.0217
     17 O           0.5250    1.1210    0.0000 O.2     1  LIG1       -0.2508
@<TRIPOS>BOND
     1     1     2   am
     2     1    10   am
     3     1    17    2
     4     2     3    1
     5     2     9    1
     6     3     4    1
     7     4     5    1
     8     5     6    1
     9     6     7    1
    10     7     8    1
    11     8     9    1
    12    10    11    1
    13    11    12    1
    14    11    16    1
    15    12    13    1
    16    13    14    1
    17    14    15    1
    18    15    16    1
