@<TRIPOS>MOLECULE
24678_ChemDiv_D240-0085
 33 36 0 0 0
SMALL
GASTEIGER
Energy = 0

@<TRIPOS>ATOM
      1 S           0.8670   -0.2500    0.0000 S.O2    1  LIG1        0.0826
      2 N           1.7330    0.2500    0.0000 N.am    1  LIG1       -0.1341
      3 C           2.6000   -0.2500    0.0000 C.2     1  LIG1        0.2714
      4 C           2.6000   -1.2500    0.0000 C.ar    1  LIG1        0.0556
      5 C           1.7420   -1.7500    0.0000 C.ar    1  LIG1        0.0077
      6 C           1.7420   -2.7500    0.0000 C.ar    1  LIG1        0.0370
      7 C           2.6000   -3.2500    0.0000 C.ar    1  LIG1        0.1387
      8 C           3.4670   -2.7500    0.0000 C.ar    1  LIG1        0.0370
      9 C           3.4670   -1.7500    0.0000 C.ar    1  LIG1        0.0077
     10 O           2.6000   -4.2500    0.0000 O.3     1  LIG1       -0.4714
     11 C           1.7420   -4.7500    0.0000 C.3     1  LIG1        0.2525
     12 O           3.4670    0.2500    0.0000 O.2     1  LIG1       -0.2680
     13 C           1.7330    1.2540    0.0000 C.ar    1  LIG1        0.0770
     14 C           2.6000    1.7540    0.0000 C.ar    1  LIG1        0.0198
     15 C           2.6000    2.7540    0.0000 C.ar    1  LIG1        0.0382
     16 C           1.7330    3.2540    0.0000 C.ar    1  LIG1        0.1388
     17 C           0.8750    2.7540    0.0000 C.ar    1  LIG1        0.0382
     18 C           0.8750    1.7540    0.0000 C.ar    1  LIG1        0.0198
     19 O           1.7330    4.2500    0.0000 O.3     1  LIG1       -0.4714
     20 C           0.8750    4.7500    0.0000 C.3     1  LIG1        0.2525
     21 C          -0.0080   -0.7580    0.0000 C.ar    1  LIG1        0.1290
     22 C          -0.0080   -1.7670    0.0000 C.ar    1  LIG1        0.0593
     23 C          -0.8830   -2.2580    0.0000 C.ar    1  LIG1        0.1674
     24 O          -1.0830   -3.2420    0.0000 O.2     1  LIG1       -0.4067
     25 C          -2.0880   -3.3420    0.0000 C.ar    1  LIG1        0.4220
     26 N          -2.4750   -2.4330    0.0000 N.ar    1  LIG1       -0.2601
     27 C          -1.7380   -1.7580    0.0000 C.ar    1  LIG1        0.1001
     28 C          -1.7380   -0.7580    0.0000 C.ar    1  LIG1        0.0218
     29 C          -0.8830   -0.2580    0.0000 C.ar    1  LIG1        0.0219
     30 C          -3.4710   -2.2330    0.0000 C.3     1  LIG1        0.1369
     31 O          -2.6040   -4.2170    0.0000 O.2     1  LIG1       -0.2226
     32 O           0.3580    0.6210    0.0000 O.2     1  LIG1       -0.1493
     33 O           1.3670   -1.1250    0.0000 O.2     1  LIG1       -0.1493
@<TRIPOS>BOND
     1     1     2    1
     2     1    21    1
     3     1    32    2
     4     1    33    2
     5     2     3   am
     6     2    13    1
     7     3     4    1
     8     3    12    2
     9     4     5   ar
    10     4     9   ar
    11     5     6   ar
    12     6     7   ar
    13     7     8   ar
    14     7    10    1
    15     8     9   ar
    16    10    11    1
    17    13    14   ar
    18    13    18   ar
    19    14    15   ar
    20    15    16   ar
    21    16    17   ar
    22    16    19    1
    23    17    18   ar
    24    19    20    1
    25    21    22   ar
    26    21    29   ar
    27    22    23   ar
    28    23    24   ar
    29    23    27   ar
    30    24    25   ar
    31    25    26   ar
    32    25    31    2
    33    26    27   ar
    34    26    30    1
    35    27    28   ar
    36    28    29   ar
