@<TRIPOS>MOLECULE
24670_ChemDiv_R152-2318
 17 18 0 0 0
SMALL
GASTEIGER
Energy = 0

@<TRIPOS>ATOM
      1 N           0.0000   -0.4920    0.0000 N.pl3   1  LIG1       -0.2974
      2 C          -0.8630   -0.9920    0.0000 C.ar    1  LIG1        0.0449
      3 C          -1.7380   -0.4920    0.0000 C.ar    1  LIG1        0.0256
      4 C          -2.6000   -0.9920    0.0000 C.ar    1  LIG1        0.0589
      5 C          -2.6000   -1.9960    0.0000 C.ar    1  LIG1        0.0112
      6 C          -1.7380   -2.4960    0.0000 C.ar    1  LIG1       -0.0022
      7 C          -0.8630   -1.9960    0.0000 C.ar    1  LIG1       -0.0085
      8 C           0.0040   -2.4960    0.0000 C.3     1  LIG1        0.0323
      9 CL         -3.4630   -0.4920    0.0000 Cl      1  LIG1       -0.0822
     10 C           0.8670   -0.9830    0.0000 C.3     1  LIG1        0.1544
     11 C           1.7330   -0.4920    0.0000 C.3     1  LIG1        0.1605
     12 N           1.7330    0.5080    0.0000 N.4     1  LIG1        0.3811
     13 C           0.8630    1.0080    0.0000 C.3     1  LIG1        0.1605
     14 C          -0.0080    0.5080    0.0000 C.3     1  LIG1        0.1544
     15 C           2.5960    1.0080    0.0000 C.3     1  LIG1        0.1596
     16 C           2.5960    2.0000    0.0000 C.3     1  LIG1        0.1717
     17 N           3.4580    2.5000    0.0000 N.3     1  LIG1       -0.1248
@<TRIPOS>BOND
     1     1     2    1
     2     1    10    1
     3     1    14    1
     4     2     3   ar
     5     2     7   ar
     6     3     4   ar
     7     4     5   ar
     8     4     9    1
     9     5     6   ar
    10     6     7   ar
    11     7     8    1
    12    10    11    1
    13    11    12    1
    14    12    13    1
    15    12    15    1
    16    13    14    1
    17    15    16    1
    18    16    17    1
