@<TRIPOS>MOLECULE
24672_ChemDiv_R152-2319
 17 18 0 0 0
SMALL
GASTEIGER
Energy = 0

@<TRIPOS>ATOM
      1 N          -0.7580   -0.4250    0.0000 N.pl3   1  LIG1       -0.2975
      2 C          -1.6210    0.0750    0.0000 C.ar    1  LIG1        0.0438
      3 C          -1.6210    1.0750    0.0000 C.ar    1  LIG1       -0.0125
      4 C          -2.4880    1.5750    0.0000 C.ar    1  LIG1       -0.0246
      5 C          -3.3580    1.0750    0.0000 C.ar    1  LIG1       -0.0045
      6 C          -3.3500    0.0670    0.0000 C.ar    1  LIG1        0.0009
      7 C          -2.4880   -0.4250    0.0000 C.ar    1  LIG1        0.0142
      8 C          -2.5040    2.5790    0.0000 C.3     1  LIG1        0.0307
      9 C          -0.7580    1.5750    0.0000 C.3     1  LIG1        0.0320
     10 C          -0.7580   -1.4250    0.0000 C.3     1  LIG1        0.1544
     11 C           0.1080   -1.9210    0.0000 C.3     1  LIG1        0.1605
     12 N           0.9710   -1.4250    0.0000 N.4     1  LIG1        0.3811
     13 C           0.9710   -0.4250    0.0000 C.3     1  LIG1        0.1605
     14 C           0.1080    0.0790    0.0000 C.3     1  LIG1        0.1544
     15 C           1.6790   -2.1250    0.0000 C.3     1  LIG1        0.1596
     16 C           2.6420   -1.8670    0.0000 C.3     1  LIG1        0.1717
     17 N           3.3540   -2.5750    0.0000 N.3     1  LIG1       -0.1248
@<TRIPOS>BOND
     1     1     2    1
     2     1    10    1
     3     1    14    1
     4     2     3   ar
     5     2     7   ar
     6     3     4   ar
     7     3     9    1
     8     4     5   ar
     9     4     8    1
    10     5     6   ar
    11     6     7   ar
    12    10    11    1
    13    11    12    1
    14    12    13    1
    15    12    15    1
    16    13    14    1
    17    15    16    1
    18    16    17    1
