@<TRIPOS>MOLECULE
24671_ChemDiv_1552-0020
 29 33 0 0 0
SMALL
GASTEIGER
Energy = 0

@<TRIPOS>ATOM
      1 N          -0.4040    0.5210    0.0000 N.am    1  LIG1       -0.2299
      2 C          -1.4670    1.8670    0.0000 C.2     1  LIG1        0.2320
      3 C          -3.1290    1.3710    0.0000 C.3     1  LIG1        0.0944
      4 C          -3.1290   -0.4330    0.0000 C.3     1  LIG1        0.0944
      5 C          -1.4500   -0.9460    0.0000 C.2     1  LIG1        0.2320
      6 O          -0.9000   -2.5790    0.0000 O.2     1  LIG1       -0.2744
      7 C          -4.9080   -0.1380    0.0000 C.3     1  LIG1        0.0530
      8 C          -4.5080    0.1500    0.0000 C.ar    1  LIG1       -0.0216
      9 C          -4.5080    0.6040    0.0000 C.ar    1  LIG1       -0.0216
     10 C          -4.9080    0.8250    0.0000 C.3     1  LIG1        0.0530
     11 C          -5.3040    0.5750    0.0000 C.ar    1  LIG1       -0.0216
     12 C          -5.3040    0.1500    0.0000 C.ar    1  LIG1       -0.0216
     13 C          -5.7040   -0.1580    0.0000 C.ar    1  LIG1       -0.0042
     14 C          -6.1000    0.1500    0.0000 C.ar    1  LIG1       -0.0003
     15 C          -6.1000    0.5750    0.0000 C.ar    1  LIG1       -0.0003
     16 C          -5.7040    0.8250    0.0000 C.ar    1  LIG1       -0.0042
     17 C          -4.1040    0.8500    0.0000 C.ar    1  LIG1       -0.0042
     18 C          -3.6750    0.6040    0.0000 C.ar    1  LIG1       -0.0003
     19 C          -3.6750    0.1500    0.0000 C.ar    1  LIG1       -0.0003
     20 C          -4.1040   -0.1380    0.0000 C.ar    1  LIG1       -0.0042
     21 O          -0.9670    3.5750    0.0000 O.2     1  LIG1       -0.2744
     22 C           1.3330    0.5210    0.0000 C.3     1  LIG1        0.1009
     23 C           2.1630   -1.0250    0.0000 C.3     1  LIG1        0.0220
     24 C           3.1500   -1.0420    0.0000 C.3     1  LIG1        0.0022
     25 C           3.6170   -1.9040    0.0000 C.3     1  LIG1        0.0060
     26 C           4.6040   -1.9210    0.0000 C.3     1  LIG1        0.0417
     27 C           5.0750   -2.7960    0.0000 C.2     1  LIG1        0.0503
     28 O           6.1000   -2.8170    0.0000 O.co2   1  LIG1       -0.5492
     29 O           4.5040   -3.5710    0.0000 O.co2   1  LIG1       -0.5492
@<TRIPOS>BOND
     1     1     2   am
     2     1     5   am
     3     1    22    1
     4     2     3    1
     5     2    21    2
     6     3     4    1
     7     3    10    1
     8     4     5    1
     9     4     7    1
    10     5     6    2
    11     7     8    1
    12     7    12    1
    13     8     9   ar
    14     8    20   ar
    15     9    10    1
    16     9    17   ar
    17    10    11    1
    18    11    12   ar
    19    11    16   ar
    20    12    13   ar
    21    13    14   ar
    22    14    15   ar
    23    15    16   ar
    24    17    18   ar
    25    18    19   ar
    26    19    20   ar
    27    22    23    1
    28    23    24    1
    29    24    25    1
    30    25    26    1
    31    26    27    1
    32    27    28   ar
    33    27    29   ar
