@<TRIPOS>MOLECULE
24674_ChemDiv_C562-1551
 36 39 0 0 0
SMALL
GASTEIGER
Energy = 0

@<TRIPOS>ATOM
      1 S           0.5080   -0.0080    0.0000 S.O2    1  LIG1        0.0773
      2 N           0.0040   -0.8830    0.0000 N.3     1  LIG1       -0.0695
      3 C           0.5080   -1.7460    0.0000 C.3     1  LIG1        0.1798
      4 C           0.0170   -2.6080    0.0000 C.2     1  LIG1        0.2636
      5 N          -0.9830   -2.6080    0.0000 N.am    1  LIG1       -0.1780
      6 C          -1.4790   -1.7460    0.0000 C.ar    1  LIG1        0.0735
      7 C          -0.9830   -0.8830    0.0000 C.ar    1  LIG1        0.0179
      8 C          -1.4790   -0.0170    0.0000 C.ar    1  LIG1        0.0179
      9 C          -2.4790   -0.0170    0.0000 C.ar    1  LIG1        0.0734
     10 N          -2.9750    0.8460    0.0000 N.am    1  LIG1       -0.1792
     11 C          -3.9670    0.8460    0.0000 C.2     1  LIG1        0.2461
     12 O          -4.4710    1.7170    0.0000 O.2     1  LIG1       -0.2730
     13 C          -4.4710   -0.0210    0.0000 C.3     1  LIG1        0.0968
     14 C          -2.9790   -0.8830    0.0000 C.ar    1  LIG1        0.0179
     15 C          -2.4790   -1.7540    0.0000 C.ar    1  LIG1        0.0179
     16 O           0.5210   -3.4710    0.0000 O.2     1  LIG1       -0.2714
     17 C           1.5080   -1.7380    0.0000 C.3     1  LIG1        0.0551
     18 C           2.0130   -2.5960    0.0000 C.ar    1  LIG1       -0.0202
     19 C           1.5080   -3.4540    0.0000 C.ar    1  LIG1       -0.0042
     20 C           2.0130   -4.3130    0.0000 C.ar    1  LIG1       -0.0003
     21 C           3.0130   -4.3130    0.0000 C.ar    1  LIG1       -0.0000
     22 C           3.5080   -3.4420    0.0000 C.ar    1  LIG1       -0.0003
     23 C           3.0040   -2.5880    0.0000 C.ar    1  LIG1       -0.0042
     24 C           1.0130    0.8670    0.0000 C.ar    1  LIG1        0.1267
     25 C           2.0130    0.8750    0.0000 C.ar    1  LIG1        0.0591
     26 C           2.5170    1.7380    0.0000 C.ar    1  LIG1        0.1673
     27 O           3.4960    1.9420    0.0000 O.2     1  LIG1       -0.4067
     28 C           3.5960    2.9380    0.0000 C.ar    1  LIG1        0.4220
     29 N           2.6880    3.3500    0.0000 N.ar    1  LIG1       -0.2601
     30 C           2.0170    2.6040    0.0000 C.ar    1  LIG1        0.1001
     31 C           1.0130    2.6040    0.0000 C.ar    1  LIG1        0.0218
     32 C           0.5080    1.7380    0.0000 C.ar    1  LIG1        0.0216
     33 C           2.4790    4.3130    0.0000 C.3     1  LIG1        0.1369
     34 O           4.4670    3.4330    0.0000 O.2     1  LIG1       -0.2226
     35 O           1.3920   -0.5130    0.0000 O.2     1  LIG1       -0.1516
     36 O          -0.3670    0.4960    0.0000 O.2     1  LIG1       -0.1516
@<TRIPOS>BOND
     1     1     2    1
     2     1    24    1
     3     1    35    2
     4     1    36    2
     5     2     3    1
     6     3     4    1
     7     3    17    1
     8     4     5   am
     9     4    16    2
    10     5     6    1
    11     6     7   ar
    12     6    15   ar
    13     7     8   ar
    14     8     9   ar
    15     9    10    1
    16     9    14   ar
    17    10    11   am
    18    11    12    2
    19    11    13    1
    20    14    15   ar
    21    17    18    1
    22    18    19   ar
    23    18    23   ar
    24    19    20   ar
    25    20    21   ar
    26    21    22   ar
    27    22    23   ar
    28    24    25   ar
    29    24    32   ar
    30    25    26   ar
    31    26    27   ar
    32    26    30   ar
    33    27    28   ar
    34    28    29   ar
    35    28    34    2
    36    29    30   ar
    37    29    33    1
    38    30    31   ar
    39    31    32   ar
