@<TRIPOS>MOLECULE
24676_ChemDiv_D240-0077
 32 35 0 0 0
SMALL
GASTEIGER
Energy = 0

@<TRIPOS>ATOM
      1 S           0.8630   -0.4960    0.0000 S.O2    1  LIG1        0.0826
      2 N           1.7290    0.0000    0.0000 N.am    1  LIG1       -0.1341
      3 C           2.5960   -0.4960    0.0000 C.2     1  LIG1        0.2714
      4 C           2.5960   -1.4960    0.0000 C.ar    1  LIG1        0.0554
      5 C           1.7420   -1.9960    0.0000 C.ar    1  LIG1        0.0043
      6 C           1.7420   -2.9960    0.0000 C.ar    1  LIG1       -0.0041
      7 C           2.5960   -3.4960    0.0000 C.ar    1  LIG1       -0.0218
      8 C           3.4630   -2.9960    0.0000 C.ar    1  LIG1       -0.0041
      9 C           3.4630   -1.9960    0.0000 C.ar    1  LIG1        0.0043
     10 C           2.5960   -4.4960    0.0000 C.3     1  LIG1        0.0310
     11 O           3.4630    0.0000    0.0000 O.2     1  LIG1       -0.2680
     12 C           1.7290    1.0000    0.0000 C.ar    1  LIG1        0.0770
     13 C           2.5960    1.5000    0.0000 C.ar    1  LIG1        0.0198
     14 C           2.5960    2.5000    0.0000 C.ar    1  LIG1        0.0382
     15 C           1.7290    3.0000    0.0000 C.ar    1  LIG1        0.1388
     16 C           0.8750    2.5000    0.0000 C.ar    1  LIG1        0.0382
     17 C           0.8750    1.5000    0.0000 C.ar    1  LIG1        0.0198
     18 O           1.7290    4.0000    0.0000 O.3     1  LIG1       -0.4714
     19 C           0.8750    4.4960    0.0000 C.3     1  LIG1        0.2525
     20 C          -0.0080   -1.0080    0.0000 C.ar    1  LIG1        0.1290
     21 C          -0.0080   -2.0130    0.0000 C.ar    1  LIG1        0.0593
     22 C          -0.8830   -2.5080    0.0000 C.ar    1  LIG1        0.1674
     23 O          -1.0830   -3.4920    0.0000 O.2     1  LIG1       -0.4067
     24 C          -2.0830   -3.5920    0.0000 C.ar    1  LIG1        0.4220
     25 N          -2.4750   -2.6790    0.0000 N.ar    1  LIG1       -0.2601
     26 C          -1.7330   -2.0080    0.0000 C.ar    1  LIG1        0.1001
     27 C          -1.7330   -1.0080    0.0000 C.ar    1  LIG1        0.0218
     28 C          -0.8830   -0.5080    0.0000 C.ar    1  LIG1        0.0219
     29 C          -3.4670   -2.4790    0.0000 C.3     1  LIG1        0.1369
     30 O          -2.6000   -4.4630    0.0000 O.2     1  LIG1       -0.2226
     31 O           0.3580    0.3710    0.0000 O.2     1  LIG1       -0.1493
     32 O           1.3630   -1.3750    0.0000 O.2     1  LIG1       -0.1493
@<TRIPOS>BOND
     1     1     2    1
     2     1    20    1
     3     1    31    2
     4     1    32    2
     5     2     3   am
     6     2    12    1
     7     3     4    1
     8     3    11    2
     9     4     5   ar
    10     4     9   ar
    11     5     6   ar
    12     6     7   ar
    13     7     8   ar
    14     7    10    1
    15     8     9   ar
    16    12    13   ar
    17    12    17   ar
    18    13    14   ar
    19    14    15   ar
    20    15    16   ar
    21    15    18    1
    22    16    17   ar
    23    18    19    1
    24    20    21   ar
    25    20    28   ar
    26    21    22   ar
    27    22    23   ar
    28    22    26   ar
    29    23    24   ar
    30    24    25   ar
    31    24    30    2
    32    25    26   ar
    33    25    29    1
    34    26    27   ar
    35    27    28   ar
