@<TRIPOS>MOLECULE
24684_ChemDiv_K906-1927
 34 36 0 0 0
SMALL
GASTEIGER
Energy = 0

@<TRIPOS>ATOM
      1 S          -0.2960   -0.8670    0.0000 S.O2    1  LIG1        0.0773
      2 N           0.7000   -0.8670    0.0000 N.3     1  LIG1       -0.0699
      3 C           1.2000   -1.7250    0.0000 C.3     1  LIG1        0.1763
      4 C           2.2080   -1.7250    0.0000 C.2     1  LIG1        0.2633
      5 N           2.7080   -0.8670    0.0000 N.am    1  LIG1       -0.1780
      6 C           2.2080    0.0000    0.0000 C.ar    1  LIG1        0.0736
      7 C           2.7080    0.8630    0.0000 C.ar    1  LIG1        0.0230
      8 C           2.2080    1.7330    0.0000 C.ar    1  LIG1        0.0769
      9 C           2.7130    2.6000    0.0000 C.2     1  LIG1        0.3412
     10 O           2.2080    3.4670    0.0000 O.2     1  LIG1       -0.2449
     11 O           3.7210    2.6000    0.0000 O.3     1  LIG1       -0.4454
     12 C           4.2170    1.7330    0.0000 C.3     1  LIG1        0.2089
     13 C           5.2250    1.7330    0.0000 C.3     1  LIG1        0.0513
     14 C           1.2000    1.7330    0.0000 C.ar    1  LIG1        0.0065
     15 C           0.7000    0.8630    0.0000 C.ar    1  LIG1        0.0015
     16 C           1.2000    0.0000    0.0000 C.ar    1  LIG1        0.0166
     17 O           2.7080   -2.5920    0.0000 O.2     1  LIG1       -0.2714
     18 C           0.7000   -2.6000    0.0000 C.3     1  LIG1        0.0404
     19 C          -0.2960   -2.6000    0.0000 C.3     1  LIG1        0.0596
     20 S          -0.8000   -3.4630    0.0000 S.3     1  LIG1       -0.1393
     21 C          -1.8000   -3.4630    0.0000 C.3     1  LIG1        0.0692
     22 C          -1.3000   -0.8670    0.0000 C.ar    1  LIG1        0.1267
     23 C          -1.7960   -0.0040    0.0000 C.ar    1  LIG1        0.0591
     24 C          -2.7960   -0.0040    0.0000 C.ar    1  LIG1        0.1673
     25 O          -3.4750    0.7330    0.0000 O.2     1  LIG1       -0.4067
     26 C          -4.3670    0.3380    0.0000 C.ar    1  LIG1        0.4220
     27 N          -4.2790   -0.6500    0.0000 N.ar    1  LIG1       -0.2601
     28 C          -3.2920   -0.8670    0.0000 C.ar    1  LIG1        0.1001
     29 C          -2.7960   -1.7380    0.0000 C.ar    1  LIG1        0.0218
     30 C          -1.7960   -1.7380    0.0000 C.ar    1  LIG1        0.0216
     31 C          -5.0170   -1.3170    0.0000 C.3     1  LIG1        0.1369
     32 O          -5.2290    0.8580    0.0000 O.2     1  LIG1       -0.2226
     33 O          -0.2960   -1.8670    0.0000 O.2     1  LIG1       -0.1516
     34 O          -0.2960    0.1290    0.0000 O.2     1  LIG1       -0.1516
@<TRIPOS>BOND
     1     1     2    1
     2     1    22    1
     3     1    33    2
     4     1    34    2
     5     2     3    1
     6     3     4    1
     7     3    18    1
     8     4     5   am
     9     4    17    2
    10     5     6    1
    11     6     7   ar
    12     6    16   ar
    13     7     8   ar
    14     8     9    1
    15     8    14   ar
    16     9    10    2
    17     9    11    1
    18    11    12    1
    19    12    13    1
    20    14    15   ar
    21    15    16   ar
    22    18    19    1
    23    19    20    1
    24    20    21    1
    25    22    23   ar
    26    22    30   ar
    27    23    24   ar
    28    24    25   ar
    29    24    28   ar
    30    25    26   ar
    31    26    27   ar
    32    26    32    2
    33    27    28   ar
    34    27    31    1
    35    28    29   ar
    36    29    30   ar
