@<TRIPOS>MOLECULE
24689_ChemDiv_2054-0832
 28 32 0 0 0
SMALL
GASTEIGER
Energy = 0

@<TRIPOS>ATOM
      1 N           1.1380   -0.2920    0.0000 N.am    1  LIG1       -0.2264
      2 C           0.5790    0.6000    0.0000 C.2     1  LIG1        0.2322
      3 C          -0.2330    0.4500    0.0000 C.3     1  LIG1        0.0944
      4 C          -0.3460   -0.2710    0.0000 C.3     1  LIG1        0.0944
      5 C           0.2630   -0.9080    0.0000 C.2     1  LIG1        0.2322
      6 O           0.3540   -1.8790    0.0000 O.2     1  LIG1       -0.2744
      7 C          -2.7080   -0.4170    0.0000 C.3     1  LIG1        0.0530
      8 C          -2.7830    0.5290    0.0000 C.ar    1  LIG1       -0.0216
      9 C          -2.0170    1.0880    0.0000 C.ar    1  LIG1       -0.0216
     10 C          -0.9920    0.4960    0.0000 C.3     1  LIG1        0.0530
     11 C          -1.0540   -0.5170    0.0000 C.ar    1  LIG1       -0.0216
     12 C          -1.9210   -0.9420    0.0000 C.ar    1  LIG1       -0.0216
     13 C          -1.9670   -1.8790    0.0000 C.ar    1  LIG1       -0.0042
     14 C          -1.1750   -2.3960    0.0000 C.ar    1  LIG1       -0.0003
     15 C          -0.3330   -1.9750    0.0000 C.ar    1  LIG1       -0.0003
     16 C          -0.2880   -1.0330    0.0000 C.ar    1  LIG1       -0.0042
     17 C          -2.1210    2.0000    0.0000 C.ar    1  LIG1       -0.0042
     18 C          -2.9540    2.4000    0.0000 C.ar    1  LIG1       -0.0003
     19 C          -3.7540    1.8580    0.0000 C.ar    1  LIG1       -0.0003
     20 C          -3.6500    0.9130    0.0000 C.ar    1  LIG1       -0.0042
     21 O           1.0290    1.4420    0.0000 O.2     1  LIG1       -0.2744
     22 C           2.1000   -0.4710    0.0000 C.3     1  LIG1        0.1185
     23 C           2.7460    0.2960    0.0000 C.2     1  LIG1        0.0688
     24 O           2.4380    1.2540    0.0000 O.co2   1  LIG1       -0.5475
     25 O           3.7500    0.1630    0.0000 O.co2   1  LIG1       -0.5475
     26 C           2.4250   -1.4040    0.0000 C.3     1  LIG1        0.0240
     27 C           3.4000   -1.5920    0.0000 C.3     1  LIG1        0.0021
     28 C           1.7750   -2.1630    0.0000 C.3     1  LIG1        0.0021
@<TRIPOS>BOND
     1     1     2   am
     2     1     5   am
     3     1    22    1
     4     2     3    1
     5     2    21    2
     6     3     4    1
     7     3    10    1
     8     4     5    1
     9     4     7    1
    10     5     6    2
    11     7     8    1
    12     7    12    1
    13     8     9   ar
    14     8    20   ar
    15     9    10    1
    16     9    17   ar
    17    10    11    1
    18    11    12   ar
    19    11    16   ar
    20    12    13   ar
    21    13    14   ar
    22    14    15   ar
    23    15    16   ar
    24    17    18   ar
    25    18    19   ar
    26    19    20   ar
    27    22    23    1
    28    22    26    1
    29    23    24   ar
    30    23    25   ar
    31    26    27    1
    32    26    28    1
