@<TRIPOS>MOLECULE
24680_ChemDiv_D240-0101
 29 31 0 0 0
SMALL
GASTEIGER
Energy = 0

@<TRIPOS>ATOM
      1 S           1.4460    0.2040    0.0000 S.O2    1  LIG1        0.0824
      2 N           1.1960    1.1710    0.0000 N.am    1  LIG1       -0.1376
      3 C           1.9170    1.8750    0.0000 C.2     1  LIG1        0.2480
      4 O           2.8670    1.6080    0.0000 O.2     1  LIG1       -0.2730
      5 C           1.6670    2.8460    0.0000 C.3     1  LIG1        0.0872
      6 C           2.3830    3.5380    0.0000 C.3     1  LIG1        0.0096
      7 C           2.1330    4.4960    0.0000 C.3     1  LIG1        0.0005
      8 C           0.2420    1.4420    0.0000 C.ar    1  LIG1        0.0767
      9 C           0.0040    2.4000    0.0000 C.ar    1  LIG1        0.0197
     10 C          -0.9630    2.6790    0.0000 C.ar    1  LIG1        0.0382
     11 C          -1.6880    1.9750    0.0000 C.ar    1  LIG1        0.1386
     12 C          -1.4290    1.0040    0.0000 C.ar    1  LIG1        0.0382
     13 C          -0.4750    0.7380    0.0000 C.ar    1  LIG1        0.0197
     14 O          -2.6670    2.2500    0.0000 O.3     1  LIG1       -0.4755
     15 C          -3.3750    1.5460    0.0000 C.3     1  LIG1        0.2055
     16 C          -4.3380    1.8130    0.0000 C.3     1  LIG1        0.0512
     17 C           1.7080   -0.7830    0.0000 C.ar    1  LIG1        0.1290
     18 C           2.6670   -1.0500    0.0000 C.ar    1  LIG1        0.0593
     19 C           2.9290   -2.0040    0.0000 C.ar    1  LIG1        0.1674
     20 O           3.8040   -2.4540    0.0000 O.2     1  LIG1       -0.4067
     21 C           3.6500   -3.4580    0.0000 C.ar    1  LIG1        0.4220
     22 N           2.6670   -3.5920    0.0000 N.ar    1  LIG1       -0.2601
     23 C           2.2170   -2.7170    0.0000 C.ar    1  LIG1        0.1001
     24 C           1.2630   -2.4540    0.0000 C.ar    1  LIG1        0.0218
     25 C           0.9960   -1.4960    0.0000 C.ar    1  LIG1        0.0219
     26 C           2.2130   -4.4960    0.0000 C.3     1  LIG1        0.1369
     27 O           4.3330   -4.1790    0.0000 O.2     1  LIG1       -0.2226
     28 O           2.4290    0.4540    0.0000 O.2     1  LIG1       -0.1493
     29 O           0.4790   -0.0500    0.0000 O.2     1  LIG1       -0.1493
@<TRIPOS>BOND
     1     1     2    1
     2     1    17    1
     3     1    28    2
     4     1    29    2
     5     2     3   am
     6     2     8    1
     7     3     4    2
     8     3     5    1
     9     5     6    1
    10     6     7    1
    11     8     9   ar
    12     8    13   ar
    13     9    10   ar
    14    10    11   ar
    15    11    12   ar
    16    11    14    1
    17    12    13   ar
    18    14    15    1
    19    15    16    1
    20    17    18   ar
    21    17    25   ar
    22    18    19   ar
    23    19    20   ar
    24    19    23   ar
    25    20    21   ar
    26    21    22   ar
    27    21    27    2
    28    22    23   ar
    29    22    26    1
    30    23    24   ar
    31    24    25   ar
