@<TRIPOS>MOLECULE
24687_ChemDiv_1037-1134
 24 28 0 0 0
SMALL
GASTEIGER
Energy = 0

@<TRIPOS>ATOM
      1 C          -0.1290   -1.8750    0.0000 C.ar    1  LIG1        0.2298
      2 N           0.4580   -1.0630    0.0000 N.ar    1  LIG1       -0.2083
      3 C           1.4080   -1.3540    0.0000 C.ar    1  LIG1        0.1189
      4 C           1.4080   -2.3380    0.0000 C.ar    1  LIG1        0.1647
      5 O           0.4580   -2.6420    0.0000 O.2     1  LIG1       -0.4346
      6 C           2.2380   -2.8580    0.0000 C.ar    1  LIG1        0.0391
      7 C           3.1500   -2.3380    0.0000 C.ar    1  LIG1        0.0032
      8 C           3.1500   -1.3540    0.0000 C.ar    1  LIG1        0.0018
      9 C           2.2380   -0.8500    0.0000 C.ar    1  LIG1        0.0223
     10 C          -1.0630   -1.8750    0.0000 C.ar    1  LIG1        0.0581
     11 C          -1.6080   -1.0460    0.0000 C.ar    1  LIG1        0.0581
     12 C          -1.1000   -0.2130    0.0000 C.ar    1  LIG1        0.2298
     13 N          -1.4710    0.7040    0.0000 N.ar    1  LIG1       -0.2083
     14 C          -0.7500    1.3750    0.0000 C.ar    1  LIG1        0.1189
     15 C           0.1000    0.8710    0.0000 C.ar    1  LIG1        0.1647
     16 O          -0.1040   -0.1290    0.0000 O.2     1  LIG1       -0.4346
     17 C           0.9830    1.3500    0.0000 C.ar    1  LIG1        0.0391
     18 C           0.9920    2.3420    0.0000 C.ar    1  LIG1        0.0032
     19 C           0.1420    2.8630    0.0000 C.ar    1  LIG1        0.0018
     20 C          -0.7210    2.3750    0.0000 C.ar    1  LIG1        0.0223
     21 C          -2.6500   -1.0460    0.0000 C.ar    1  LIG1        0.0048
     22 C          -3.1540   -1.8580    0.0000 C.ar    1  LIG1        0.0002
     23 C          -2.6040   -2.7880    0.0000 C.ar    1  LIG1        0.0002
     24 C          -1.5880   -2.7880    0.0000 C.ar    1  LIG1        0.0048
@<TRIPOS>BOND
     1     1     2   ar
     2     1     5   ar
     3     1    10    1
     4     2     3   ar
     5     3     4   ar
     6     3     9   ar
     7     4     5   ar
     8     4     6   ar
     9     6     7   ar
    10     7     8   ar
    11     8     9   ar
    12    10    11   ar
    13    10    24   ar
    14    11    12    1
    15    11    21   ar
    16    12    13   ar
    17    12    16   ar
    18    13    14   ar
    19    14    15   ar
    20    14    20   ar
    21    15    16   ar
    22    15    17   ar
    23    17    18   ar
    24    18    19   ar
    25    19    20   ar
    26    21    22   ar
    27    22    23   ar
    28    23    24   ar
