@<TRIPOS>MOLECULE
24683_ChemDiv_0478-0607
 17 19 0 0 0
SMALL
GASTEIGER
Energy = 0

@<TRIPOS>ATOM
      1 C          -0.3580    0.3460    0.0000 C.ar    1  LIG1        0.2305
      2 N          -0.9500    1.1380    0.0000 N.ar    1  LIG1       -0.2082
      3 C          -1.9040    0.8290    0.0000 C.ar    1  LIG1        0.1189
      4 C          -1.9040   -0.1710    0.0000 C.ar    1  LIG1        0.1647
      5 O          -0.9500   -0.4790    0.0000 O.2     1  LIG1       -0.4346
      6 C          -2.7500   -0.6750    0.0000 C.ar    1  LIG1        0.0391
      7 C          -3.6210   -0.1710    0.0000 C.ar    1  LIG1        0.0032
      8 C          -3.6210    0.8290    0.0000 C.ar    1  LIG1        0.0018
      9 C          -2.7500    1.3250    0.0000 C.ar    1  LIG1        0.0223
     10 C           0.6210    0.3920    0.0000 C.ar    1  LIG1        0.0642
     11 C           1.1670   -0.4380    0.0000 C.ar    1  LIG1        0.0630
     12 C           2.1630   -0.3880    0.0000 C.ar    1  LIG1        0.0229
     13 C           2.6210    0.5000    0.0000 C.ar    1  LIG1        0.0585
     14 C           2.0750    1.3540    0.0000 C.ar    1  LIG1        0.0116
     15 C           1.0750    1.3040    0.0000 C.ar    1  LIG1        0.0064
     16 CL          3.6170    0.5250    0.0000 Cl      1  LIG1       -0.0822
     17 CL          0.7080   -1.3500    0.0000 Cl      1  LIG1       -0.0821
@<TRIPOS>BOND
     1     1     2   ar
     2     1     5   ar
     3     1    10    1
     4     2     3   ar
     5     3     4   ar
     6     3     9   ar
     7     4     5   ar
     8     4     6   ar
     9     6     7   ar
    10     7     8   ar
    11     8     9   ar
    12    10    11   ar
    13    10    15   ar
    14    11    12   ar
    15    11    17    1
    16    12    13   ar
    17    13    14   ar
    18    13    16    1
    19    14    15   ar
