@<TRIPOS>MOLECULE
24682_ChemDiv_K906-1852
 36 39 0 0 0
SMALL
GASTEIGER
Energy = 0

@<TRIPOS>ATOM
      1 S           0.2130   -2.9540    0.0000 S.O2    1  LIG1        0.0773
      2 N           1.2130   -2.9540    0.0000 N.3     1  LIG1       -0.0699
      3 C           1.7080   -2.0960    0.0000 C.3     1  LIG1        0.1745
      4 C           1.2130   -1.2290    0.0000 C.2     1  LIG1        0.2435
      5 N           1.7080   -0.3670    0.0000 N.am    1  LIG1       -0.2749
      6 C           2.7130   -0.3670    0.0000 C.3     1  LIG1        0.1149
      7 C           3.2130    0.4960    0.0000 C.3     1  LIG1        0.1124
      8 N           2.7130    1.3670    0.0000 N.pl3   1  LIG1       -0.3017
      9 C           3.2130    2.2330    0.0000 C.ar    1  LIG1        0.0824
     10 C           4.2170    2.2330    0.0000 C.ar    1  LIG1        0.1519
     11 O           4.7290    1.3630    0.0000 O.3     1  LIG1       -0.4702
     12 C           4.2330    0.4830    0.0000 C.3     1  LIG1        0.2525
     13 C           4.7130    3.0920    0.0000 C.ar    1  LIG1        0.0382
     14 C           4.2170    3.9580    0.0000 C.ar    1  LIG1        0.0032
     15 C           3.2130    3.9580    0.0000 C.ar    1  LIG1        0.0015
     16 C           2.7130    3.0920    0.0000 C.ar    1  LIG1        0.0176
     17 C           1.7080    1.3670    0.0000 C.3     1  LIG1        0.1124
     18 C           1.2130    0.5040    0.0000 C.3     1  LIG1        0.1149
     19 O           0.2080   -1.2290    0.0000 O.2     1  LIG1       -0.2733
     20 C           2.7130   -2.0960    0.0000 C.3     1  LIG1        0.0403
     21 C           3.2130   -1.2290    0.0000 C.3     1  LIG1        0.0596
     22 S           4.2170   -1.2290    0.0000 S.3     1  LIG1       -0.1393
     23 C           4.7130   -0.3670    0.0000 C.3     1  LIG1        0.0692
     24 C          -0.7830   -2.9540    0.0000 C.ar    1  LIG1        0.1267
     25 C          -1.2830   -2.0960    0.0000 C.ar    1  LIG1        0.0591
     26 C          -2.2880   -2.0960    0.0000 C.ar    1  LIG1        0.1673
     27 O          -2.9630   -1.3500    0.0000 O.2     1  LIG1       -0.4067
     28 C          -3.8630   -1.7580    0.0000 C.ar    1  LIG1        0.4220
     29 N          -3.7630   -2.7460    0.0000 N.ar    1  LIG1       -0.2601
     30 C          -2.7830   -2.9540    0.0000 C.ar    1  LIG1        0.1001
     31 C          -2.2880   -3.8210    0.0000 C.ar    1  LIG1        0.0218
     32 C          -1.2830   -3.8210    0.0000 C.ar    1  LIG1        0.0216
     33 C          -4.5130   -3.4040    0.0000 C.3     1  LIG1        0.1369
     34 O          -4.7330   -1.2500    0.0000 O.2     1  LIG1       -0.2226
     35 O           0.2130   -3.9540    0.0000 O.2     1  LIG1       -0.1516
     36 O           0.2130   -1.9580    0.0000 O.2     1  LIG1       -0.1516
@<TRIPOS>BOND
     1     1     2    1
     2     1    24    1
     3     1    35    2
     4     1    36    2
     5     2     3    1
     6     3     4    1
     7     3    20    1
     8     4     5   am
     9     4    19    2
    10     5     6    1
    11     5    18    1
    12     6     7    1
    13     7     8    1
    14     8     9    1
    15     8    17    1
    16     9    10   ar
    17     9    16   ar
    18    10    11    1
    19    10    13   ar
    20    11    12    1
    21    13    14   ar
    22    14    15   ar
    23    15    16   ar
    24    17    18    1
    25    20    21    1
    26    21    22    1
    27    22    23    1
    28    24    25   ar
    29    24    32   ar
    30    25    26   ar
    31    26    27   ar
    32    26    30   ar
    33    27    28   ar
    34    28    29   ar
    35    28    34    2
    36    29    30   ar
    37    29    33    1
    38    30    31   ar
    39    31    32   ar
