@<TRIPOS>MOLECULE
24686_ChemDiv_K906-4556
 22 24 0 0 0
SMALL
GASTEIGER
Energy = 0

@<TRIPOS>ATOM
      1 S           1.6880    1.5000    0.0000 S.O2    1  LIG1       -0.0577
      2 C           0.8170    2.0000    0.0000 C.ar    1  LIG1        0.0910
      3 C          -0.0540    1.5000    0.0000 C.ar    1  LIG1        0.0392
      4 C          -0.9170    2.0000    0.0000 C.ar    1  LIG1        0.1198
      5 N          -1.8630    1.7000    0.0000 N.ar    1  LIG1       -0.2120
      6 C          -2.4500    2.5080    0.0000 C.ar    1  LIG1        0.2062
      7 O          -1.8630    3.3080    0.0000 O.2     1  LIG1       -0.4384
      8 C          -0.9170    3.0000    0.0000 C.ar    1  LIG1        0.1644
      9 C          -0.0540    3.5000    0.0000 C.ar    1  LIG1        0.0404
     10 C           0.8170    3.0000    0.0000 C.ar    1  LIG1        0.0201
     11 C          -3.4500    2.5170    0.0000 C.3     1  LIG1        0.0950
     12 N           2.5670    1.0000    0.0000 N.pl3   1  LIG1       -0.5358
     13 C           2.5670    0.0040    0.0000 C.ar    1  LIG1       -0.1121
     14 C           3.4290   -0.4960    0.0000 C.ar    1  LIG1       -0.0207
     15 C           3.4290   -1.4960    0.0000 C.ar    1  LIG1        0.0350
     16 C           2.5670   -1.9960    0.0000 C.ar    1  LIG1        0.1386
     17 C           1.7000   -1.4960    0.0000 C.ar    1  LIG1        0.0350
     18 C           1.7000   -0.4960    0.0000 C.ar    1  LIG1       -0.0207
     19 O           2.5790   -2.9960    0.0000 O.3     1  LIG1       -0.4714
     20 C           3.4460   -3.4960    0.0000 C.3     1  LIG1        0.2525
     21 O           2.1880    2.3790    0.0000 O.2     1  LIG1       -0.1842
     22 O           1.1880    0.6290    0.0000 O.2     1  LIG1       -0.1842
@<TRIPOS>BOND
     1     1     2    1
     2     1    12    1
     3     1    21    2
     4     1    22    2
     5     2     3   ar
     6     2    10   ar
     7     3     4   ar
     8     4     5   ar
     9     4     8   ar
    10     5     6   ar
    11     6     7   ar
    12     6    11    1
    13     7     8   ar
    14     8     9   ar
    15     9    10   ar
    16    12    13    1
    17    13    14   ar
    18    13    18   ar
    19    14    15   ar
    20    15    16   ar
    21    16    17   ar
    22    16    19    1
    23    17    18   ar
    24    19    20    1
