@<TRIPOS>MOLECULE
24681_ChemDiv_0087-0048
 19 22 0 0 0
SMALL
GASTEIGER
Energy = 0

@<TRIPOS>ATOM
      1 C          -0.6460    0.1170    0.0000 C.ar    1  LIG1        0.2477
      2 N          -0.6460    0.8880    0.0000 N.ar    1  LIG1       -0.2070
      3 C          -2.1830    1.0000    0.0000 C.ar    1  LIG1        0.1189
      4 C          -2.1830    0.0130    0.0000 C.ar    1  LIG1        0.1648
      5 O          -1.4170   -0.3880    0.0000 O.2     1  LIG1       -0.4333
      6 C          -3.0330   -0.4790    0.0000 C.ar    1  LIG1        0.0391
      7 C          -3.8880    0.0130    0.0000 C.ar    1  LIG1        0.0032
      8 C          -3.8880    1.0000    0.0000 C.ar    1  LIG1        0.0018
      9 C          -3.0330    1.4960    0.0000 C.ar    1  LIG1        0.0223
     10 C           0.2880   -0.1960    0.0000 C.ar    1  LIG1        0.1346
     11 N           1.0380    0.4540    0.0000 N.ar    1  LIG1       -0.2406
     12 C           1.9880    0.1250    0.0000 C.ar    1  LIG1        0.0814
     13 C           2.1830   -0.8420    0.0000 C.ar    1  LIG1        0.0177
     14 C           1.4250   -1.4920    0.0000 C.ar    1  LIG1        0.0032
     15 C           0.4670   -1.1750    0.0000 C.ar    1  LIG1        0.0239
     16 C           3.1290   -1.1460    0.0000 C.ar    1  LIG1        0.0015
     17 C           3.8830   -0.4920    0.0000 C.ar    1  LIG1        0.0001
     18 C           3.6710    0.4960    0.0000 C.ar    1  LIG1        0.0015
     19 C           2.7210    0.8250    0.0000 C.ar    1  LIG1        0.0191
@<TRIPOS>BOND
     1     1     2   ar
     2     1     5   ar
     3     1    10    1
     4     2     3   ar
     5     3     4   ar
     6     3     9   ar
     7     4     5   ar
     8     4     6   ar
     9     6     7   ar
    10     7     8   ar
    11     8     9   ar
    12    10    11   ar
    13    10    15   ar
    14    11    12   ar
    15    12    13   ar
    16    12    19   ar
    17    13    14   ar
    18    13    16   ar
    19    14    15   ar
    20    16    17   ar
    21    17    18   ar
    22    18    19   ar
