@<TRIPOS>MOLECULE
24699_ChemDiv_3359-0240
 34 39 0 0 0
SMALL
GASTEIGER
Energy = 0

@<TRIPOS>ATOM
      1 N           1.4250    0.0170    0.0000 N.am    1  LIG1       -0.2228
      2 C           0.9080   -0.7080    0.0000 C.2     1  LIG1        0.2323
      3 C           0.0630   -0.4330    0.0000 C.3     1  LIG1        0.0944
      4 C           0.0630    0.4540    0.0000 C.3     1  LIG1        0.0944
      5 C           0.9080    0.7170    0.0000 C.2     1  LIG1        0.2323
      6 O           1.1830    1.5630    0.0000 O.2     1  LIG1       -0.2744
      7 C          -3.1170    0.8210    0.0000 C.3     1  LIG1        0.0530
      8 C          -3.8750    0.3710    0.0000 C.ar    1  LIG1       -0.0216
      9 C          -3.8750   -0.4960    0.0000 C.ar    1  LIG1       -0.0216
     10 C          -3.0920   -0.9380    0.0000 C.3     1  LIG1        0.0530
     11 C          -2.3460   -0.4960    0.0000 C.ar    1  LIG1       -0.0216
     12 C          -2.3460    0.3790    0.0000 C.ar    1  LIG1       -0.0216
     13 C          -1.5960    0.8330    0.0000 C.ar    1  LIG1       -0.0042
     14 C          -0.8460    0.3960    0.0000 C.ar    1  LIG1       -0.0003
     15 C          -0.8330   -0.4920    0.0000 C.ar    1  LIG1       -0.0003
     16 C          -1.5790   -0.9210    0.0000 C.ar    1  LIG1       -0.0042
     17 C          -4.6330   -0.9380    0.0000 C.ar    1  LIG1       -0.0042
     18 C          -5.3880   -0.5130    0.0000 C.ar    1  LIG1       -0.0003
     19 C          -5.3960    0.3710    0.0000 C.ar    1  LIG1       -0.0003
     20 C          -4.6330    0.8210    0.0000 C.ar    1  LIG1       -0.0042
     21 O           1.1830   -1.5580    0.0000 O.2     1  LIG1       -0.2744
     22 C           2.3000    0.0330    0.0000 C.3     1  LIG1        0.1594
     23 C           2.7540   -0.7420    0.0000 C.2     1  LIG1        0.2442
     24 N           3.6330   -0.7420    0.0000 N.am    1  LIG1       -0.2782
     25 C           4.0710   -1.5080    0.0000 C.3     1  LIG1        0.0934
     26 C           4.9630   -1.5080    0.0000 C.3     1  LIG1        0.0216
     27 C           5.3920   -0.7420    0.0000 C.3     1  LIG1        0.0035
     28 C           4.9630    0.0170    0.0000 C.3     1  LIG1        0.0216
     29 C           4.0710    0.0170    0.0000 C.3     1  LIG1        0.0934
     30 O           2.1210   -1.3630    0.0000 O.2     1  LIG1       -0.2731
     31 C           2.7540    0.7790    0.0000 C.3     1  LIG1        0.0413
     32 C           3.6500    0.7790    0.0000 C.3     1  LIG1        0.0598
     33 S           4.1000    1.5460    0.0000 S.3     1  LIG1       -0.1393
     34 C           4.9790    1.5460    0.0000 C.3     1  LIG1        0.0692
@<TRIPOS>BOND
     1     1     2   am
     2     1     5   am
     3     1    22    1
     4     2     3    1
     5     2    21    2
     6     3     4    1
     7     3    10    1
     8     4     5    1
     9     4     7    1
    10     5     6    2
    11     7     8    1
    12     7    12    1
    13     8     9   ar
    14     8    20   ar
    15     9    10    1
    16     9    17   ar
    17    10    11    1
    18    11    12   ar
    19    11    16   ar
    20    12    13   ar
    21    13    14   ar
    22    14    15   ar
    23    15    16   ar
    24    17    18   ar
    25    18    19   ar
    26    19    20   ar
    27    22    23    1
    28    22    31    1
    29    23    24   am
    30    23    30    2
    31    24    25    1
    32    24    29    1
    33    25    26    1
    34    26    27    1
    35    27    28    1
    36    28    29    1
    37    31    32    1
    38    32    33    1
    39    33    34    1
