@<TRIPOS>MOLECULE
24692_ChemDiv_2201-0008
 19 20 0 0 0
SMALL
GASTEIGER
Energy = 0

@<TRIPOS>ATOM
      1 C           4.2670   -0.4210    0.0000 C.2     1  LIG1        0.0729
      2 C           3.2710   -0.4210    0.0000 C.ar    1  LIG1        0.0140
      3 C           2.7540   -1.2880    0.0000 C.ar    1  LIG1        0.0009
      4 C           1.7630   -1.2880    0.0000 C.ar    1  LIG1       -0.0007
      5 C           1.2540   -0.4210    0.0000 C.ar    1  LIG1        0.0212
      6 C           0.2630   -0.4210    0.0000 C.3     1  LIG1        0.2320
      7 O          -0.2540    0.4380    0.0000 O.3     1  LIG1       -0.4706
      8 C          -1.2790    0.4380    0.0000 C.ar    1  LIG1        0.1393
      9 C          -1.7540   -0.4210    0.0000 C.ar    1  LIG1        0.0400
     10 C          -2.7790   -0.4210    0.0000 C.ar    1  LIG1        0.0400
     11 C          -3.2630    0.4380    0.0000 C.ar    1  LIG1        0.1389
     12 C          -2.7790    1.2920    0.0000 C.ar    1  LIG1        0.0400
     13 C          -1.7540    1.2920    0.0000 C.ar    1  LIG1        0.0400
     14 O          -4.2880    0.4380    0.0000 O.3     1  LIG1       -0.4714
     15 C          -4.7750   -0.4210    0.0000 C.3     1  LIG1        0.2525
     16 C           1.7630    0.4380    0.0000 C.ar    1  LIG1       -0.0007
     17 C           2.7540    0.4380    0.0000 C.ar    1  LIG1        0.0009
     18 O           4.7710    0.4380    0.0000 O.co2   1  LIG1       -0.5446
     19 O           4.7710   -1.2880    0.0000 O.co2   1  LIG1       -0.5446
@<TRIPOS>BOND
     1     1     2    1
     2     1    18   ar
     3     1    19   ar
     4     2     3   ar
     5     2    17   ar
     6     3     4   ar
     7     4     5   ar
     8     5     6    1
     9     5    16   ar
    10     6     7    1
    11     7     8    1
    12     8     9   ar
    13     8    13   ar
    14     9    10   ar
    15    10    11   ar
    16    11    12   ar
    17    11    14    1
    18    12    13   ar
    19    14    15    1
    20    16    17   ar
