@<TRIPOS>MOLECULE
24693_ChemDiv_3089-0251
 26 30 0 0 0
SMALL
GASTEIGER
Energy = 0

@<TRIPOS>ATOM
      1 N           1.5210   -0.0210    0.0000 N.am    1  LIG1       -0.2237
      2 C           0.9170   -0.6580    0.0000 C.2     1  LIG1        0.2322
      3 C           0.1630   -0.3000    0.0000 C.3     1  LIG1        0.0944
      4 C           0.2290    0.5460    0.0000 C.3     1  LIG1        0.0944
      5 C           1.0830    0.7080    0.0000 C.2     1  LIG1        0.2322
      6 O           1.4210    1.5130    0.0000 O.2     1  LIG1       -0.2744
      7 C          -2.3880    1.0880    0.0000 C.3     1  LIG1        0.0530
      8 C          -1.6580    0.6460    0.0000 C.ar    1  LIG1       -0.0216
      9 C          -1.6580   -0.2210    0.0000 C.ar    1  LIG1       -0.0216
     10 C          -2.3880   -0.6500    0.0000 C.3     1  LIG1        0.0530
     11 C          -3.1460   -0.2210    0.0000 C.ar    1  LIG1       -0.0216
     12 C          -3.1460    0.6460    0.0000 C.ar    1  LIG1       -0.0216
     13 C          -3.8670    1.0880    0.0000 C.ar    1  LIG1       -0.0042
     14 C          -4.6210    0.6460    0.0000 C.ar    1  LIG1       -0.0003
     15 C          -4.6210   -0.2210    0.0000 C.ar    1  LIG1       -0.0003
     16 C          -3.8670   -0.6500    0.0000 C.ar    1  LIG1       -0.0042
     17 C          -0.9040   -0.6500    0.0000 C.ar    1  LIG1       -0.0042
     18 C          -0.1790   -0.2210    0.0000 C.ar    1  LIG1       -0.0003
     19 C          -0.1790    0.6460    0.0000 C.ar    1  LIG1       -0.0003
     20 C          -0.9040    1.0880    0.0000 C.ar    1  LIG1       -0.0042
     21 O           1.0830   -1.5080    0.0000 O.2     1  LIG1       -0.2744
     22 C           2.5170   -0.1000    0.0000 C.3     1  LIG1        0.1633
     23 C           3.0750    0.7210    0.0000 C.3     1  LIG1        0.1615
     24 N           4.0630    0.6330    0.0000 N.4     1  LIG1        0.3881
     25 C           4.4880   -0.2540    0.0000 C.3     1  LIG1        0.2026
     26 C           4.6170    1.4540    0.0000 C.3     1  LIG1        0.2026
@<TRIPOS>BOND
     1     1     2   am
     2     1     5   am
     3     1    22    1
     4     2     3    1
     5     2    21    2
     6     3     4    1
     7     3    10    1
     8     4     5    1
     9     4     7    1
    10     5     6    2
    11     7     8    1
    12     7    12    1
    13     8     9   ar
    14     8    20   ar
    15     9    10    1
    16     9    17   ar
    17    10    11    1
    18    11    12   ar
    19    11    16   ar
    20    12    13   ar
    21    13    14   ar
    22    14    15   ar
    23    15    16   ar
    24    17    18   ar
    25    18    19   ar
    26    19    20   ar
    27    22    23    1
    28    23    24    1
    29    24    25    1
    30    24    26    1
