@<TRIPOS>MOLECULE
24690_ChemDiv_0156-0117
 19 21 0 0 0
SMALL
GASTEIGER
Energy = 0

@<TRIPOS>ATOM
      1 C           0.0000    0.2580    0.0000 C.2     1  LIG1        0.3457
      2 O          -0.8670   -0.2540    0.0000 O.3     1  LIG1       -0.4210
      3 C          -0.8670   -1.2460    0.0000 C.ar    1  LIG1        0.1487
      4 C           0.0000   -1.7460    0.0000 C.ar    1  LIG1        0.0347
      5 C           0.0000   -2.7460    0.0000 C.ar    1  LIG1        0.0029
      6 C          -0.8670   -3.2460    0.0000 C.ar    1  LIG1        0.0002
      7 C          -1.7330   -2.7460    0.0000 C.ar    1  LIG1        0.0031
      8 C          -1.7330   -1.7460    0.0000 C.ar    1  LIG1        0.0376
      9 C           0.8630   -3.2460    0.0000 C.ar    1  LIG1        0.0001
     10 C           1.7290   -2.7460    0.0000 C.ar    1  LIG1        0.0000
     11 C           1.7290   -1.7460    0.0000 C.ar    1  LIG1        0.0001
     12 C           0.8630   -1.2460    0.0000 C.ar    1  LIG1        0.0030
     13 O           0.8290   -0.2750    0.0000 O.2     1  LIG1       -0.2445
     14 C           0.0130    1.2500    0.0000 C.ar    1  LIG1        0.0760
     15 C           0.9080    1.7170    0.0000 C.ar    1  LIG1        0.0065
     16 C           0.9330    2.7330    0.0000 C.ar    1  LIG1        0.0002
     17 C           0.0710    3.2500    0.0000 C.ar    1  LIG1        0.0000
     18 C          -0.8080    2.7750    0.0000 C.ar    1  LIG1        0.0002
     19 C          -0.8290    1.7710    0.0000 C.ar    1  LIG1        0.0065
@<TRIPOS>BOND
     1     1     2    1
     2     1    13    2
     3     1    14    1
     4     2     3    1
     5     3     4   ar
     6     3     8   ar
     7     4     5   ar
     8     4    12   ar
     9     5     6   ar
    10     5     9   ar
    11     6     7   ar
    12     7     8   ar
    13     9    10   ar
    14    10    11   ar
    15    11    12   ar
    16    14    15   ar
    17    14    19   ar
    18    15    16   ar
    19    16    17   ar
    20    17    18   ar
    21    18    19   ar
