@<TRIPOS>MOLECULE
24704_ChemDiv_2421-0215
 21 24 0 0 0
SMALL
GASTEIGER
Energy = 0

@<TRIPOS>ATOM
      1 C           0.2880    0.9420    0.0000 C.ar    1  LIG1        0.1141
      2 N          -0.5170    0.3540    0.0000 N.ar    1  LIG1       -0.3028
      3 C          -1.3380    0.9420    0.0000 C.ar    1  LIG1        0.0638
      4 C          -1.0210    1.8920    0.0000 C.ar    1  LIG1        0.0137
      5 C          -0.0130    1.8920    0.0000 C.ar    1  LIG1        0.0015
      6 C           0.6500    2.6380    0.0000 C.3     1  LIG1        0.0495
      7 C           1.6210    2.4380    0.0000 C.3     1  LIG1        0.0985
      8 N           1.9420    1.4630    0.0000 N.am    1  LIG1       -0.2728
      9 C           1.2750    0.7290    0.0000 C.2     1  LIG1        0.2650
     10 O           1.5830   -0.2380    0.0000 O.2     1  LIG1       -0.2683
     11 C           2.9580    1.2040    0.0000 C.3     1  LIG1        0.1152
     12 C          -1.6670    2.6380    0.0000 C.ar    1  LIG1        0.0012
     13 C          -2.6460    2.4380    0.0000 C.ar    1  LIG1        0.0001
     14 C          -2.9630    1.5380    0.0000 C.ar    1  LIG1        0.0015
     15 C          -2.3000    0.7540    0.0000 C.ar    1  LIG1        0.0175
     16 C          -0.5170   -0.6380    0.0000 C.ar    1  LIG1        0.0641
     17 C          -1.3830   -1.1500    0.0000 C.ar    1  LIG1        0.0175
     18 C          -1.3830   -2.1420    0.0000 C.ar    1  LIG1        0.0015
     19 C          -0.5330   -2.6330    0.0000 C.ar    1  LIG1        0.0001
     20 C           0.3420   -2.1250    0.0000 C.ar    1  LIG1        0.0015
     21 C           0.3500   -1.1500    0.0000 C.ar    1  LIG1        0.0175
@<TRIPOS>BOND
     1     1     2   ar
     2     1     5   ar
     3     1     9    1
     4     2     3   ar
     5     2    16    1
     6     3     4   ar
     7     3    15   ar
     8     4     5   ar
     9     4    12   ar
    10     5     6    1
    11     6     7    1
    12     7     8    1
    13     8     9   am
    14     8    11    1
    15     9    10    2
    16    12    13   ar
    17    13    14   ar
    18    14    15   ar
    19    16    17   ar
    20    16    21   ar
    21    17    18   ar
    22    18    19   ar
    23    19    20   ar
    24    20    21   ar
