@<TRIPOS>MOLECULE
24702_ChemDiv_1070-0065
 15 17 0 0 0
SMALL
GASTEIGER
Energy = 0

@<TRIPOS>ATOM
      1 N           1.2960   -1.2540    0.0000 N.2     1  LIG1       -0.2443
      2 C           1.8540   -0.4330    0.0000 C.2     1  LIG1        0.1175
      3 C           1.2080    0.3420    0.0000 C.2     1  LIG1        0.0013
      4 C           0.2960   -0.0040    0.0000 C.2     1  LIG1        0.0006
      5 C           0.2960   -0.9580    0.0000 C.2     1  LIG1        0.0774
      6 C          -0.5710   -1.4710    0.0000 C.2     1  LIG1        0.0215
      7 C          -1.4380   -0.9580    0.0000 C.2     1  LIG1        0.0342
      8 C          -1.4380   -0.0040    0.0000 C.2     1  LIG1        0.1207
      9 C          -0.5710    0.5130    0.0000 C.3     1  LIG1        0.0914
     10 O          -2.3380    0.5130    0.0000 O.2     1  LIG1       -0.4753
     11 C          -3.1960    0.0420    0.0000 C.3     1  LIG1        0.2520
     12 C           1.5960    1.2960    0.0000 C.3     1  LIG1        0.0963
     13 C           2.5960    1.4750    0.0000 C.3     1  LIG1        0.2060
     14 N           3.1920    0.6460    0.0000 N.4     1  LIG1        0.4534
     15 C           2.8130   -0.2540    0.0000 C.3     1  LIG1        0.2472
@<TRIPOS>BOND
     1     1     2    2
     2     1     5    1
     3     2     3    1
     4     2    15    1
     5     3     4    2
     6     3    12    1
     7     4     5    1
     8     4     9    1
     9     5     6    2
    10     6     7    1
    11     7     8    2
    12     8     9    1
    13     8    10    1
    14    10    11    1
    15    12    13    1
    16    13    14    1
    17    14    15    1
