@<TRIPOS>MOLECULE
24701_ChemDiv_3406-0173
 31 36 0 0 0
SMALL
GASTEIGER
Energy = 0

@<TRIPOS>ATOM
      1 N           0.9420    0.2580    0.0000 N.am    1  LIG1       -0.2255
      2 C           0.2830    0.9630    0.0000 C.2     1  LIG1        0.2326
      3 C          -0.5960    0.5630    0.0000 C.3     1  LIG1        0.0986
      4 C          -2.3710   -0.5420    0.0000 C.3     1  LIG1        0.0775
      5 C          -2.9790    0.3580    0.0000 C.ar    1  LIG1       -0.0173
      6 C          -2.0420    0.1170    0.0000 C.ar    1  LIG1       -0.0213
      7 C          -1.3670   -0.5420    0.0000 C.3     1  LIG1        0.0531
      8 C          -0.4710   -0.4170    0.0000 C.3     1  LIG1        0.0947
      9 C           0.4880   -0.5880    0.0000 C.2     1  LIG1        0.2323
     10 O           0.8880   -1.4460    0.0000 O.2     1  LIG1       -0.2744
     11 C          -1.3670   -1.4210    0.0000 C.ar    1  LIG1       -0.0213
     12 C          -2.3210   -1.4670    0.0000 C.ar    1  LIG1       -0.0173
     13 C          -2.7460   -2.3210    0.0000 C.ar    1  LIG1       -0.0039
     14 C          -2.2460   -3.1290    0.0000 C.ar    1  LIG1       -0.0003
     15 C          -1.2920   -3.0750    0.0000 C.ar    1  LIG1       -0.0003
     16 C          -0.8670   -2.2170    0.0000 C.ar    1  LIG1       -0.0042
     17 C          -1.3960    0.8130    0.0000 C.ar    1  LIG1       -0.0042
     18 C          -1.6460    1.7170    0.0000 C.ar    1  LIG1       -0.0003
     19 C          -2.5460    1.9420    0.0000 C.ar    1  LIG1       -0.0003
     20 C          -3.2290    1.2630    0.0000 C.ar    1  LIG1       -0.0039
     21 C          -3.2960   -0.7460    0.0000 C.2     1  LIG1        0.0577
     22 O          -3.6040   -1.6500    0.0000 O.co2   1  LIG1       -0.5485
     23 O          -3.9250   -0.0420    0.0000 O.co2   1  LIG1       -0.5485
     24 O           0.4670    1.9210    0.0000 O.2     1  LIG1       -0.2744
     25 C           2.1420    0.3830    0.0000 C.3     1  LIG1        0.1274
     26 C           2.5420    1.2920    0.0000 C.ar    1  LIG1       -0.0019
     27 C           1.9710    2.0750    0.0000 C.ar    1  LIG1       -0.0026
     28 C           2.3500    3.0040    0.0000 C.ar    1  LIG1       -0.0003
     29 C           3.3330    3.1330    0.0000 C.ar    1  LIG1       -0.0000
     30 C           3.9210    2.3250    0.0000 C.ar    1  LIG1       -0.0003
     31 C           3.5380    1.4000    0.0000 C.ar    1  LIG1       -0.0026
@<TRIPOS>BOND
     1     1     2   am
     2     1     9   am
     3     1    25    1
     4     2     3    1
     5     2    24    2
     6     3     4    1
     7     3     8    1
     8     4     5    1
     9     4    12    1
    10     4    21    1
    11     5     6   ar
    12     5    20   ar
    13     6     7    1
    14     6    17   ar
    15     7     8    1
    16     7    11    1
    17     8     9    1
    18     9    10    2
    19    11    12   ar
    20    11    16   ar
    21    12    13   ar
    22    13    14   ar
    23    14    15   ar
    24    15    16   ar
    25    17    18   ar
    26    18    19   ar
    27    19    20   ar
    28    21    22   ar
    29    21    23   ar
    30    25    26    1
    31    26    27   ar
    32    26    31   ar
    33    27    28   ar
    34    28    29   ar
    35    29    30   ar
    36    30    31   ar
