@<TRIPOS>MOLECULE
24709_ChemDiv_4246-2162
 33 38 0 0 0
SMALL
GASTEIGER
Energy = 0

@<TRIPOS>ATOM
      1 S          -0.0290   -1.1670    0.0000 S.O2    1  LIG1        0.0275
      2 C           0.9790   -1.1670    0.0000 C.ar    1  LIG1        0.1120
      3 C           1.5330   -0.3290    0.0000 C.ar    1  LIG1        0.0410
      4 C           2.5080   -0.3630    0.0000 C.ar    1  LIG1        0.1202
      5 N           3.1960    0.3790    0.0000 N.ar    1  LIG1       -0.2082
      6 C           4.0830   -0.0630    0.0000 C.ar    1  LIG1        0.2312
      7 O           3.9920   -1.0460    0.0000 O.2     1  LIG1       -0.4345
      8 C           2.9960   -1.2250    0.0000 C.ar    1  LIG1        0.1648
      9 C           2.4630   -2.0670    0.0000 C.ar    1  LIG1        0.0405
     10 C           1.4580   -2.0420    0.0000 C.ar    1  LIG1        0.0220
     11 C           4.9250    0.4790    0.0000 C.ar    1  LIG1        0.0727
     12 C           4.8540    1.4670    0.0000 C.ar    1  LIG1        0.1035
     13 N           5.6960    2.0380    0.0000 N.ar    1  LIG1       -0.2422
     14 C           6.5710    1.6000    0.0000 C.ar    1  LIG1        0.0989
     15 C           6.6290    0.6080    0.0000 C.ar    1  LIG1        0.0208
     16 C           5.8210    0.0210    0.0000 C.ar    1  LIG1        0.0078
     17 C          -1.0250   -1.1670    0.0000 C.ar    1  LIG1        0.1120
     18 C          -1.5080   -0.2920    0.0000 C.ar    1  LIG1        0.0410
     19 C          -2.5130   -0.2920    0.0000 C.ar    1  LIG1        0.1202
     20 N          -3.2000    0.4210    0.0000 N.ar    1  LIG1       -0.2082
     21 C          -4.1000    0.0210    0.0000 C.ar    1  LIG1        0.2312
     22 O          -4.0080   -0.9500    0.0000 O.2     1  LIG1       -0.4345
     23 C          -3.0330   -1.1670    0.0000 C.ar    1  LIG1        0.1648
     24 C          -2.5500   -2.0420    0.0000 C.ar    1  LIG1        0.0405
     25 C          -1.5380   -2.0420    0.0000 C.ar    1  LIG1        0.0220
     26 C          -4.9420    0.5880    0.0000 C.ar    1  LIG1        0.0727
     27 C          -4.8460    1.6000    0.0000 C.ar    1  LIG1        0.1035
     28 N          -5.6580    2.1790    0.0000 N.ar    1  LIG1       -0.2422
     29 C          -6.5540    1.7210    0.0000 C.ar    1  LIG1        0.0989
     30 C          -6.6290    0.7420    0.0000 C.ar    1  LIG1        0.0208
     31 C          -5.8380    0.1290    0.0000 C.ar    1  LIG1        0.0078
     32 O          -0.0290   -0.1580    0.0000 O.2     1  LIG1       -0.1642
     33 O          -0.0290   -2.1750    0.0000 O.2     1  LIG1       -0.1642
@<TRIPOS>BOND
     1     1     2    1
     2     1    17    1
     3     1    32    2
     4     1    33    2
     5     2     3   ar
     6     2    10   ar
     7     3     4   ar
     8     4     5   ar
     9     4     8   ar
    10     5     6   ar
    11     6     7   ar
    12     6    11    1
    13     7     8   ar
    14     8     9   ar
    15     9    10   ar
    16    11    12   ar
    17    11    16   ar
    18    12    13   ar
    19    13    14   ar
    20    14    15   ar
    21    15    16   ar
    22    17    18   ar
    23    17    25   ar
    24    18    19   ar
    25    19    20   ar
    26    19    23   ar
    27    20    21   ar
    28    21    22   ar
    29    21    26    1
    30    22    23   ar
    31    23    24   ar
    32    24    25   ar
    33    26    27   ar
    34    26    31   ar
    35    27    28   ar
    36    28    29   ar
    37    29    30   ar
    38    30    31   ar
