@<TRIPOS>MOLECULE
24705_ChemDiv_2007-0062
 21 24 0 0 0
SMALL
GASTEIGER
Energy = 0

@<TRIPOS>ATOM
      1 C           0.0080    0.8580    0.0000 C.ar    1  LIG1        0.2297
      2 N          -0.5290    0.0170    0.0000 N.ar    1  LIG1       -0.2082
      3 C          -1.4210    0.2580    0.0000 C.ar    1  LIG1        0.1202
      4 C          -1.4130    1.2290    0.0000 C.ar    1  LIG1        0.1648
      5 O          -0.5080    1.5880    0.0000 O.2     1  LIG1       -0.4346
      6 C          -2.3170    1.7710    0.0000 C.ar    1  LIG1        0.0405
      7 C          -3.2040    1.2540    0.0000 C.ar    1  LIG1        0.0213
      8 C          -3.2040    0.2750    0.0000 C.ar    1  LIG1        0.0908
      9 C          -2.3580   -0.2380    0.0000 C.ar    1  LIG1        0.0404
     10 N          -4.0750   -0.2080    0.0000 N.pl3   1  LIG1       -0.1280
     11 C           1.0330    0.8580    0.0000 C.ar    1  LIG1        0.0536
     12 C           1.5670    0.0000    0.0000 C.ar    1  LIG1        0.0050
     13 C           2.5250    0.0000    0.0000 C.ar    1  LIG1        0.0064
     14 C           3.0380   -0.8830    0.0000 C.ar    1  LIG1        0.0346
     15 BR          4.0710   -0.8830    0.0000 Br      1  LIG1       -0.0490
     16 C           2.5250   -1.7670    0.0000 C.ar    1  LIG1        0.0067
     17 C           1.5460   -1.7670    0.0000 C.ar    1  LIG1        0.0005
     18 C           1.0460   -0.9000    0.0000 C.ar    1  LIG1        0.0002
     19 C           3.0330    0.8580    0.0000 C.ar    1  LIG1        0.0005
     20 C           2.5420    1.7540    0.0000 C.ar    1  LIG1        0.0002
     21 C           1.5460    1.7540    0.0000 C.ar    1  LIG1        0.0047
@<TRIPOS>BOND
     1     1     2   ar
     2     1     5   ar
     3     1    11    1
     4     2     3   ar
     5     3     4   ar
     6     3     9   ar
     7     4     5   ar
     8     4     6   ar
     9     6     7   ar
    10     7     8   ar
    11     8     9   ar
    12     8    10    1
    13    11    12   ar
    14    11    21   ar
    15    12    13   ar
    16    12    18   ar
    17    13    14   ar
    18    13    19   ar
    19    14    15    1
    20    14    16   ar
    21    16    17   ar
    22    17    18   ar
    23    19    20   ar
    24    20    21   ar
