@<TRIPOS>MOLECULE
24703_ChemDiv_3448-2313
 24 28 0 0 0
SMALL
GASTEIGER
Energy = 0

@<TRIPOS>ATOM
      1 N           0.9580   -0.6500    0.0000 N.am    1  LIG1       -0.2272
      2 C           0.4080    0.1000    0.0000 C.2     1  LIG1        0.2321
      3 C          -0.4670   -0.1790    0.0000 C.3     1  LIG1        0.0944
      4 C          -0.4670   -1.1000    0.0000 C.3     1  LIG1        0.0944
      5 C           0.4080   -1.3920    0.0000 C.2     1  LIG1        0.2321
      6 O           0.6830   -2.2670    0.0000 O.2     1  LIG1       -0.2744
      7 C          -3.2420    0.0000    0.0000 C.3     1  LIG1        0.0530
      8 C          -2.7500    0.8080    0.0000 C.ar    1  LIG1       -0.0216
      9 C          -1.8580    0.7670    0.0000 C.ar    1  LIG1       -0.0216
     10 C          -1.3630    0.0000    0.0000 C.3     1  LIG1        0.0530
     11 C          -1.8790   -0.7880    0.0000 C.ar    1  LIG1       -0.0216
     12 C          -2.7710   -0.7880    0.0000 C.ar    1  LIG1       -0.0216
     13 C          -3.2420   -1.6210    0.0000 C.ar    1  LIG1       -0.0042
     14 C          -2.8130   -2.4250    0.0000 C.ar    1  LIG1       -0.0003
     15 C          -1.8790   -2.4250    0.0000 C.ar    1  LIG1       -0.0003
     16 C          -1.3880   -1.5880    0.0000 C.ar    1  LIG1       -0.0042
     17 C          -1.3420    1.5920    0.0000 C.ar    1  LIG1       -0.0042
     18 C          -1.7960    2.4290    0.0000 C.ar    1  LIG1       -0.0003
     19 C          -2.7210    2.4290    0.0000 C.ar    1  LIG1       -0.0003
     20 C          -3.1880    1.5920    0.0000 C.ar    1  LIG1       -0.0042
     21 O           0.6830    0.9710    0.0000 O.2     1  LIG1       -0.2744
     22 C           1.8670   -0.6500    0.0000 C.3     1  LIG1        0.1363
     23 C           2.3170    0.1460    0.0000 C.3     1  LIG1        0.2040
     24 O           3.2380    0.1630    0.0000 O.3     1  LIG1       -0.2185
@<TRIPOS>BOND
     1     1     2   am
     2     1     5   am
     3     1    22    1
     4     2     3    1
     5     2    21    2
     6     3     4    1
     7     3    10    1
     8     4     5    1
     9     4     7    1
    10     5     6    2
    11     7     8    1
    12     7    12    1
    13     8     9   ar
    14     8    20   ar
    15     9    10    1
    16     9    17   ar
    17    10    11    1
    18    11    12   ar
    19    11    16   ar
    20    12    13   ar
    21    13    14   ar
    22    14    15   ar
    23    15    16   ar
    24    17    18   ar
    25    18    19   ar
    26    19    20   ar
    27    22    23    1
    28    23    24    1
