@<TRIPOS>MOLECULE
24707_ChemDiv_2810-4336
 18 20 0 0 0
SMALL
GASTEIGER
Energy = 0

@<TRIPOS>ATOM
      1 C           0.5710    0.3750    0.0000 C.ar    1  LIG1        0.2294
      2 N          -0.0250   -0.4380    0.0000 N.ar    1  LIG1       -0.2083
      3 C          -0.9750   -0.1330    0.0000 C.ar    1  LIG1        0.1185
      4 C          -0.9750    0.8670    0.0000 C.ar    1  LIG1        0.1647
      5 O          -0.0250    1.1920    0.0000 O.2     1  LIG1       -0.4346
      6 C          -1.8540    1.3580    0.0000 C.ar    1  LIG1        0.0388
      7 C          -2.7080    0.8670    0.0000 C.ar    1  LIG1       -0.0010
      8 C          -2.7080   -0.1330    0.0000 C.ar    1  LIG1       -0.0202
      9 C          -1.8540   -0.6210    0.0000 C.ar    1  LIG1        0.0181
     10 C          -3.5750   -0.6210    0.0000 C.3     1  LIG1        0.0311
     11 C           1.5710    0.3750    0.0000 C.ar    1  LIG1        0.0509
     12 C           2.0630   -0.4880    0.0000 C.ar    1  LIG1       -0.0006
     13 C           3.0580   -0.4880    0.0000 C.ar    1  LIG1        0.0853
     14 N           3.5710   -1.3540    0.0000 N.pl3   1  LIG1       -0.1284
     15 C           3.5710    0.3750    0.0000 C.ar    1  LIG1        0.0177
     16 C           3.0580    1.2420    0.0000 C.ar    1  LIG1        0.0015
     17 C           2.0630    1.2420    0.0000 C.ar    1  LIG1        0.0044
     18 C           1.5710   -1.3540    0.0000 C.3     1  LIG1        0.0326
@<TRIPOS>BOND
     1     1     2   ar
     2     1     5   ar
     3     1    11    1
     4     2     3   ar
     5     3     4   ar
     6     3     9   ar
     7     4     5   ar
     8     4     6   ar
     9     6     7   ar
    10     7     8   ar
    11     8     9   ar
    12     8    10    1
    13    11    12   ar
    14    11    17   ar
    15    12    13   ar
    16    12    18    1
    17    13    14    1
    18    13    15   ar
    19    15    16   ar
    20    16    17   ar
