@<TRIPOS>MOLECULE
24713_ChemDiv_6331-2931
 33 38 0 0 0
SMALL
GASTEIGER
Energy = 0

@<TRIPOS>ATOM
      1 S           1.0580   -1.8250    0.0000 S.O2    1  LIG1        0.0275
      2 C           0.1830   -2.3290    0.0000 C.ar    1  LIG1        0.1120
      3 C          -0.6790   -1.8290    0.0000 C.ar    1  LIG1        0.0410
      4 C          -1.5420   -2.3290    0.0000 C.ar    1  LIG1        0.1202
      5 N          -2.4920   -2.0250    0.0000 N.ar    1  LIG1       -0.2082
      6 C          -3.0750   -2.8250    0.0000 C.ar    1  LIG1        0.2298
      7 O          -2.4920   -3.6380    0.0000 O.2     1  LIG1       -0.4346
      8 C          -1.5420   -3.3250    0.0000 C.ar    1  LIG1        0.1648
      9 C          -0.6790   -3.8250    0.0000 C.ar    1  LIG1        0.0405
     10 C           0.1830   -3.3250    0.0000 C.ar    1  LIG1        0.0220
     11 C          -4.0790   -2.7750    0.0000 C.ar    1  LIG1        0.0567
     12 C          -4.5500   -1.8920    0.0000 C.ar    1  LIG1        0.0253
     13 C          -5.5380   -1.8460    0.0000 C.ar    1  LIG1        0.0990
     14 N          -6.0750   -2.7000    0.0000 N.ar    1  LIG1       -0.2423
     15 C          -5.6130   -3.5790    0.0000 C.ar    1  LIG1        0.0990
     16 C          -4.6080   -3.6130    0.0000 C.ar    1  LIG1        0.0253
     17 C           1.9290   -1.3170    0.0000 C.ar    1  LIG1        0.1120
     18 C           1.9210   -0.3130    0.0000 C.ar    1  LIG1        0.0410
     19 C           2.7830    0.1880    0.0000 C.ar    1  LIG1        0.1202
     20 N           2.9920    1.1630    0.0000 N.ar    1  LIG1       -0.2082
     21 C           3.9880    1.2710    0.0000 C.ar    1  LIG1        0.2298
     22 O           4.4000    0.3630    0.0000 O.2     1  LIG1       -0.4346
     23 C           3.6540   -0.3130    0.0000 C.ar    1  LIG1        0.1648
     24 C           3.6580   -1.3170    0.0000 C.ar    1  LIG1        0.0405
     25 C           2.7920   -1.8130    0.0000 C.ar    1  LIG1        0.0220
     26 C           4.5290    2.1000    0.0000 C.ar    1  LIG1        0.0567
     27 C           5.5330    2.0420    0.0000 C.ar    1  LIG1        0.0253
     28 C           6.0750    2.8750    0.0000 C.ar    1  LIG1        0.0990
     29 N           5.6250    3.7670    0.0000 N.ar    1  LIG1       -0.2423
     30 C           4.6250    3.8290    0.0000 C.ar    1  LIG1        0.0990
     31 C           4.0750    2.9920    0.0000 C.ar    1  LIG1        0.0253
     32 O           0.5460   -0.9540    0.0000 O.2     1  LIG1       -0.1642
     33 O           1.5670   -2.6920    0.0000 O.2     1  LIG1       -0.1642
@<TRIPOS>BOND
     1     1     2    1
     2     1    17    1
     3     1    32    2
     4     1    33    2
     5     2     3   ar
     6     2    10   ar
     7     3     4   ar
     8     4     5   ar
     9     4     8   ar
    10     5     6   ar
    11     6     7   ar
    12     6    11    1
    13     7     8   ar
    14     8     9   ar
    15     9    10   ar
    16    11    12   ar
    17    11    16   ar
    18    12    13   ar
    19    13    14   ar
    20    14    15   ar
    21    15    16   ar
    22    17    18   ar
    23    17    25   ar
    24    18    19   ar
    25    19    20   ar
    26    19    23   ar
    27    20    21   ar
    28    21    22   ar
    29    21    26    1
    30    22    23   ar
    31    23    24   ar
    32    24    25   ar
    33    26    27   ar
    34    26    31   ar
    35    27    28   ar
    36    28    29   ar
    37    29    30   ar
    38    30    31   ar
