@<TRIPOS>MOLECULE
24717_ChemDiv_8007-0773
 19 21 0 0 0
SMALL
GASTEIGER
Energy = 0

@<TRIPOS>ATOM
      1 C           0.1000   -0.1880    0.0000 C.ar    1  LIG1        0.2328
      2 N          -0.4920   -1.0210    0.0000 N.ar    1  LIG1       -0.2082
      3 C          -1.4420   -0.7210    0.0000 C.ar    1  LIG1        0.1182
      4 C          -1.4420    0.3170    0.0000 C.ar    1  LIG1        0.1607
      5 O          -0.4920    0.6250    0.0000 O.2     1  LIG1       -0.4348
      6 C          -2.3210    0.8170    0.0000 C.ar    1  LIG1        0.0140
      7 C          -3.2210    0.2830    0.0000 C.ar    1  LIG1       -0.0054
      8 C          -3.2210   -0.6920    0.0000 C.ar    1  LIG1       -0.0205
      9 C          -2.3210   -1.2250    0.0000 C.ar    1  LIG1        0.0180
     10 C          -4.1040   -1.1330    0.0000 C.3     1  LIG1        0.0311
     11 C          -2.3210    1.8210    0.0000 C.3     1  LIG1        0.0343
     12 C           1.1210   -0.2000    0.0000 C.ar    1  LIG1        0.0925
     13 C           1.6540   -0.9630    0.0000 C.ar    1  LIG1        0.2015
     14 C           2.6380   -0.9630    0.0000 C.ar    1  LIG1        0.0602
     15 C           3.1170   -0.1250    0.0000 C.ar    1  LIG1        0.0923
     16 C           2.5710    0.6960    0.0000 C.ar    1  LIG1        0.0184
     17 C           1.5880    0.6960    0.0000 C.ar    1  LIG1        0.0093
     18 N           4.1000   -0.1250    0.0000 N.pl3   1  LIG1       -0.1280
     19 O           1.1380   -1.8170    0.0000 O.3     1  LIG1       -0.2864
@<TRIPOS>BOND
     1     1     2   ar
     2     1     5   ar
     3     1    12    1
     4     2     3   ar
     5     3     4   ar
     6     3     9   ar
     7     4     5   ar
     8     4     6   ar
     9     6     7   ar
    10     6    11    1
    11     7     8   ar
    12     8     9   ar
    13     8    10    1
    14    12    13   ar
    15    12    17   ar
    16    13    14   ar
    17    13    19    1
    18    14    15   ar
    19    15    16   ar
    20    15    18    1
    21    16    17   ar
