@<TRIPOS>MOLECULE
24719_ChemDiv_0090-0036
 30 33 0 0 0
SMALL
GASTEIGER
Energy = 0

@<TRIPOS>ATOM
      1 S           2.9790    1.7750    0.0000 S.O2    1  LIG1        0.0633
      2 N           3.8540    2.2960    0.0000 N.3     1  LIG1       -0.1555
      3 C           3.8540    3.3170    0.0000 C.3     1  LIG1        0.0958
      4 C           4.6960    3.7880    0.0000 C.3     1  LIG1        0.0192
      5 C           5.6000    3.2920    0.0000 C.3     1  LIG1        0.0030
      6 C           5.6000    2.2960    0.0000 C.3     1  LIG1        0.0192
      7 C           4.7250    1.7960    0.0000 C.3     1  LIG1        0.0958
      8 C           2.1000    1.2420    0.0000 C.ar    1  LIG1        0.1222
      9 C           2.1000    0.2630    0.0000 C.ar    1  LIG1        0.0199
     10 C           1.2460   -0.2500    0.0000 C.ar    1  LIG1        0.0014
     11 C           0.3920    0.2630    0.0000 C.ar    1  LIG1        0.0001
     12 C          -0.4460   -0.2500    0.0000 C.ar    1  LIG1        0.0001
     13 C          -1.3000    0.2630    0.0000 C.ar    1  LIG1        0.0014
     14 C          -2.1540   -0.2500    0.0000 C.ar    1  LIG1        0.0199
     15 C          -2.1540   -1.2290    0.0000 C.ar    1  LIG1        0.1222
     16 S          -3.0250   -1.7630    0.0000 S.O2    1  LIG1        0.0633
     17 N          -3.9000   -2.2670    0.0000 N.3     1  LIG1       -0.1555
     18 C          -4.7540   -1.7880    0.0000 C.3     1  LIG1        0.0958
     19 C          -5.6040   -2.2670    0.0000 C.3     1  LIG1        0.0192
     20 C          -5.6040   -3.2830    0.0000 C.3     1  LIG1        0.0030
     21 C          -4.7540   -3.7830    0.0000 C.3     1  LIG1        0.0192
     22 C          -3.9000   -3.2830    0.0000 C.3     1  LIG1        0.0958
     23 O          -3.5540   -0.8830    0.0000 O.2     1  LIG1       -0.1528
     24 O          -2.5130   -2.6420    0.0000 O.2     1  LIG1       -0.1528
     25 C          -1.3000   -1.7380    0.0000 C.ar    1  LIG1        0.0199
     26 C          -0.4460   -1.2290    0.0000 C.ar    1  LIG1        0.0014
     27 C           0.3920    1.2420    0.0000 C.ar    1  LIG1        0.0014
     28 C           1.2460    1.7460    0.0000 C.ar    1  LIG1        0.0199
     29 O           2.4670    2.6500    0.0000 O.2     1  LIG1       -0.1528
     30 O           3.5000    0.8920    0.0000 O.2     1  LIG1       -0.1528
@<TRIPOS>BOND
     1     1     2    1
     2     1     8    1
     3     1    29    2
     4     1    30    2
     5     2     3    1
     6     2     7    1
     7     3     4    1
     8     4     5    1
     9     5     6    1
    10     6     7    1
    11     8     9   ar
    12     8    28   ar
    13     9    10   ar
    14    10    11   ar
    15    11    12    1
    16    11    27   ar
    17    12    13   ar
    18    12    26   ar
    19    13    14   ar
    20    14    15   ar
    21    15    16    1
    22    15    25   ar
    23    16    17    1
    24    16    23    2
    25    16    24    2
    26    17    18    1
    27    17    22    1
    28    18    19    1
    29    19    20    1
    30    20    21    1
    31    21    22    1
    32    25    26   ar
    33    27    28   ar
