@<TRIPOS>MOLECULE
24715_ChemDiv_6331-2932
 31 36 0 0 0
SMALL
GASTEIGER
Energy = 0

@<TRIPOS>ATOM
      1 N          -3.5630    0.8080    0.0000 N.ar    1  LIG1       -0.2082
      2 C          -4.1420    0.0040    0.0000 C.ar    1  LIG1        0.2298
      3 O          -3.5630   -0.8130    0.0000 O.2     1  LIG1       -0.4346
      4 C          -2.6080   -0.5040    0.0000 C.ar    1  LIG1        0.1649
      5 C          -2.6080    0.4960    0.0000 C.ar    1  LIG1        0.1219
      6 C          -1.7460    0.9960    0.0000 C.ar    1  LIG1        0.0598
      7 C          -0.8790    0.4960    0.0000 C.ar    1  LIG1        0.1470
      8 O          -0.0040    1.0040    0.0000 O.3     1  LIG1       -0.4534
      9 C           0.8710    0.5040    0.0000 C.ar    1  LIG1        0.1470
     10 C           1.7330    1.0080    0.0000 C.ar    1  LIG1        0.0598
     11 C           2.6040    0.5210    0.0000 C.ar    1  LIG1        0.1219
     12 N           3.5580    0.8210    0.0000 N.ar    1  LIG1       -0.2082
     13 C           4.1420    0.0080    0.0000 C.ar    1  LIG1        0.2298
     14 O           3.5670   -0.8000    0.0000 O.2     1  LIG1       -0.4346
     15 C           2.6170   -0.4920    0.0000 C.ar    1  LIG1        0.1649
     16 C           1.7420   -0.9960    0.0000 C.ar    1  LIG1        0.0423
     17 C           0.8750   -0.4960    0.0000 C.ar    1  LIG1        0.0407
     18 C           5.1420    0.0080    0.0000 C.ar    1  LIG1        0.0567
     19 C           5.6330   -0.8540    0.0000 C.ar    1  LIG1        0.0253
     20 C           6.6330   -0.8540    0.0000 C.ar    1  LIG1        0.0990
     21 N           7.1330    0.0210    0.0000 N.ar    1  LIG1       -0.2423
     22 C           6.6250    0.8830    0.0000 C.ar    1  LIG1        0.0990
     23 C           5.6330    0.8750    0.0000 C.ar    1  LIG1        0.0253
     24 C          -0.8790   -0.5040    0.0000 C.ar    1  LIG1        0.0407
     25 C          -1.7460   -1.0040    0.0000 C.ar    1  LIG1        0.0423
     26 C          -5.1420    0.0040    0.0000 C.ar    1  LIG1        0.0567
     27 C          -5.6380    0.8750    0.0000 C.ar    1  LIG1        0.0253
     28 C          -6.6210    0.8830    0.0000 C.ar    1  LIG1        0.0990
     29 N          -7.1330    0.0210    0.0000 N.ar    1  LIG1       -0.2423
     30 C          -6.6330   -0.8540    0.0000 C.ar    1  LIG1        0.0990
     31 C          -5.6380   -0.8580    0.0000 C.ar    1  LIG1        0.0253
@<TRIPOS>BOND
     1     1     2   ar
     2     1     5   ar
     3     2     3   ar
     4     2    26    1
     5     3     4   ar
     6     4     5   ar
     7     4    25   ar
     8     5     6   ar
     9     6     7   ar
    10     7     8    1
    11     7    24   ar
    12     8     9    1
    13     9    10   ar
    14     9    17   ar
    15    10    11   ar
    16    11    12   ar
    17    11    15   ar
    18    12    13   ar
    19    13    14   ar
    20    13    18    1
    21    14    15   ar
    22    15    16   ar
    23    16    17   ar
    24    18    19   ar
    25    18    23   ar
    26    19    20   ar
    27    20    21   ar
    28    21    22   ar
    29    22    23   ar
    30    24    25   ar
    31    26    27   ar
    32    26    31   ar
    33    27    28   ar
    34    28    29   ar
    35    29    30   ar
    36    30    31   ar
