@<TRIPOS>MOLECULE
24711_ChemDiv_4788-0739
 20 23 0 0 0
SMALL
GASTEIGER
Energy = 0

@<TRIPOS>ATOM
      1 C           0.5540   -0.8000    0.0000 C.ar    1  LIG1        0.2297
      2 N          -0.0380   -1.6130    0.0000 N.ar    1  LIG1       -0.2082
      3 C          -0.9880   -1.3080    0.0000 C.ar    1  LIG1        0.1202
      4 C          -0.9880   -0.3080    0.0000 C.ar    1  LIG1        0.1648
      5 O          -0.0380    0.0170    0.0000 O.2     1  LIG1       -0.4346
      6 C          -1.8630    0.2000    0.0000 C.ar    1  LIG1        0.0405
      7 C          -2.7000   -0.3080    0.0000 C.ar    1  LIG1        0.0213
      8 C          -2.7000   -1.3080    0.0000 C.ar    1  LIG1        0.0908
      9 C          -1.8630   -1.7960    0.0000 C.ar    1  LIG1        0.0404
     10 N          -3.5670   -1.7960    0.0000 N.pl3   1  LIG1       -0.1280
     11 C           1.5630   -0.8000    0.0000 C.ar    1  LIG1        0.0536
     12 C           2.0540    0.0710    0.0000 C.ar    1  LIG1        0.0045
     13 C           3.0540    0.0710    0.0000 C.ar    1  LIG1        0.0001
     14 C           3.5630   -0.8000    0.0000 C.ar    1  LIG1        0.0000
     15 C           3.0540   -1.6630    0.0000 C.ar    1  LIG1        0.0002
     16 C           2.0540   -1.6630    0.0000 C.ar    1  LIG1        0.0046
     17 C           3.5630    0.9330    0.0000 C.ar    1  LIG1        0.0000
     18 C           3.0540    1.8000    0.0000 C.ar    1  LIG1        0.0000
     19 C           2.0540    1.8000    0.0000 C.ar    1  LIG1        0.0000
     20 C           1.5630    0.9330    0.0000 C.ar    1  LIG1        0.0002
@<TRIPOS>BOND
     1     1     2   ar
     2     1     5   ar
     3     1    11    1
     4     2     3   ar
     5     3     4   ar
     6     3     9   ar
     7     4     5   ar
     8     4     6   ar
     9     6     7   ar
    10     7     8   ar
    11     8     9   ar
    12     8    10    1
    13    11    12   ar
    14    11    16   ar
    15    12    13   ar
    16    12    20   ar
    17    13    14   ar
    18    13    17   ar
    19    14    15   ar
    20    15    16   ar
    21    17    18   ar
    22    18    19   ar
    23    19    20   ar
