@<TRIPOS>MOLECULE
24720_ChemDiv_1103-0058
 16 17 0 0 0
SMALL
GASTEIGER
Energy = 0

@<TRIPOS>ATOM
      1 C          -0.8670   -0.0040    0.0000 C.ar    1  LIG1        0.0404
      2 C          -0.8670   -1.0040    0.0000 C.2     1  LIG1        0.1956
      3 O          -1.7130   -1.4920    0.0000 O.2     1  LIG1       -0.2866
      4 C          -0.0080   -1.5170    0.0000 C.ar    1  LIG1        0.0390
      5 C           0.0130   -2.5330    0.0000 C.ar    1  LIG1        0.0032
      6 C           0.8750   -3.0040    0.0000 C.ar    1  LIG1        0.0001
      7 C           1.7330   -2.4790    0.0000 C.ar    1  LIG1        0.0000
      8 C           1.7250   -1.4920    0.0000 C.ar    1  LIG1        0.0001
      9 C           0.8210   -1.0080    0.0000 C.ar    1  LIG1        0.0032
     10 C           0.0000    0.4960    0.0000 C.ar    1  LIG1        0.0226
     11 C           0.0000    1.5080    0.0000 C.ar    1  LIG1        0.1058
     12 C          -0.8670    2.0080    0.0000 C.ar    1  LIG1        0.1057
     13 C          -1.7380    1.5080    0.0000 C.ar    1  LIG1        0.0195
     14 C          -1.7380    0.4960    0.0000 C.ar    1  LIG1        0.0046
     15 N          -0.8670    3.0080    0.0000 N.pl3   1  LIG1       -0.1266
     16 N           0.8710    2.0080    0.0000 N.pl3   1  LIG1       -0.1266
@<TRIPOS>BOND
     1     1     2    1
     2     1    10   ar
     3     1    14   ar
     4     2     3    2
     5     2     4    1
     6     4     5   ar
     7     4     9   ar
     8     5     6   ar
     9     6     7   ar
    10     7     8   ar
    11     8     9   ar
    12    10    11   ar
    13    11    12   ar
    14    11    16    1
    15    12    13   ar
    16    12    15    1
    17    13    14   ar
