@<TRIPOS>MOLECULE
24721_ChemDiv_3668-0009
 29 33 0 0 0
SMALL
GASTEIGER
Energy = 0

@<TRIPOS>ATOM
      1 N           1.7040    0.0130    0.0000 N.am    1  LIG1       -0.2264
      2 C           1.2000   -0.6920    0.0000 C.2     1  LIG1        0.2322
      3 C           0.3920   -0.4250    0.0000 C.3     1  LIG1        0.0944
      4 C           0.3920    0.4380    0.0000 C.3     1  LIG1        0.0944
      5 C           1.2000    0.6920    0.0000 C.2     1  LIG1        0.2322
      6 O           1.4670    1.5080    0.0000 O.2     1  LIG1       -0.2744
      7 C          -2.8920    0.7920    0.0000 C.3     1  LIG1        0.0530
      8 C          -2.1540    0.3750    0.0000 C.ar    1  LIG1       -0.0216
      9 C          -2.1540   -0.4790    0.0000 C.ar    1  LIG1       -0.0216
     10 C          -2.8830   -0.9130    0.0000 C.3     1  LIG1        0.0530
     11 C          -3.6290   -0.4830    0.0000 C.ar    1  LIG1       -0.0216
     12 C          -3.6290    0.3710    0.0000 C.ar    1  LIG1       -0.0216
     13 C          -4.3670    0.7920    0.0000 C.ar    1  LIG1       -0.0042
     14 C          -5.1040    0.3630    0.0000 C.ar    1  LIG1       -0.0003
     15 C          -5.1040   -0.4960    0.0000 C.ar    1  LIG1       -0.0003
     16 C          -4.3580   -0.9130    0.0000 C.ar    1  LIG1       -0.0042
     17 C          -1.4170   -0.8920    0.0000 C.ar    1  LIG1       -0.0042
     18 C          -0.6920   -0.4670    0.0000 C.ar    1  LIG1       -0.0003
     19 C          -0.6960    0.3830    0.0000 C.ar    1  LIG1       -0.0003
     20 C          -1.4250    0.8000    0.0000 C.ar    1  LIG1       -0.0042
     21 O           1.4670   -1.5040    0.0000 O.2     1  LIG1       -0.2744
     22 C           2.5540    0.0170    0.0000 C.3     1  LIG1        0.1186
     23 C           2.9790   -0.7210    0.0000 C.2     1  LIG1        0.0688
     24 O           3.8420   -0.7210    0.0000 O.co2   1  LIG1       -0.5475
     25 O           2.5580   -1.4670    0.0000 O.co2   1  LIG1       -0.5475
     26 C           2.9790    0.7500    0.0000 C.3     1  LIG1        0.0260
     27 C           3.8290    0.7500    0.0000 C.3     1  LIG1        0.0021
     28 C           4.2500    1.4880    0.0000 C.3     1  LIG1        0.0001
     29 C           5.1000    1.4880    0.0000 C.3     1  LIG1        0.0000
@<TRIPOS>BOND
     1     1     2   am
     2     1     5   am
     3     1    22    1
     4     2     3    1
     5     2    21    2
     6     3     4    1
     7     3    10    1
     8     4     5    1
     9     4     7    1
    10     5     6    2
    11     7     8    1
    12     7    12    1
    13     8     9   ar
    14     8    20   ar
    15     9    10    1
    16     9    17   ar
    17    10    11    1
    18    11    12   ar
    19    11    16   ar
    20    12    13   ar
    21    13    14   ar
    22    14    15   ar
    23    15    16   ar
    24    17    18   ar
    25    18    19   ar
    26    19    20   ar
    27    22    23    1
    28    22    26    1
    29    23    24   ar
    30    23    25   ar
    31    26    27    1
    32    27    28    1
    33    28    29    1
