@<TRIPOS>MOLECULE
24727_ChemDiv_4483-1094
 28 32 0 0 0
SMALL
GASTEIGER
Energy = 0

@<TRIPOS>ATOM
      1 N           0.0790    0.0290    0.0000 N.am    1  LIG1       -0.2186
      2 C          -0.3210   -0.6210    0.0000 C.2     1  LIG1        0.2325
      3 C          -1.4460   -0.4960    0.0000 C.3     1  LIG1        0.0944
      4 C          -1.1880    0.1580    0.0000 C.3     1  LIG1        0.0944
      5 C          -0.4290    0.4830    0.0000 C.2     1  LIG1        0.2325
      6 O          -0.4290    1.2460    0.0000 O.2     1  LIG1       -0.2744
      7 C          -1.1710   -1.0250    0.0000 C.3     1  LIG1        0.0530
      8 C          -2.3790   -1.4880    0.0000 C.ar    1  LIG1       -0.0216
      9 C          -2.6710   -1.9750    0.0000 C.ar    1  LIG1       -0.0216
     10 C          -1.4460   -1.4880    0.0000 C.3     1  LIG1        0.0530
     11 C          -0.4290   -2.0420    0.0000 C.ar    1  LIG1       -0.0216
     12 C          -0.1750   -1.6130    0.0000 C.ar    1  LIG1       -0.0216
     13 C           1.0210   -1.3880    0.0000 C.ar    1  LIG1       -0.0042
     14 C           1.5170   -2.3080    0.0000 C.ar    1  LIG1       -0.0003
     15 C           0.9790   -3.2130    0.0000 C.ar    1  LIG1       -0.0003
     16 C          -0.0830   -3.2000    0.0000 C.ar    1  LIG1       -0.0042
     17 C          -3.8580   -2.1670    0.0000 C.ar    1  LIG1       -0.0042
     18 C          -4.3670   -1.2420    0.0000 C.ar    1  LIG1       -0.0003
     19 C          -3.8130   -0.3250    0.0000 C.ar    1  LIG1       -0.0003
     20 C          -2.7540   -0.3380    0.0000 C.ar    1  LIG1       -0.0042
     21 O           0.2500   -0.9380    0.0000 O.2     1  LIG1       -0.2744
     22 C           0.6920    1.1130    0.0000 C.3     1  LIG1        0.2101
     23 C           1.7750    1.0460    0.0000 C.2     1  LIG1        0.3379
     24 O           2.3540    0.2330    0.0000 O.2     1  LIG1       -0.2482
     25 O           2.1880    1.9790    0.0000 O.3     1  LIG1       -0.4473
     26 C           3.1290    2.1540    0.0000 C.3     1  LIG1        0.2085
     27 C           3.3630    2.8880    0.0000 C.3     1  LIG1        0.0474
     28 C           4.3630    3.2130    0.0000 C.3     1  LIG1        0.0040
@<TRIPOS>BOND
     1     1     2   am
     2     1     5   am
     3     1    22    1
     4     2     3    1
     5     2    21    2
     6     3     4    1
     7     3    10    1
     8     4     5    1
     9     4     7    1
    10     5     6    2
    11     7     8    1
    12     7    12    1
    13     8     9   ar
    14     8    20   ar
    15     9    10    1
    16     9    17   ar
    17    10    11    1
    18    11    12   ar
    19    11    16   ar
    20    12    13   ar
    21    13    14   ar
    22    14    15   ar
    23    15    16   ar
    24    17    18   ar
    25    18    19   ar
    26    19    20   ar
    27    22    23    1
    28    23    24    2
    29    23    25    1
    30    25    26    1
    31    26    27    1
    32    27    28    1
