@<TRIPOS>MOLECULE
24729_ChemDiv_4483-1102
 30 34 0 0 0
SMALL
GASTEIGER
Energy = 0

@<TRIPOS>ATOM
      1 N          -1.0580    0.7420    0.0000 N.am    1  LIG1       -0.2186
      2 C          -1.4500    0.1170    0.0000 C.2     1  LIG1        0.2325
      3 C          -2.5630    0.2420    0.0000 C.3     1  LIG1        0.0944
      4 C          -2.3130    0.8670    0.0000 C.3     1  LIG1        0.0944
      5 C          -1.5540    1.2040    0.0000 C.2     1  LIG1        0.2325
      6 O          -1.5540    1.9460    0.0000 O.2     1  LIG1       -0.2744
      7 C          -2.2880   -0.2830    0.0000 C.3     1  LIG1        0.0530
      8 C          -3.4790   -0.7420    0.0000 C.ar    1  LIG1       -0.0216
      9 C          -3.7750   -1.2250    0.0000 C.ar    1  LIG1       -0.0216
     10 C          -2.5630   -0.7420    0.0000 C.3     1  LIG1        0.0530
     11 C          -1.5540   -1.2880    0.0000 C.ar    1  LIG1       -0.0216
     12 C          -1.3080   -0.8670    0.0000 C.ar    1  LIG1       -0.0216
     13 C          -0.1290   -0.6540    0.0000 C.ar    1  LIG1       -0.0042
     14 C           0.3670   -1.5460    0.0000 C.ar    1  LIG1       -0.0003
     15 C          -0.1710   -2.4380    0.0000 C.ar    1  LIG1       -0.0003
     16 C          -1.2210   -2.4210    0.0000 C.ar    1  LIG1       -0.0042
     17 C          -4.9420   -1.4130    0.0000 C.ar    1  LIG1       -0.0042
     18 C          -5.4330   -0.5000    0.0000 C.ar    1  LIG1       -0.0003
     19 C          -4.9000    0.3960    0.0000 C.ar    1  LIG1       -0.0003
     20 C          -3.8500    0.3830    0.0000 C.ar    1  LIG1       -0.0042
     21 O          -0.8920   -0.1920    0.0000 O.2     1  LIG1       -0.2744
     22 C          -0.3170    1.7630    0.0000 C.3     1  LIG1        0.2101
     23 C           0.7830    1.5460    0.0000 C.2     1  LIG1        0.3379
     24 O           1.2710    0.6790    0.0000 O.2     1  LIG1       -0.2482
     25 O           1.3250    2.4420    0.0000 O.3     1  LIG1       -0.4473
     26 C           2.3750    2.4420    0.0000 C.3     1  LIG1        0.2085
     27 C           2.7920    1.6210    0.0000 C.3     1  LIG1        0.0474
     28 C           3.8580    1.5500    0.0000 C.3     1  LIG1        0.0038
     29 C           4.3920    0.6580    0.0000 C.3     1  LIG1        0.0001
     30 C           5.4290    0.5790    0.0000 C.3     1  LIG1        0.0000
@<TRIPOS>BOND
     1     1     2   am
     2     1     5   am
     3     1    22    1
     4     2     3    1
     5     2    21    2
     6     3     4    1
     7     3    10    1
     8     4     5    1
     9     4     7    1
    10     5     6    2
    11     7     8    1
    12     7    12    1
    13     8     9   ar
    14     8    20   ar
    15     9    10    1
    16     9    17   ar
    17    10    11    1
    18    11    12   ar
    19    11    16   ar
    20    12    13   ar
    21    13    14   ar
    22    14    15   ar
    23    15    16   ar
    24    17    18   ar
    25    18    19   ar
    26    19    20   ar
    27    22    23    1
    28    23    24    2
    29    23    25    1
    30    25    26    1
    31    26    27    1
    32    27    28    1
    33    28    29    1
    34    29    30    1
