@<TRIPOS>MOLECULE
24739_ChemDiv_1763-0114
 26 28 0 0 0
SMALL
GASTEIGER
Energy = 0

@<TRIPOS>ATOM
      1 S          -0.6460   -0.6630    0.0000 S.O2    1  LIG1        0.0633
      2 N           0.2630   -1.0710    0.0000 N.3     1  LIG1       -0.1555
      3 C           0.3830   -2.0630    0.0000 C.3     1  LIG1        0.0958
      4 C           1.2830   -2.4540    0.0000 C.3     1  LIG1        0.0195
      5 C           2.0920   -1.8630    0.0000 C.3     1  LIG1        0.0072
      6 C           3.0130   -2.2460    0.0000 C.3     1  LIG1        0.0264
      7 C           3.8000   -1.6460    0.0000 C.ar    1  LIG1       -0.0222
      8 C           4.7210   -2.0170    0.0000 C.ar    1  LIG1       -0.0043
      9 C           5.5040   -1.4250    0.0000 C.ar    1  LIG1       -0.0003
     10 C           5.3710   -0.4330    0.0000 C.ar    1  LIG1       -0.0000
     11 C           4.4580   -0.0580    0.0000 C.ar    1  LIG1       -0.0003
     12 C           3.6830   -0.6630    0.0000 C.ar    1  LIG1       -0.0043
     13 C           1.9750   -0.8790    0.0000 C.3     1  LIG1        0.0195
     14 C           1.0670   -0.4830    0.0000 C.3     1  LIG1        0.0958
     15 C          -1.5710   -0.2790    0.0000 C.ar    1  LIG1        0.1223
     16 C          -2.3790   -0.9250    0.0000 C.ar    1  LIG1        0.0212
     17 C          -3.3130   -0.5380    0.0000 C.ar    1  LIG1        0.0180
     18 C          -3.4580    0.4330    0.0000 C.ar    1  LIG1        0.0734
     19 N          -4.4170    0.8170    0.0000 N.am    1  LIG1       -0.1792
     20 C          -4.5790    1.8210    0.0000 C.2     1  LIG1        0.2461
     21 O          -5.5080    2.1750    0.0000 O.2     1  LIG1       -0.2730
     22 C          -3.7920    2.4580    0.0000 C.3     1  LIG1        0.0968
     23 C          -2.6710    1.0710    0.0000 C.ar    1  LIG1        0.0180
     24 C          -1.7420    0.7040    0.0000 C.ar    1  LIG1        0.0212
     25 O          -1.0080   -1.5880    0.0000 O.2     1  LIG1       -0.1528
     26 O          -0.2670    0.2920    0.0000 O.2     1  LIG1       -0.1528
@<TRIPOS>BOND
     1     1     2    1
     2     1    15    1
     3     1    25    2
     4     1    26    2
     5     2     3    1
     6     2    14    1
     7     3     4    1
     8     4     5    1
     9     5     6    1
    10     5    13    1
    11     6     7    1
    12     7     8   ar
    13     7    12   ar
    14     8     9   ar
    15     9    10   ar
    16    10    11   ar
    17    11    12   ar
    18    13    14    1
    19    15    16   ar
    20    15    24   ar
    21    16    17   ar
    22    17    18   ar
    23    18    19    1
    24    18    23   ar
    25    19    20   am
    26    20    21    2
    27    20    22    1
    28    23    24   ar
