@<TRIPOS>MOLECULE
24737_ChemDiv_0090-0040
 31 34 0 0 0
SMALL
GASTEIGER
Energy = 0

@<TRIPOS>ATOM
      1 S          -3.4130   -0.1210    0.0000 S.O2    1  LIG1        0.0633
      2 N          -4.2920    0.3880    0.0000 N.3     1  LIG1       -0.1555
      3 C          -4.2920    1.3670    0.0000 C.3     1  LIG1        0.0958
      4 C          -5.1580    1.8630    0.0000 C.3     1  LIG1        0.0192
      5 C          -6.0420    1.4040    0.0000 C.3     1  LIG1        0.0030
      6 C          -6.0420    0.3880    0.0000 C.3     1  LIG1        0.0192
      7 C          -5.1580   -0.1040    0.0000 C.3     1  LIG1        0.0958
      8 C          -2.5380   -0.6250    0.0000 C.ar    1  LIG1        0.1224
      9 C          -1.6670   -0.1210    0.0000 C.ar    1  LIG1        0.0230
     10 C          -0.7880   -0.6460    0.0000 C.ar    1  LIG1        0.0389
     11 C          -0.7880   -1.6000    0.0000 C.ar    1  LIG1        0.1454
     12 O           0.1170   -2.1000    0.0000 O.3     1  LIG1       -0.4535
     13 C           0.9540   -1.5580    0.0000 C.ar    1  LIG1        0.1454
     14 C           0.9380   -0.5460    0.0000 C.ar    1  LIG1        0.0389
     15 C           1.7750   -0.0290    0.0000 C.ar    1  LIG1        0.0230
     16 C           2.6460   -0.4880    0.0000 C.ar    1  LIG1        0.1224
     17 S           3.5000    0.0540    0.0000 S.O2    1  LIG1        0.0633
     18 N           4.3500    0.6040    0.0000 N.3     1  LIG1       -0.1555
     19 C           4.2920    1.5790    0.0000 C.3     1  LIG1        0.0958
     20 C           5.1130    2.1380    0.0000 C.3     1  LIG1        0.0192
     21 C           5.9830    1.6960    0.0000 C.3     1  LIG1        0.0030
     22 C           6.0420    0.7130    0.0000 C.3     1  LIG1        0.0192
     23 C           5.2250    0.1670    0.0000 C.3     1  LIG1        0.0958
     24 O           4.0460   -0.7830    0.0000 O.2     1  LIG1       -0.1528
     25 O           2.9540    0.9040    0.0000 O.2     1  LIG1       -0.1528
     26 C           2.6830   -1.4710    0.0000 C.ar    1  LIG1        0.0230
     27 C           1.8630   -2.0170    0.0000 C.ar    1  LIG1        0.0389
     28 C          -1.6670   -2.1330    0.0000 C.ar    1  LIG1        0.0389
     29 C          -2.5380   -1.6380    0.0000 C.ar    1  LIG1        0.0230
     30 O          -3.9330   -1.0080    0.0000 O.2     1  LIG1       -0.1528
     31 O          -2.9170    0.7420    0.0000 O.2     1  LIG1       -0.1528
@<TRIPOS>BOND
     1     1     2    1
     2     1     8    1
     3     1    30    2
     4     1    31    2
     5     2     3    1
     6     2     7    1
     7     3     4    1
     8     4     5    1
     9     5     6    1
    10     6     7    1
    11     8     9   ar
    12     8    29   ar
    13     9    10   ar
    14    10    11   ar
    15    11    12    1
    16    11    28   ar
    17    12    13    1
    18    13    14   ar
    19    13    27   ar
    20    14    15   ar
    21    15    16   ar
    22    16    17    1
    23    16    26   ar
    24    17    18    1
    25    17    24    2
    26    17    25    2
    27    18    19    1
    28    18    23    1
    29    19    20    1
    30    20    21    1
    31    21    22    1
    32    22    23    1
    33    26    27   ar
    34    28    29   ar
