@<TRIPOS>MOLECULE
24733_ChemDiv_8008-4235
 30 35 0 0 0
SMALL
GASTEIGER
Energy = 0

@<TRIPOS>ATOM
      1 N           1.2330   -0.3460    0.0000 N.am    1  LIG1       -0.2255
      2 C           0.4460    0.2250    0.0000 C.2     1  LIG1        0.2333
      3 C          -0.3420   -0.3460    0.0000 C.3     1  LIG1        0.1070
      4 C          -1.7170   -0.1290    0.0000 C.3     1  LIG1        0.1247
      5 C          -2.3080   -0.9500    0.0000 C.ar    1  LIG1       -0.0091
      6 C          -1.5790   -1.6040    0.0000 C.ar    1  LIG1       -0.0207
      7 C          -0.9290   -0.8710    0.0000 C.3     1  LIG1        0.0531
      8 C          -0.0460   -1.2710    0.0000 C.3     1  LIG1        0.0954
      9 C           0.9380   -1.2710    0.0000 C.2     1  LIG1        0.2323
     10 O           1.5290   -2.1000    0.0000 O.2     1  LIG1       -0.2744
     11 C          -1.2040    0.1420    0.0000 C.ar    1  LIG1       -0.0207
     12 C          -1.9000    0.8380    0.0000 C.ar    1  LIG1       -0.0091
     13 C          -1.6380    1.7830    0.0000 C.ar    1  LIG1       -0.0033
     14 C          -0.6920    2.0420    0.0000 C.ar    1  LIG1       -0.0003
     15 C          -0.0080    1.3500    0.0000 C.ar    1  LIG1       -0.0003
     16 C          -0.2630    0.4040    0.0000 C.ar    1  LIG1       -0.0042
     17 C          -1.7790   -2.5670    0.0000 C.ar    1  LIG1       -0.0042
     18 C          -2.7080   -2.8830    0.0000 C.ar    1  LIG1       -0.0003
     19 C          -3.4540   -2.2330    0.0000 C.ar    1  LIG1       -0.0003
     20 C          -3.2380   -1.2710    0.0000 C.ar    1  LIG1       -0.0033
     21 C          -2.6210    0.2250    0.0000 C.1     1  LIG1        0.0799
     22 N          -3.5540    0.5830    0.0000 N.1     1  LIG1       -0.1953
     23 O           0.4670    1.2130    0.0000 O.2     1  LIG1       -0.2744
     24 C           2.1830   -0.0420    0.0000 C.3     1  LIG1        0.1274
     25 C           2.3880    0.9290    0.0000 C.ar    1  LIG1       -0.0019
     26 C           1.6500    1.5960    0.0000 C.ar    1  LIG1       -0.0026
     27 C           1.8540    2.5790    0.0000 C.ar    1  LIG1       -0.0003
     28 C           2.8000    2.8880    0.0000 C.ar    1  LIG1       -0.0000
     29 C           3.5500    2.2170    0.0000 C.ar    1  LIG1       -0.0003
     30 C           3.3330    1.2290    0.0000 C.ar    1  LIG1       -0.0026
@<TRIPOS>BOND
     1     1     2   am
     2     1     9   am
     3     1    24    1
     4     2     3    1
     5     2    23    2
     6     3     4    1
     7     3     8    1
     8     4     5    1
     9     4    12    1
    10     4    21    1
    11     5     6   ar
    12     5    20   ar
    13     6     7    1
    14     6    17   ar
    15     7     8    1
    16     7    11    1
    17     8     9    1
    18     9    10    2
    19    11    12   ar
    20    11    16   ar
    21    12    13   ar
    22    13    14   ar
    23    14    15   ar
    24    15    16   ar
    25    17    18   ar
    26    18    19   ar
    27    19    20   ar
    28    21    22    3
    29    24    25    1
    30    25    26   ar
    31    25    30   ar
    32    26    27   ar
    33    27    28   ar
    34    28    29   ar
    35    29    30   ar
