@<TRIPOS>MOLECULE
24731_ChemDiv_8006-6686
 29 33 0 0 0
SMALL
GASTEIGER
Energy = 0

@<TRIPOS>ATOM
      1 C           0.8500   -1.2000    0.0000 C.3     1  LIG1        0.0976
      2 C           0.1460    0.1210    0.0000 C.3     1  LIG1        0.0985
      3 C          -0.7960    0.4460    0.0000 C.2     1  LIG1        0.2322
      4 N          -0.7960    1.4420    0.0000 N.am    1  LIG1       -0.2272
      5 C           0.2420    1.7670    0.0000 C.2     1  LIG1        0.2321
      6 C           0.8250    0.9420    0.0000 C.3     1  LIG1        0.0945
      7 C           0.8250   -0.2790    0.0000 C.3     1  LIG1        0.0530
      8 C           0.0130   -0.7630    0.0000 C.ar    1  LIG1       -0.0215
      9 C           0.0130   -1.6960    0.0000 C.ar    1  LIG1       -0.0175
     10 C          -0.8210   -2.1790    0.0000 C.ar    1  LIG1       -0.0041
     11 C          -1.6250   -1.6960    0.0000 C.ar    1  LIG1       -0.0003
     12 C          -1.6250   -0.7630    0.0000 C.ar    1  LIG1       -0.0003
     13 C          -0.8210   -0.2670    0.0000 C.ar    1  LIG1       -0.0042
     14 C           1.6960   -0.7170    0.0000 C.ar    1  LIG1       -0.0215
     15 C           1.6960   -1.6710    0.0000 C.ar    1  LIG1       -0.0175
     16 C           2.5210   -2.1460    0.0000 C.ar    1  LIG1       -0.0041
     17 C           3.3540   -1.6710    0.0000 C.ar    1  LIG1       -0.0003
     18 C           3.3540   -0.7170    0.0000 C.ar    1  LIG1       -0.0003
     19 C           2.5210   -0.2540    0.0000 C.ar    1  LIG1       -0.0042
     20 O           0.5580    2.7080    0.0000 O.2     1  LIG1       -0.2744
     21 C          -1.6540    1.9130    0.0000 C.3     1  LIG1        0.1363
     22 C          -2.5000    1.4880    0.0000 C.3     1  LIG1        0.2040
     23 O          -3.3580    1.8880    0.0000 O.3     1  LIG1       -0.2185
     24 O          -1.6880   -0.0500    0.0000 O.2     1  LIG1       -0.2744
     25 C           0.8500   -2.1920    0.0000 C.3     1  LIG1        0.2432
     26 O          -0.0210   -2.7040    0.0000 O.3     1  LIG1       -0.3273
     27 C          -0.9790   -2.7040    0.0000 C.3     1  LIG1        0.1769
     28 O           1.7080   -2.7040    0.0000 O.3     1  LIG1       -0.3273
     29 C           2.7250   -2.7040    0.0000 C.3     1  LIG1        0.1769
@<TRIPOS>BOND
     1     1     2    1
     2     1     9    1
     3     1    15    1
     4     1    25    1
     5     2     3    1
     6     2     6    1
     7     3     4   am
     8     3    24    2
     9     4     5   am
    10     4    21    1
    11     5     6    1
    12     5    20    2
    13     6     7    1
    14     7     8    1
    15     7    14    1
    16     8     9   ar
    17     8    13   ar
    18     9    10   ar
    19    10    11   ar
    20    11    12   ar
    21    12    13   ar
    22    14    15   ar
    23    14    19   ar
    24    15    16   ar
    25    16    17   ar
    26    17    18   ar
    27    18    19   ar
    28    21    22    1
    29    22    23    1
    30    25    26    1
    31    25    28    1
    32    26    27    1
    33    28    29    1
