@<TRIPOS>MOLECULE
24743_ChemDiv_3448-9192
 27 30 0 0 0
SMALL
GASTEIGER
Energy = 0

@<TRIPOS>ATOM
      1 S          -0.7790   -0.7880    0.0000 S.O2    1  LIG1        0.0633
      2 C          -1.7750   -0.7880    0.0000 C.ar    1  LIG1        0.1224
      3 C          -2.2630    0.0670    0.0000 C.ar    1  LIG1        0.0215
      4 C          -3.2750    0.0670    0.0000 C.ar    1  LIG1        0.0353
      5 C          -3.7880   -0.7880    0.0000 C.ar    1  LIG1        0.1387
      6 C          -3.2750   -1.6830    0.0000 C.ar    1  LIG1        0.0383
      7 C          -2.2630   -1.6830    0.0000 C.ar    1  LIG1        0.0230
      8 O          -4.7790   -0.7670    0.0000 O.3     1  LIG1       -0.4714
      9 C          -5.2330    0.1000    0.0000 C.3     1  LIG1        0.2525
     10 C          -3.7670    0.9380    0.0000 C.ar    1  LIG1        0.0031
     11 C          -3.2710    1.8080    0.0000 C.ar    1  LIG1        0.0001
     12 C          -2.2630    1.8080    0.0000 C.ar    1  LIG1        0.0000
     13 C          -1.7630    0.9380    0.0000 C.ar    1  LIG1        0.0014
     14 N           0.2210   -0.7580    0.0000 N.3     1  LIG1       -0.1555
     15 C           0.7170   -1.5920    0.0000 C.3     1  LIG1        0.0961
     16 C           1.7040   -1.6080    0.0000 C.3     1  LIG1        0.0235
     17 C           2.2330   -0.7580    0.0000 C.3     1  LIG1        0.0252
     18 C           1.7210    0.1170    0.0000 C.3     1  LIG1        0.0235
     19 C           0.7290    0.1170    0.0000 C.3     1  LIG1        0.0961
     20 C           3.2250   -0.7670    0.0000 C.ar    1  LIG1       -0.0224
     21 C           3.7170   -1.6330    0.0000 C.ar    1  LIG1       -0.0043
     22 C           4.7080   -1.6580    0.0000 C.ar    1  LIG1       -0.0003
     23 C           5.2290   -0.8000    0.0000 C.ar    1  LIG1       -0.0000
     24 C           4.7420    0.0670    0.0000 C.ar    1  LIG1       -0.0003
     25 C           3.7330    0.0880    0.0000 C.ar    1  LIG1       -0.0043
     26 O          -0.7790   -1.8040    0.0000 O.2     1  LIG1       -0.1528
     27 O          -0.7790    0.1960    0.0000 O.2     1  LIG1       -0.1528
@<TRIPOS>BOND
     1     1     2    1
     2     1    14    1
     3     1    26    2
     4     1    27    2
     5     2     3   ar
     6     2     7   ar
     7     3     4   ar
     8     3    13   ar
     9     4     5   ar
    10     4    10   ar
    11     5     6   ar
    12     5     8    1
    13     6     7   ar
    14     8     9    1
    15    10    11   ar
    16    11    12   ar
    17    12    13   ar
    18    14    15    1
    19    14    19    1
    20    15    16    1
    21    16    17    1
    22    17    18    1
    23    17    20    1
    24    18    19    1
    25    20    21   ar
    26    20    25   ar
    27    21    22   ar
    28    22    23   ar
    29    23    24   ar
    30    24    25   ar
