@<TRIPOS>MOLECULE
24741_ChemDiv_1786-0192
 30 33 0 0 0
SMALL
GASTEIGER
Energy = 0

@<TRIPOS>ATOM
      1 S           1.9750   -0.8580    0.0000 S.O2    1  LIG1        0.0633
      2 C           0.9710   -0.8580    0.0000 C.ar    1  LIG1        0.1222
      3 C           0.4750    0.0130    0.0000 C.ar    1  LIG1        0.0199
      4 C          -0.5290    0.0130    0.0000 C.ar    1  LIG1        0.0199
      5 C          -1.0330    0.8710    0.0000 C.ar    1  LIG1        0.1222
      6 S          -2.0250    0.8710    0.0000 S.O2    1  LIG1        0.0633
      7 N          -3.0210    0.8710    0.0000 N.3     1  LIG1       -0.1555
      8 C          -3.5500    1.7380    0.0000 C.3     1  LIG1        0.0958
      9 C          -4.5170    1.7380    0.0000 C.3     1  LIG1        0.0192
     10 C          -5.0170    0.8710    0.0000 C.3     1  LIG1        0.0029
     11 C          -4.5170    0.0130    0.0000 C.3     1  LIG1        0.0192
     12 C          -3.5170    0.0130    0.0000 C.3     1  LIG1        0.0958
     13 C          -6.0000    0.8710    0.0000 C.3     1  LIG1        0.0001
     14 O          -2.0250   -0.1250    0.0000 O.2     1  LIG1       -0.1528
     15 O          -2.0250    1.8670    0.0000 O.2     1  LIG1       -0.1528
     16 C          -0.5290    1.7420    0.0000 C.ar    1  LIG1        0.0199
     17 C           0.4750    1.7420    0.0000 C.ar    1  LIG1        0.0014
     18 C           0.9790    0.8710    0.0000 C.ar    1  LIG1        0.0014
     19 C          -1.0250   -0.8580    0.0000 C.ar    1  LIG1        0.0014
     20 C          -0.5290   -1.7290    0.0000 C.ar    1  LIG1        0.0014
     21 C           0.4750   -1.7290    0.0000 C.ar    1  LIG1        0.0199
     22 N           2.9750   -0.8580    0.0000 N.3     1  LIG1       -0.1555
     23 C           3.5040   -1.7290    0.0000 C.3     1  LIG1        0.0958
     24 C           4.5080   -1.7290    0.0000 C.3     1  LIG1        0.0192
     25 C           5.0000   -0.8580    0.0000 C.3     1  LIG1        0.0029
     26 C           4.5080    0.0130    0.0000 C.3     1  LIG1        0.0192
     27 C           3.5040    0.0130    0.0000 C.3     1  LIG1        0.0958
     28 C           5.9960   -0.8580    0.0000 C.3     1  LIG1        0.0001
     29 O           1.9750    0.1460    0.0000 O.2     1  LIG1       -0.1528
     30 O           1.9750   -1.8630    0.0000 O.2     1  LIG1       -0.1528
@<TRIPOS>BOND
     1     1     2    1
     2     1    22    1
     3     1    29    2
     4     1    30    2
     5     2     3   ar
     6     2    21   ar
     7     3     4   ar
     8     3    18   ar
     9     4     5   ar
    10     4    19   ar
    11     5     6    1
    12     5    16   ar
    13     6     7    1
    14     6    14    2
    15     6    15    2
    16     7     8    1
    17     7    12    1
    18     8     9    1
    19     9    10    1
    20    10    11    1
    21    10    13    1
    22    11    12    1
    23    16    17   ar
    24    17    18   ar
    25    19    20   ar
    26    20    21   ar
    27    22    23    1
    28    22    27    1
    29    23    24    1
    30    24    25    1
    31    25    26    1
    32    25    28    1
    33    26    27    1
