@<TRIPOS>MOLECULE
24749_ChemDiv_8010-0443
 25 27 0 0 0
SMALL
GASTEIGER
Energy = 0

@<TRIPOS>ATOM
      1 S          -1.0040    0.8710    0.0000 S.O2    1  LIG1        0.0662
      2 C          -1.4920    1.7330    0.0000 C.ar    1  LIG1        0.1564
      3 C          -2.4880    1.7460    0.0000 C.ar    1  LIG1        0.0297
      4 C          -2.9750    2.5960    0.0000 C.ar    1  LIG1        0.0361
      5 C          -2.4630    3.4750    0.0000 C.ar    1  LIG1        0.0099
      6 C          -1.4920    3.4750    0.0000 C.ar    1  LIG1        0.0388
      7 C          -0.9920    2.5960    0.0000 C.ar    1  LIG1        0.1572
      8 O           0.0080    2.5960    0.0000 O.3     1  LIG1       -0.4701
      9 C           0.5040    3.4750    0.0000 C.3     1  LIG1        0.2525
     10 BR         -3.9880    2.6130    0.0000 Br      1  LIG1       -0.0490
     11 N          -0.4960    0.0080    0.0000 N.3     1  LIG1       -0.1554
     12 C          -1.0040   -0.8580    0.0000 C.3     1  LIG1        0.0958
     13 C          -0.5170   -1.7210    0.0000 C.3     1  LIG1        0.0195
     14 C           0.4920   -1.7210    0.0000 C.3     1  LIG1        0.0072
     15 C           0.9790   -2.5920    0.0000 C.3     1  LIG1        0.0264
     16 C           1.9750   -2.5920    0.0000 C.ar    1  LIG1       -0.0222
     17 C           2.4880   -3.4710    0.0000 C.ar    1  LIG1       -0.0043
     18 C           3.4830   -3.4710    0.0000 C.ar    1  LIG1       -0.0003
     19 C           3.9830   -2.5920    0.0000 C.ar    1  LIG1       -0.0000
     20 C           3.4830   -1.7290    0.0000 C.ar    1  LIG1       -0.0003
     21 C           2.4710   -1.7290    0.0000 C.ar    1  LIG1       -0.0043
     22 C           0.9880   -0.8670    0.0000 C.3     1  LIG1        0.0195
     23 C           0.4920    0.0080    0.0000 C.3     1  LIG1        0.0958
     24 O          -1.5000    0.0080    0.0000 O.2     1  LIG1       -0.1527
     25 O           0.0080    0.8710    0.0000 O.2     1  LIG1       -0.1527
@<TRIPOS>BOND
     1     1     2    1
     2     1    11    1
     3     1    24    2
     4     1    25    2
     5     2     3   ar
     6     2     7   ar
     7     3     4   ar
     8     4     5   ar
     9     4    10    1
    10     5     6   ar
    11     6     7   ar
    12     7     8    1
    13     8     9    1
    14    11    12    1
    15    11    23    1
    16    12    13    1
    17    13    14    1
    18    14    15    1
    19    14    22    1
    20    15    16    1
    21    16    17   ar
    22    16    21   ar
    23    17    18   ar
    24    18    19   ar
    25    19    20   ar
    26    20    21   ar
    27    22    23    1
