@<TRIPOS>MOLECULE
24747_ChemDiv_4237-0480
 29 31 0 0 0
SMALL
GASTEIGER
Energy = 0

@<TRIPOS>ATOM
      1 S           0.3170   -0.4000    0.0000 S.O2    1  LIG1        0.0633
      2 N           0.2750    0.5960    0.0000 N.3     1  LIG1       -0.1555
      3 C          -0.5880    1.0960    0.0000 C.3     1  LIG1        0.0967
      4 C          -0.5920    2.0960    0.0000 C.3     1  LIG1        0.0339
      5 C           0.2670    2.5960    0.0000 C.3     1  LIG1        0.1111
      6 C          -0.4500    3.3210    0.0000 C.2     1  LIG1        0.3198
      7 O          -0.1580    4.2710    0.0000 O.2     1  LIG1       -0.2498
      8 O          -1.3830    3.0580    0.0000 O.3     1  LIG1       -0.4483
      9 C          -1.6710    2.1080    0.0000 C.3     1  LIG1        0.2086
     10 C          -2.6420    1.8460    0.0000 C.3     1  LIG1        0.0513
     11 C           1.1330    2.1170    0.0000 C.3     1  LIG1        0.0339
     12 C           1.1380    1.1250    0.0000 C.3     1  LIG1        0.0967
     13 C           0.9670    3.2920    0.0000 C.ar    1  LIG1       -0.0127
     14 C           0.6960    4.2710    0.0000 C.ar    1  LIG1       -0.0038
     15 C           1.4000    4.9710    0.0000 C.ar    1  LIG1       -0.0003
     16 C           2.3630    4.6750    0.0000 C.ar    1  LIG1       -0.0000
     17 C           2.6380    3.7420    0.0000 C.ar    1  LIG1       -0.0003
     18 C           1.9380    3.0250    0.0000 C.ar    1  LIG1       -0.0038
     19 C           0.3170   -1.4210    0.0000 C.ar    1  LIG1        0.1222
     20 C          -0.5380   -1.9210    0.0000 C.ar    1  LIG1        0.0200
     21 C          -0.5290   -2.9170    0.0000 C.ar    1  LIG1        0.0042
     22 C           0.3250   -3.4130    0.0000 C.ar    1  LIG1        0.0348
     23 C           0.2960   -4.4080    0.0000 C.2     1  LIG1        0.1735
     24 O          -0.5420   -4.9460    0.0000 O.2     1  LIG1       -0.2913
     25 C           1.0960   -4.9710    0.0000 C.3     1  LIG1        0.0773
     26 C           1.2170   -2.9250    0.0000 C.ar    1  LIG1        0.0042
     27 C           1.2170   -1.9250    0.0000 C.ar    1  LIG1        0.0200
     28 O           1.3290   -0.4000    0.0000 O.2     1  LIG1       -0.1528
     29 O          -0.6960   -0.4290    0.0000 O.2     1  LIG1       -0.1528
@<TRIPOS>BOND
     1     1     2    1
     2     1    19    1
     3     1    28    2
     4     1    29    2
     5     2     3    1
     6     2    12    1
     7     3     4    1
     8     4     5    1
     9     5     6    1
    10     5    11    1
    11     5    13    1
    12     6     7    2
    13     6     8    1
    14     8     9    1
    15     9    10    1
    16    11    12    1
    17    13    14   ar
    18    13    18   ar
    19    14    15   ar
    20    15    16   ar
    21    16    17   ar
    22    17    18   ar
    23    19    20   ar
    24    19    27   ar
    25    20    21   ar
    26    21    22   ar
    27    22    23    1
    28    22    26   ar
    29    23    24    2
    30    23    25    1
    31    26    27   ar
