@<TRIPOS>MOLECULE
24745_ChemDiv_4130-2294
 23 25 0 0 0
SMALL
GASTEIGER
Energy = 0

@<TRIPOS>ATOM
      1 S          -1.0130   -0.8000    0.0000 S.O2    1  LIG1        0.0633
      2 N          -0.0130   -0.8000    0.0000 N.3     1  LIG1       -0.1555
      3 C           0.4960    0.0710    0.0000 C.3     1  LIG1        0.0958
      4 C           1.4960    0.0710    0.0000 C.3     1  LIG1        0.0195
      5 C           1.9920   -0.8000    0.0000 C.3     1  LIG1        0.0072
      6 C           2.9920   -0.8000    0.0000 C.3     1  LIG1        0.0264
      7 C           3.4830    0.0710    0.0000 C.ar    1  LIG1       -0.0222
      8 C           2.9920    0.9290    0.0000 C.ar    1  LIG1       -0.0043
      9 C           3.4830    1.8000    0.0000 C.ar    1  LIG1       -0.0003
     10 C           4.4830    1.8040    0.0000 C.ar    1  LIG1       -0.0000
     11 C           4.9960    0.9380    0.0000 C.ar    1  LIG1       -0.0003
     12 C           4.4830    0.0710    0.0000 C.ar    1  LIG1       -0.0043
     13 C           1.4960   -1.6710    0.0000 C.3     1  LIG1        0.0195
     14 C           0.4960   -1.6670    0.0000 C.3     1  LIG1        0.0958
     15 C          -2.0130   -0.8000    0.0000 C.ar    1  LIG1        0.1222
     16 C          -2.5080    0.0710    0.0000 C.ar    1  LIG1        0.0208
     17 C          -3.4920    0.0710    0.0000 C.ar    1  LIG1        0.0128
     18 C          -4.0000   -0.8000    0.0000 C.ar    1  LIG1        0.0578
     19 C          -3.4920   -1.6670    0.0000 C.ar    1  LIG1        0.0128
     20 C          -2.5080   -1.6670    0.0000 C.ar    1  LIG1        0.0208
     21 CL         -5.0000   -0.8000    0.0000 Cl      1  LIG1       -0.0822
     22 O          -0.9960    0.2040    0.0000 O.2     1  LIG1       -0.1528
     23 O          -1.0130   -1.8000    0.0000 O.2     1  LIG1       -0.1528
@<TRIPOS>BOND
     1     1     2    1
     2     1    15    1
     3     1    22    2
     4     1    23    2
     5     2     3    1
     6     2    14    1
     7     3     4    1
     8     4     5    1
     9     5     6    1
    10     5    13    1
    11     6     7    1
    12     7     8   ar
    13     7    12   ar
    14     8     9   ar
    15     9    10   ar
    16    10    11   ar
    17    11    12   ar
    18    13    14    1
    19    15    16   ar
    20    15    20   ar
    21    16    17   ar
    22    17    18   ar
    23    18    19   ar
    24    18    21    1
    25    19    20   ar
