@<TRIPOS>MOLECULE
24761_ChemDiv_4611-0280
 16 17 0 0 0
SMALL
GASTEIGER
Energy = 0

@<TRIPOS>ATOM
      1 N           1.2080   -0.1080    0.0000 N.am    1  LIG1       -0.1588
      2 C           2.1670   -0.1080    0.0000 C.2     1  LIG1        0.2540
      3 C           2.6330    0.7380    0.0000 C.3     1  LIG1        0.1301
      4 C           2.1460    1.5630    0.0000 C.2     1  LIG1        0.0643
      5 N           1.1920    1.5500    0.0000 N.2     1  LIG1       -0.1798
      6 C           2.6170    2.4000    0.0000 C.3     1  LIG1        0.0494
      7 O           2.6540   -0.9210    0.0000 O.2     1  LIG1       -0.2724
      8 C           0.5380   -0.8040    0.0000 C.ar    1  LIG1        0.0768
      9 C          -0.3880   -0.5420    0.0000 C.ar    1  LIG1        0.0180
     10 C          -1.0630   -1.2380    0.0000 C.ar    1  LIG1        0.0153
     11 C          -1.9960   -0.9960    0.0000 C.2     1  LIG1        0.0729
     12 O          -2.2460   -0.0790    0.0000 O.co2   1  LIG1       -0.5446
     13 O          -2.6580   -1.6880    0.0000 O.co2   1  LIG1       -0.5446
     14 C          -0.8040   -2.1670    0.0000 C.ar    1  LIG1        0.0012
     15 C           0.1330   -2.3960    0.0000 C.ar    1  LIG1        0.0014
     16 C           0.7960   -1.7080    0.0000 C.ar    1  LIG1        0.0168
@<TRIPOS>BOND
     1     1     2   am
     2     1     5    1
     3     1     8    1
     4     2     3    1
     5     2     7    2
     6     3     4    1
     7     4     5    2
     8     4     6    1
     9     8     9   ar
    10     8    16   ar
    11     9    10   ar
    12    10    11    1
    13    10    14   ar
    14    11    12   ar
    15    11    13   ar
    16    14    15   ar
    17    15    16   ar
