@<TRIPOS>MOLECULE
24767_ChemDiv_8015-0069
 17 18 0 0 0
SMALL
GASTEIGER
Energy = 0

@<TRIPOS>ATOM
      1 N           0.7750    0.4170    0.0000 N.am    1  LIG1       -0.1587
      2 N          -0.2000    0.2710    0.0000 N.2     1  LIG1       -0.1792
      3 C          -0.6210    1.1540    0.0000 C.2     1  LIG1        0.0751
      4 C           0.0830    1.8330    0.0000 C.3     1  LIG1        0.1306
      5 C           0.9580    1.3880    0.0000 C.2     1  LIG1        0.2540
      6 O           1.8710    1.8580    0.0000 O.2     1  LIG1       -0.2724
      7 C          -1.6290    1.3210    0.0000 C.3     1  LIG1        0.1527
      8 C          -2.2750    0.5670    0.0000 C.2     1  LIG1        0.3229
      9 O          -3.2830    0.7460    0.0000 O.2     1  LIG1       -0.2497
     10 O          -1.9460   -0.3460    0.0000 O.3     1  LIG1       -0.4441
     11 C          -0.9460   -0.5380    0.0000 C.3     1  LIG1        0.2556
     12 C           1.5670   -0.2330    0.0000 C.ar    1  LIG1        0.0767
     13 C           2.5080    0.1130    0.0000 C.ar    1  LIG1        0.0168
     14 C           3.2790   -0.5170    0.0000 C.ar    1  LIG1        0.0013
     15 C           3.1210   -1.5080    0.0000 C.ar    1  LIG1        0.0001
     16 C           2.1750   -1.8540    0.0000 C.ar    1  LIG1        0.0013
     17 C           1.4080   -1.2210    0.0000 C.ar    1  LIG1        0.0168
@<TRIPOS>BOND
     1     1     2    1
     2     1     5   am
     3     1    12    1
     4     2     3    2
     5     3     4    1
     6     3     7    1
     7     4     5    1
     8     5     6    2
     9     7     8    1
    10     8     9    2
    11     8    10    1
    12    10    11    1
    13    12    13   ar
    14    12    17   ar
    15    13    14   ar
    16    14    15   ar
    17    15    16   ar
    18    16    17   ar
