@<TRIPOS>MOLECULE
24765_ChemDiv_8013-1190
 19 20 0 0 0
SMALL
GASTEIGER
Energy = 0

@<TRIPOS>ATOM
      1 N           0.0040   -0.4170    0.0000 N.am    1  LIG1       -0.1587
      2 N           0.4750    0.3830    0.0000 N.2     1  LIG1       -0.1792
      3 C           1.4500    0.3830    0.0000 C.2     1  LIG1        0.0751
      4 C           1.4500   -1.1920    0.0000 C.3     1  LIG1        0.1306
      5 C           0.5000   -1.1920    0.0000 C.2     1  LIG1        0.2540
      6 O           0.0290   -2.0540    0.0000 O.2     1  LIG1       -0.2724
      7 C           1.9710    1.2210    0.0000 C.3     1  LIG1        0.1527
      8 C           2.9380    1.2210    0.0000 C.2     1  LIG1        0.3229
      9 O           3.4210    0.2830    0.0000 O.2     1  LIG1       -0.2497
     10 O           3.3920    2.0580    0.0000 O.3     1  LIG1       -0.4441
     11 C           4.3830    2.0580    0.0000 C.3     1  LIG1        0.2556
     12 C          -0.9330   -0.4170    0.0000 C.ar    1  LIG1        0.0769
     13 C          -1.4170   -1.2420    0.0000 C.ar    1  LIG1        0.0199
     14 C          -2.3830   -1.2420    0.0000 C.ar    1  LIG1        0.0382
     15 C          -2.8380   -0.4170    0.0000 C.ar    1  LIG1        0.1388
     16 C          -2.3540    0.4210    0.0000 C.ar    1  LIG1        0.0382
     17 C          -1.3920    0.4210    0.0000 C.ar    1  LIG1        0.0199
     18 O          -3.8290   -0.4170    0.0000 O.3     1  LIG1       -0.4714
     19 C          -4.3880   -1.2920    0.0000 C.3     1  LIG1        0.2525
@<TRIPOS>BOND
     1     1     2    1
     2     1     5   am
     3     1    12    1
     4     2     3    2
     5     3     4    1
     6     3     7    1
     7     4     5    1
     8     5     6    2
     9     7     8    1
    10     8     9    2
    11     8    10    1
    12    10    11    1
    13    12    13   ar
    14    12    17   ar
    15    13    14   ar
    16    14    15   ar
    17    15    16   ar
    18    15    18    1
    19    16    17   ar
    20    18    19    1
