@<TRIPOS>MOLECULE
24766_ChemDiv_8015-7178
 20 22 0 0 0
SMALL
GASTEIGER
Energy = 0

@<TRIPOS>ATOM
      1 C           0.1420    0.2250    0.0000 C.ar    1  LIG1        0.0580
      2 N          -0.4420   -0.5790    0.0000 N.ar    1  LIG1       -0.2804
      3 C          -1.3960   -0.2790    0.0000 C.ar    1  LIG1        0.0659
      4 C          -1.4040    0.7210    0.0000 C.ar    1  LIG1        0.0134
      5 C          -0.4540    1.0380    0.0000 C.ar    1  LIG1       -0.0054
      6 C          -0.0500    1.9580    0.0000 C.3     1  LIG1        0.0491
      7 C           0.9500    2.0710    0.0000 C.3     1  LIG1        0.0984
      8 N           1.5420    1.2580    0.0000 N.am    1  LIG1       -0.2756
      9 C           1.1380    0.3330    0.0000 C.3     1  LIG1        0.1137
     10 C           1.7290   -0.4670    0.0000 C.3     1  LIG1        0.0280
     11 C           2.5290    1.3580    0.0000 C.2     1  LIG1        0.2264
     12 O           3.1250    0.5580    0.0000 O.2     1  LIG1       -0.2748
     13 C           2.9380    2.2710    0.0000 C.3     1  LIG1        0.0948
     14 C          -2.2670    1.2250    0.0000 C.ar    1  LIG1        0.0012
     15 C          -3.1290    0.7210    0.0000 C.ar    1  LIG1        0.0001
     16 C          -3.1290   -0.2790    0.0000 C.ar    1  LIG1        0.0015
     17 C          -2.2670   -0.7750    0.0000 C.ar    1  LIG1        0.0176
     18 C          -0.1330   -1.5290    0.0000 C.2     1  LIG1        0.2415
     19 O           0.8380   -1.7290    0.0000 O.2     1  LIG1       -0.2716
     20 C          -0.7960   -2.2670    0.0000 C.3     1  LIG1        0.0983
@<TRIPOS>BOND
     1     1     2   ar
     2     1     5   ar
     3     1     9    1
     4     2     3   ar
     5     2    18   am
     6     3     4   ar
     7     3    17   ar
     8     4     5   ar
     9     4    14   ar
    10     5     6    1
    11     6     7    1
    12     7     8    1
    13     8     9    1
    14     8    11   am
    15     9    10    1
    16    11    12    2
    17    11    13    1
    18    14    15   ar
    19    15    16   ar
    20    16    17   ar
    21    18    19    2
    22    18    20    1
