@<TRIPOS>MOLECULE
24769_ChemDiv_8016-4074
 29 32 0 0 0
SMALL
GASTEIGER
Energy = 0

@<TRIPOS>ATOM
      1 S          -1.7460   -0.4290    0.0000 S.O2    1  LIG1        0.0633
      2 N          -0.7540   -0.4290    0.0000 N.3     1  LIG1       -0.1555
      3 C          -0.2540   -1.3000    0.0000 C.3     1  LIG1        0.0966
      4 C           0.7420   -1.3000    0.0000 C.3     1  LIG1        0.0319
      5 C           1.2420   -0.4290    0.0000 C.3     1  LIG1        0.0906
      6 C           1.7420   -1.3000    0.0000 C.2     1  LIG1        0.2287
      7 N           2.7420   -1.3000    0.0000 N.am    1  LIG1       -0.2741
      8 C           3.2420   -0.4290    0.0000 C.3     1  LIG1        0.1255
      9 C           4.2420   -0.4290    0.0000 C.3     1  LIG1        0.1636
     10 O           4.7500   -1.3000    0.0000 O.3     1  LIG1       -0.3501
     11 C           4.2420   -2.1630    0.0000 C.3     1  LIG1        0.1636
     12 C           3.2420   -2.1630    0.0000 C.3     1  LIG1        0.1255
     13 O           1.2420   -2.1630    0.0000 O.2     1  LIG1       -0.2745
     14 C           0.7420    0.4290    0.0000 C.3     1  LIG1        0.0319
     15 C          -0.2540    0.4290    0.0000 C.3     1  LIG1        0.0966
     16 C           1.7420    0.4290    0.0000 C.ar    1  LIG1       -0.0145
     17 C           2.7420    0.4290    0.0000 C.ar    1  LIG1       -0.0038
     18 C           3.2420    1.2960    0.0000 C.ar    1  LIG1       -0.0003
     19 C           2.7420    2.1670    0.0000 C.ar    1  LIG1       -0.0000
     20 C           1.7420    2.1670    0.0000 C.ar    1  LIG1       -0.0003
     21 C           1.2420    1.2960    0.0000 C.ar    1  LIG1       -0.0038
     22 O          -1.7460   -1.4290    0.0000 O.2     1  LIG1       -0.1528
     23 O          -1.7460    0.5670    0.0000 O.2     1  LIG1       -0.1528
     24 C          -2.7460   -0.4290    0.0000 C.ar    1  LIG1        0.1222
     25 C          -3.2540   -1.3000    0.0000 C.ar    1  LIG1        0.0199
     26 C          -4.2540   -1.3000    0.0000 C.ar    1  LIG1        0.0014
     27 C          -4.7540   -0.4290    0.0000 C.ar    1  LIG1        0.0001
     28 C          -4.2540    0.4290    0.0000 C.ar    1  LIG1        0.0014
     29 C          -3.2460    0.4290    0.0000 C.ar    1  LIG1        0.0199
@<TRIPOS>BOND
     1     1     2    1
     2     1    22    2
     3     1    23    2
     4     1    24    1
     5     2     3    1
     6     2    15    1
     7     3     4    1
     8     4     5    1
     9     5     6    1
    10     5    14    1
    11     5    16    1
    12     6     7   am
    13     6    13    2
    14     7     8    1
    15     7    12    1
    16     8     9    1
    17     9    10    1
    18    10    11    1
    19    11    12    1
    20    14    15    1
    21    16    17   ar
    22    16    21   ar
    23    17    18   ar
    24    18    19   ar
    25    19    20   ar
    26    20    21   ar
    27    24    25   ar
    28    24    29   ar
    29    25    26   ar
    30    26    27   ar
    31    27    28   ar
    32    28    29   ar
