@<TRIPOS>MOLECULE
24777_ChemDiv_D216-0264
 24 26 0 0 0
SMALL
GASTEIGER
Energy = 0

@<TRIPOS>ATOM
      1 S           2.4330    0.1880    0.0000 S.O2    1  LIG1        0.0633
      2 N           1.5750   -0.3080    0.0000 N.3     1  LIG1       -0.1553
      3 C           1.5750   -1.3170    0.0000 C.3     1  LIG1        0.0995
      4 C           0.7130   -1.8170    0.0000 C.3     1  LIG1        0.0627
      5 C          -0.1500   -1.3210    0.0000 C.3     1  LIG1        0.1688
      6 C          -0.1670   -0.3250    0.0000 C.3     1  LIG1        0.0627
      7 C           0.7000    0.1790    0.0000 C.3     1  LIG1        0.0995
      8 O          -1.0210   -1.8330    0.0000 O.3     1  LIG1       -0.4791
      9 C          -1.9710   -1.5250    0.0000 C.ar    1  LIG1        0.1386
     10 C          -2.1710   -0.5460    0.0000 C.ar    1  LIG1        0.0400
     11 C          -3.1250   -0.2330    0.0000 C.ar    1  LIG1        0.0400
     12 C          -3.8710   -0.9080    0.0000 C.ar    1  LIG1        0.1389
     13 C          -3.6630   -1.8960    0.0000 C.ar    1  LIG1        0.0400
     14 C          -2.7130   -2.1960    0.0000 C.ar    1  LIG1        0.0400
     15 O          -4.8210   -0.6080    0.0000 O.3     1  LIG1       -0.4714
     16 C          -5.0330    0.3710    0.0000 C.3     1  LIG1        0.2525
     17 O           2.9330   -0.6710    0.0000 O.2     1  LIG1       -0.1528
     18 O           1.9380    1.0630    0.0000 O.2     1  LIG1       -0.1528
     19 C           3.3040    0.7000    0.0000 C.ar    1  LIG1        0.1222
     20 C           4.1710    0.2040    0.0000 C.ar    1  LIG1        0.0199
     21 C           5.0290    0.7170    0.0000 C.ar    1  LIG1        0.0014
     22 C           5.0170    1.7130    0.0000 C.ar    1  LIG1        0.0001
     23 C           4.1380    2.2000    0.0000 C.ar    1  LIG1        0.0014
     24 C           3.2880    1.6960    0.0000 C.ar    1  LIG1        0.0199
@<TRIPOS>BOND
     1     1     2    1
     2     1    17    2
     3     1    18    2
     4     1    19    1
     5     2     3    1
     6     2     7    1
     7     3     4    1
     8     4     5    1
     9     5     6    1
    10     5     8    1
    11     6     7    1
    12     8     9    1
    13     9    10   ar
    14     9    14   ar
    15    10    11   ar
    16    11    12   ar
    17    12    13   ar
    18    12    15    1
    19    13    14   ar
    20    15    16    1
    21    19    20   ar
    22    19    24   ar
    23    20    21   ar
    24    21    22   ar
    25    22    23   ar
    26    23    24   ar
