@<TRIPOS>MOLECULE
24771_ChemDiv_8017-3989
 25 27 0 0 0
SMALL
GASTEIGER
Energy = 0

@<TRIPOS>ATOM
      1 S           0.3130   -0.9130    0.0000 S.O2    1  LIG1        0.0768
      2 N          -0.3790   -0.5040    0.0000 N.3     1  LIG1       -0.0774
      3 C          -1.2420    0.0000    0.0000 C.3     1  LIG1        0.1198
      4 C          -1.2290    0.9960    0.0000 C.3     1  LIG1        0.0483
      5 C          -0.3670    0.4960    0.0000 C.3     1  LIG1        0.0684
      6 C           0.4920    0.9960    0.0000 C.3     1  LIG1        0.1392
      7 N           0.5000    1.9960    0.0000 N.4     1  LIG1        0.3820
      8 C          -0.3670    2.4960    0.0000 C.3     1  LIG1        0.1392
      9 C          -1.2420    1.9960    0.0000 C.3     1  LIG1        0.0684
     10 C           1.3670    2.4880    0.0000 C.3     1  LIG1        0.2022
     11 C          -2.2040    1.2630    0.0000 C.ar    1  LIG1       -0.0210
     12 C          -2.9040    0.5580    0.0000 C.ar    1  LIG1       -0.0042
     13 C          -3.8670    0.8130    0.0000 C.ar    1  LIG1       -0.0003
     14 C          -4.1290    1.7830    0.0000 C.ar    1  LIG1       -0.0000
     15 C          -3.4170    2.4880    0.0000 C.ar    1  LIG1       -0.0003
     16 C          -2.4540    2.2330    0.0000 C.ar    1  LIG1       -0.0042
     17 C           1.2670   -1.2130    0.0000 C.ar    1  LIG1        0.1235
     18 C           1.4790   -2.1920    0.0000 C.ar    1  LIG1        0.0196
     19 C           2.4290   -2.4920    0.0000 C.ar    1  LIG1       -0.0029
     20 C           3.1750   -1.8170    0.0000 C.ar    1  LIG1       -0.0218
     21 C           2.9540   -0.8290    0.0000 C.ar    1  LIG1       -0.0029
     22 C           2.0000   -0.5380    0.0000 C.ar    1  LIG1        0.0196
     23 C           4.1250   -2.1170    0.0000 C.3     1  LIG1        0.0310
     24 O           0.8250   -0.0420    0.0000 O.2     1  LIG1       -0.1516
     25 O          -0.2580   -1.9500    0.0000 O.2     1  LIG1       -0.1516
@<TRIPOS>BOND
     1     1     2    1
     2     1    17    1
     3     1    24    2
     4     1    25    2
     5     2     3    1
     6     3     4    1
     7     4     5    1
     8     4     9    1
     9     4    11    1
    10     5     6    1
    11     6     7    1
    12     7     8    1
    13     7    10    1
    14     8     9    1
    15    11    12   ar
    16    11    16   ar
    17    12    13   ar
    18    13    14   ar
    19    14    15   ar
    20    15    16   ar
    21    17    18   ar
    22    17    22   ar
    23    18    19   ar
    24    19    20   ar
    25    20    21   ar
    26    20    23    1
    27    21    22   ar
