@<TRIPOS>MOLECULE
24779_ChemDiv_K691-0212
 32 35 0 0 0
SMALL
GASTEIGER
Energy = 0

@<TRIPOS>ATOM
      1 S           1.7500   -3.0290    0.0000 S.O2    1  LIG1        0.0633
      2 N           2.2630   -3.8960    0.0000 N.3     1  LIG1       -0.1555
      3 C           3.2540   -3.8960    0.0000 C.3     1  LIG1        0.0958
      4 C           3.7580   -4.7540    0.0000 C.3     1  LIG1        0.0192
      5 C           3.2540   -5.6170    0.0000 C.3     1  LIG1        0.0029
      6 C           2.2630   -5.6170    0.0000 C.3     1  LIG1        0.0192
      7 C           1.7670   -4.7540    0.0000 C.3     1  LIG1        0.0958
      8 C           3.7630   -6.4830    0.0000 C.3     1  LIG1        0.0001
      9 C           1.2380   -2.1580    0.0000 C.ar    1  LIG1        0.1222
     10 C           0.2420   -2.1750    0.0000 C.ar    1  LIG1        0.0199
     11 C          -0.2670   -1.3250    0.0000 C.ar    1  LIG1        0.0014
     12 C           0.2250   -0.4460    0.0000 C.ar    1  LIG1        0.0001
     13 C          -0.2710    0.4130    0.0000 C.ar    1  LIG1        0.0001
     14 C          -1.2710    0.4130    0.0000 C.ar    1  LIG1        0.0014
     15 C          -1.7710    1.2710    0.0000 C.ar    1  LIG1        0.0199
     16 C          -1.2710    2.1420    0.0000 C.ar    1  LIG1        0.1222
     17 S          -1.7710    3.0130    0.0000 S.O2    1  LIG1        0.0633
     18 N          -2.2710    3.8880    0.0000 N.3     1  LIG1       -0.1555
     19 C          -3.2710    3.8880    0.0000 C.3     1  LIG1        0.0958
     20 C          -3.7670    4.7380    0.0000 C.3     1  LIG1        0.0192
     21 C          -3.2630    5.6130    0.0000 C.3     1  LIG1        0.0029
     22 C          -2.2670    5.6130    0.0000 C.3     1  LIG1        0.0192
     23 C          -1.7710    4.7460    0.0000 C.3     1  LIG1        0.0958
     24 C          -3.7670    6.4830    0.0000 C.3     1  LIG1        0.0001
     25 O          -2.6420    2.5080    0.0000 O.2     1  LIG1       -0.1528
     26 O          -0.8960    3.5130    0.0000 O.2     1  LIG1       -0.1528
     27 C          -0.2710    2.1420    0.0000 C.ar    1  LIG1        0.0199
     28 C           0.2250    1.2750    0.0000 C.ar    1  LIG1        0.0014
     29 C           1.2250   -0.4290    0.0000 C.ar    1  LIG1        0.0014
     30 C           1.7290   -1.2880    0.0000 C.ar    1  LIG1        0.0199
     31 O           0.8790   -3.5420    0.0000 O.2     1  LIG1       -0.1528
     32 O           2.6170   -2.5170    0.0000 O.2     1  LIG1       -0.1528
@<TRIPOS>BOND
     1     1     2    1
     2     1     9    1
     3     1    31    2
     4     1    32    2
     5     2     3    1
     6     2     7    1
     7     3     4    1
     8     4     5    1
     9     5     6    1
    10     5     8    1
    11     6     7    1
    12     9    10   ar
    13     9    30   ar
    14    10    11   ar
    15    11    12   ar
    16    12    13    1
    17    12    29   ar
    18    13    14   ar
    19    13    28   ar
    20    14    15   ar
    21    15    16   ar
    22    16    17    1
    23    16    27   ar
    24    17    18    1
    25    17    25    2
    26    17    26    2
    27    18    19    1
    28    18    23    1
    29    19    20    1
    30    20    21    1
    31    21    22    1
    32    21    24    1
    33    22    23    1
    34    27    28   ar
    35    29    30   ar
