@<TRIPOS>MOLECULE
24783_ChemDiv_K788-2896
 36 39 0 0 0
SMALL
GASTEIGER
Energy = 0

@<TRIPOS>ATOM
      1 S           1.7250    4.4880    0.0000 S.O2    1  LIG1        0.0768
      2 N           0.8580    4.9960    0.0000 N.3     1  LIG1       -0.0778
      3 C          -0.0130    5.4920    0.0000 C.3     1  LIG1        0.1154
      4 C          -0.8830    4.9960    0.0000 C.3     1  LIG1        0.0194
      5 C          -1.7540    5.4960    0.0000 C.3     1  LIG1        0.0020
      6 C          -2.6130    4.9960    0.0000 C.3     1  LIG1        0.0092
      7 C          -2.6130    3.9960    0.0000 C.3     1  LIG1        0.0782
      8 C          -3.4830    3.4920    0.0000 C.2     1  LIG1        0.2409
      9 O          -4.3540    3.9880    0.0000 O.2     1  LIG1       -0.2734
     10 N          -3.4830    2.4880    0.0000 N.am    1  LIG1       -0.2052
     11 C          -2.6250    1.9920    0.0000 C.3     1  LIG1        0.1213
     12 C          -2.6250    0.9920    0.0000 C.3     1  LIG1        0.0861
     13 C          -1.7540    0.4880    0.0000 C.3     1  LIG1        0.1404
     14 N          -1.7540   -0.5040    0.0000 N.4     1  LIG1        0.3773
     15 C          -2.6250   -1.0040    0.0000 C.3     1  LIG1        0.1386
     16 C          -2.6330   -1.9960    0.0000 C.3     1  LIG1        0.0632
     17 C          -1.7750   -2.5000    0.0000 C.3     1  LIG1        0.0162
     18 C          -1.7880   -3.5040    0.0000 C.3     1  LIG1        0.0268
     19 C          -0.9170   -3.9960    0.0000 C.ar    1  LIG1       -0.0222
     20 C          -0.0500   -3.5000    0.0000 C.ar    1  LIG1       -0.0043
     21 C           0.8000   -3.9880    0.0000 C.ar    1  LIG1       -0.0003
     22 C           0.8080   -4.9920    0.0000 C.ar    1  LIG1       -0.0000
     23 C          -0.0580   -5.4960    0.0000 C.ar    1  LIG1       -0.0003
     24 C          -0.9290   -4.9920    0.0000 C.ar    1  LIG1       -0.0043
     25 C          -0.9040   -2.0040    0.0000 C.3     1  LIG1        0.0632
     26 C          -0.8960   -1.0040    0.0000 C.3     1  LIG1        0.1386
     27 C          -1.7540    3.4920    0.0000 C.3     1  LIG1        0.0092
     28 C          -0.8830    3.9960    0.0000 C.3     1  LIG1        0.0020
     29 O           1.2170    3.6250    0.0000 O.2     1  LIG1       -0.1516
     30 O           2.2210    5.3420    0.0000 O.2     1  LIG1       -0.1516
     31 C           2.5960    4.0040    0.0000 C.ar    1  LIG1        0.1235
     32 C           2.6080    3.0040    0.0000 C.ar    1  LIG1        0.0200
     33 C           3.4880    2.5130    0.0000 C.ar    1  LIG1        0.0014
     34 C           4.3500    3.0290    0.0000 C.ar    1  LIG1        0.0001
     35 C           4.3250    4.0370    0.0000 C.ar    1  LIG1        0.0014
     36 C           3.4540    4.5210    0.0000 C.ar    1  LIG1        0.0200
@<TRIPOS>BOND
     1     1     2    1
     2     1    29    2
     3     1    30    2
     4     1    31    1
     5     2     3    1
     6     3     4    1
     7     4     5    1
     8     4    28    1
     9     5     6    1
    10     6     7    1
    11     7     8    1
    12     7    27    1
    13     8     9    2
    14     8    10   am
    15    10    11    1
    16    11    12    1
    17    12    13    1
    18    13    14    1
    19    14    15    1
    20    14    26    1
    21    15    16    1
    22    16    17    1
    23    17    18    1
    24    17    25    1
    25    18    19    1
    26    19    20   ar
    27    19    24   ar
    28    20    21   ar
    29    21    22   ar
    30    22    23   ar
    31    23    24   ar
    32    25    26    1
    33    27    28    1
    34    31    32   ar
    35    31    36   ar
    36    32    33   ar
    37    33    34   ar
    38    34    35   ar
    39    35    36   ar
