@<TRIPOS>MOLECULE
24781_ChemDiv_K786-3584
 28 30 0 0 0
SMALL
GASTEIGER
Energy = 0

@<TRIPOS>ATOM
      1 S          -1.2420    0.2130    0.0000 S.O2    1  LIG1        0.0633
      2 N          -1.2330    1.2130    0.0000 N.3     1  LIG1       -0.1551
      3 C          -0.3630    1.7130    0.0000 C.3     1  LIG1        0.1017
      4 C          -0.3630    2.7210    0.0000 C.3     1  LIG1        0.0758
      5 C          -1.2330    3.2210    0.0000 C.3     1  LIG1        0.0901
      6 C          -2.0960    2.7210    0.0000 C.3     1  LIG1        0.0758
      7 C          -2.0960    1.7130    0.0000 C.3     1  LIG1        0.1017
      8 N          -1.2420    4.2210    0.0000 N.4     1  LIG1        0.3777
      9 C          -0.3790    4.7380    0.0000 C.3     1  LIG1        0.1386
     10 C           0.5000    4.2460    0.0000 C.3     1  LIG1        0.0627
     11 C           1.3630    4.7500    0.0000 C.3     1  LIG1        0.0059
     12 C           1.3500    5.7630    0.0000 C.3     1  LIG1        0.0002
     13 C           2.2380    4.2630    0.0000 C.3     1  LIG1        0.0002
     14 C          -2.1210    4.7210    0.0000 C.3     1  LIG1        0.2019
     15 C          -1.2460   -0.7790    0.0000 C.ar    1  LIG1        0.1222
     16 C          -2.1080   -1.2710    0.0000 C.ar    1  LIG1        0.0196
     17 C          -2.1210   -2.2630    0.0000 C.ar    1  LIG1       -0.0029
     18 C          -1.2630   -2.7630    0.0000 C.ar    1  LIG1       -0.0224
     19 C          -0.3920   -2.2710    0.0000 C.ar    1  LIG1       -0.0029
     20 C          -0.3920   -1.2790    0.0000 C.ar    1  LIG1        0.0196
     21 C          -1.2630   -3.7630    0.0000 C.3     1  LIG1        0.0223
     22 C          -2.1330   -4.2580    0.0000 C.3     1  LIG1        0.0044
     23 C          -2.1420   -5.2460    0.0000 C.3     1  LIG1        0.0003
     24 C          -1.2880   -5.7630    0.0000 C.3     1  LIG1        0.0000
     25 C          -0.4080   -5.2630    0.0000 C.3     1  LIG1        0.0003
     26 C          -0.4000   -4.2630    0.0000 C.3     1  LIG1        0.0044
     27 O          -2.2420    0.2210    0.0000 O.2     1  LIG1       -0.1528
     28 O          -0.2420    0.2130    0.0000 O.2     1  LIG1       -0.1528
@<TRIPOS>BOND
     1     1     2    1
     2     1    15    1
     3     1    27    2
     4     1    28    2
     5     2     3    1
     6     2     7    1
     7     3     4    1
     8     4     5    1
     9     5     6    1
    10     5     8    1
    11     6     7    1
    12     8     9    1
    13     8    14    1
    14     9    10    1
    15    10    11    1
    16    11    12    1
    17    11    13    1
    18    15    16   ar
    19    15    20   ar
    20    16    17   ar
    21    17    18   ar
    22    18    19   ar
    23    18    21    1
    24    19    20   ar
    25    21    22    1
    26    21    26    1
    27    22    23    1
    28    23    24    1
    29    24    25    1
    30    25    26    1
