@<TRIPOS>MOLECULE
24787_ChemDiv_8016-1419
 21 22 0 0 0
SMALL
GASTEIGER
Energy = 0

@<TRIPOS>ATOM
      1 N          -1.9960    0.3040    0.0000 N.am    1  LIG1       -0.1588
      2 N          -2.8040    0.8920    0.0000 N.2     1  LIG1       -0.1798
      3 C          -2.5040    1.8420    0.0000 C.2     1  LIG1        0.0634
      4 C          -1.4960    1.8420    0.0000 C.3     1  LIG1        0.1166
      5 C          -1.1920    0.8920    0.0000 C.2     1  LIG1        0.2531
      6 O          -0.3290    0.3920    0.0000 O.2     1  LIG1       -0.2724
      7 C          -1.0040    2.7040    0.0000 C.3     1  LIG1        0.0245
      8 C          -0.0040    2.7040    0.0000 C.3     1  LIG1        0.0877
      9 C           0.4920    1.8420    0.0000 C.2     1  LIG1        0.2413
     10 N           1.4920    1.8420    0.0000 N.am    1  LIG1       -0.2072
     11 C           1.9920    0.9710    0.0000 C.3     1  LIG1        0.0954
     12 C           1.4920    0.1040    0.0000 C.3     1  LIG1        0.0234
     13 C           3.0000    0.9710    0.0000 C.3     1  LIG1        0.0234
     14 O          -0.0040    0.9710    0.0000 O.2     1  LIG1       -0.2733
     15 C          -3.0040    2.7040    0.0000 C.3     1  LIG1        0.0494
     16 C          -1.9960   -0.6920    0.0000 C.ar    1  LIG1        0.0767
     17 C          -2.8670   -1.1920    0.0000 C.ar    1  LIG1        0.0168
     18 C          -2.8670   -2.2000    0.0000 C.ar    1  LIG1        0.0013
     19 C          -1.9960   -2.7000    0.0000 C.ar    1  LIG1        0.0001
     20 C          -1.1330   -2.2000    0.0000 C.ar    1  LIG1        0.0013
     21 C          -1.1330   -1.1920    0.0000 C.ar    1  LIG1        0.0168
@<TRIPOS>BOND
     1     1     2    1
     2     1     5   am
     3     1    16    1
     4     2     3    2
     5     3     4    1
     6     3    15    1
     7     4     5    1
     8     4     7    1
     9     5     6    2
    10     7     8    1
    11     8     9    1
    12     9    10   am
    13     9    14    2
    14    10    11    1
    15    11    12    1
    16    11    13    1
    17    16    17   ar
    18    16    21   ar
    19    17    18   ar
    20    18    19   ar
    21    19    20   ar
    22    20    21   ar
