@<TRIPOS>MOLECULE
24785_ChemDiv_8016-1418
 25 27 0 0 0
SMALL
GASTEIGER
Energy = 0

@<TRIPOS>ATOM
      1 N          -2.9960    0.3040    0.0000 N.am    1  LIG1       -0.1588
      2 N          -3.8080    0.8920    0.0000 N.2     1  LIG1       -0.1798
      3 C          -3.5040    1.8420    0.0000 C.2     1  LIG1        0.0634
      4 C          -2.5040    1.8420    0.0000 C.3     1  LIG1        0.1166
      5 C          -2.1920    0.8920    0.0000 C.2     1  LIG1        0.2531
      6 O          -1.3290    0.3920    0.0000 O.2     1  LIG1       -0.2724
      7 C          -2.0040    2.7040    0.0000 C.3     1  LIG1        0.0245
      8 C          -1.0040    2.7040    0.0000 C.3     1  LIG1        0.0877
      9 C          -0.5040    1.8420    0.0000 C.2     1  LIG1        0.2417
     10 N           0.4920    1.8420    0.0000 N.am    1  LIG1       -0.2006
     11 C           0.9920    0.9710    0.0000 C.3     1  LIG1        0.1415
     12 C           1.9920    0.9710    0.0000 C.ar    1  LIG1       -0.0006
     13 C           2.4920    1.8420    0.0000 C.ar    1  LIG1       -0.0026
     14 C           3.4920    1.8420    0.0000 C.ar    1  LIG1       -0.0003
     15 C           4.0000    0.9710    0.0000 C.ar    1  LIG1       -0.0000
     16 C           3.4920    0.1040    0.0000 C.ar    1  LIG1       -0.0003
     17 C           2.4920    0.1040    0.0000 C.ar    1  LIG1       -0.0026
     18 O          -1.0040    0.9710    0.0000 O.2     1  LIG1       -0.2733
     19 C          -4.0040    2.7040    0.0000 C.3     1  LIG1        0.0494
     20 C          -2.9960   -0.7000    0.0000 C.ar    1  LIG1        0.0767
     21 C          -2.1330   -1.1920    0.0000 C.ar    1  LIG1        0.0168
     22 C          -2.1330   -2.1920    0.0000 C.ar    1  LIG1        0.0013
     23 C          -2.9960   -2.7000    0.0000 C.ar    1  LIG1        0.0001
     24 C          -3.8670   -2.1920    0.0000 C.ar    1  LIG1        0.0013
     25 C          -3.8670   -1.1920    0.0000 C.ar    1  LIG1        0.0168
@<TRIPOS>BOND
     1     1     2    1
     2     1     5   am
     3     1    20    1
     4     2     3    2
     5     3     4    1
     6     3    19    1
     7     4     5    1
     8     4     7    1
     9     5     6    2
    10     7     8    1
    11     8     9    1
    12     9    10   am
    13     9    18    2
    14    10    11    1
    15    11    12    1
    16    12    13   ar
    17    12    17   ar
    18    13    14   ar
    19    14    15   ar
    20    15    16   ar
    21    16    17   ar
    22    20    21   ar
    23    20    25   ar
    24    21    22   ar
    25    22    23   ar
    26    23    24   ar
    27    24    25   ar
