@<TRIPOS>MOLECULE
24789_ChemDiv_8016-1813
 28 30 0 0 0
SMALL
GASTEIGER
Energy = 0

@<TRIPOS>ATOM
      1 N          -3.7460    0.3040    0.0000 N.am    1  LIG1       -0.1588
      2 N          -4.5580    0.8920    0.0000 N.2     1  LIG1       -0.1798
      3 C          -4.2540    1.8420    0.0000 C.2     1  LIG1        0.0634
      4 C          -3.2460    1.8420    0.0000 C.3     1  LIG1        0.1166
      5 C          -2.9420    0.8920    0.0000 C.2     1  LIG1        0.2531
      6 O          -2.0790    0.3830    0.0000 O.2     1  LIG1       -0.2724
      7 C          -2.7540    2.7040    0.0000 C.3     1  LIG1        0.0245
      8 C          -1.7540    2.7040    0.0000 C.3     1  LIG1        0.0877
      9 C          -1.2540    1.8420    0.0000 C.2     1  LIG1        0.2415
     10 O          -1.7540    0.9710    0.0000 O.2     1  LIG1       -0.2733
     11 N          -0.2540    1.8420    0.0000 N.am    1  LIG1       -0.2014
     12 C           0.2420    0.9710    0.0000 C.3     1  LIG1        0.1623
     13 C           1.2420    0.9710    0.0000 C.3     1  LIG1        0.2288
     14 O           1.7420    0.1040    0.0000 O.3     1  LIG1       -0.4727
     15 C           2.7420    0.1040    0.0000 C.ar    1  LIG1        0.1491
     16 C           3.2420   -0.7540    0.0000 C.ar    1  LIG1        0.0915
     17 CL          2.7420   -1.6250    0.0000 Cl      1  LIG1       -0.0791
     18 C           4.2500   -0.7540    0.0000 C.ar    1  LIG1        0.0145
     19 C           4.7500    0.1040    0.0000 C.ar    1  LIG1        0.0011
     20 C           4.2500    0.9710    0.0000 C.ar    1  LIG1        0.0032
     21 C           3.2420    0.9710    0.0000 C.ar    1  LIG1        0.0378
     22 C          -4.7540    2.7040    0.0000 C.3     1  LIG1        0.0494
     23 C          -3.7460   -0.7000    0.0000 C.ar    1  LIG1        0.0767
     24 C          -2.8830   -1.2000    0.0000 C.ar    1  LIG1        0.0168
     25 C          -2.8830   -2.2000    0.0000 C.ar    1  LIG1        0.0013
     26 C          -3.7460   -2.7000    0.0000 C.ar    1  LIG1        0.0001
     27 C          -4.6170   -2.2000    0.0000 C.ar    1  LIG1        0.0013
     28 C          -4.6170   -1.2000    0.0000 C.ar    1  LIG1        0.0168
@<TRIPOS>BOND
     1     1     2    1
     2     1     5   am
     3     1    23    1
     4     2     3    2
     5     3     4    1
     6     3    22    1
     7     4     5    1
     8     4     7    1
     9     5     6    2
    10     7     8    1
    11     8     9    1
    12     9    10    2
    13     9    11   am
    14    11    12    1
    15    12    13    1
    16    13    14    1
    17    14    15    1
    18    15    16   ar
    19    15    21   ar
    20    16    17    1
    21    16    18   ar
    22    18    19   ar
    23    19    20   ar
    24    20    21   ar
    25    23    24   ar
    26    23    28   ar
    27    24    25   ar
    28    25    26   ar
    29    26    27   ar
    30    27    28   ar
