@<TRIPOS>MOLECULE
24797_ChemDiv_5947-0079
 18 20 0 0 0
SMALL
GASTEIGER
Energy = 0

@<TRIPOS>ATOM
      1 C           0.1500    0.3330    0.0000 C.ar    1  LIG1        0.0412
      2 C           0.7210   -0.4630    0.0000 C.ar    1  LIG1        0.0442
      3 N           0.1500   -1.2880    0.0000 N.ar    1  LIG1       -0.3285
      4 C          -0.7790   -0.9670    0.0000 C.ar    1  LIG1        0.0596
      5 C          -0.7790    0.1290    0.0000 C.ar    1  LIG1        0.0182
      6 C          -1.6710    0.6170    0.0000 C.ar    1  LIG1        0.0013
      7 C          -2.6040    0.1290    0.0000 C.ar    1  LIG1        0.0001
      8 C          -2.6040   -0.9670    0.0000 C.ar    1  LIG1        0.0015
      9 C          -1.6710   -1.4540    0.0000 C.ar    1  LIG1        0.0172
     10 C           0.4460   -2.2380    0.0000 C.3     1  LIG1        0.1301
     11 C           1.7460   -0.3500    0.0000 C.3     1  LIG1        0.1002
     12 C           2.1580    0.5920    0.0000 C.3     1  LIG1        0.1030
     13 N           1.5460    1.4170    0.0000 N.4     1  LIG1        0.4333
     14 C           0.5500    1.2880    0.0000 C.3     1  LIG1        0.1173
     15 C          -0.4000    1.2000    0.0000 C.3     1  LIG1        0.0676
     16 C           0.8880    2.2420    0.0000 C.3     1  LIG1        0.0676
     17 C           2.6000    0.0250    0.0000 C.3     1  LIG1        0.0631
     18 C           2.5250    1.4580    0.0000 C.3     1  LIG1        0.0631
@<TRIPOS>BOND
     1     1     2   ar
     2     1     5   ar
     3     1    14    1
     4     2     3   ar
     5     2    11    1
     6     3     4   ar
     7     3    10    1
     8     4     5   ar
     9     4     9   ar
    10     5     6   ar
    11     6     7   ar
    12     7     8   ar
    13     8     9   ar
    14    11    12    1
    15    12    13    1
    16    12    17    1
    17    12    18    1
    18    13    14    1
    19    14    15    1
    20    14    16    1
