@<TRIPOS>MOLECULE
24798_ChemDiv_0173-0022
 19 20 0 0 0
SMALL
GASTEIGER
Energy = 0

@<TRIPOS>ATOM
      1 N           1.4540   -0.5000    0.0000 N.ar    1  LIG1       -0.1514
      2 C           1.4540   -1.5000    0.0000 C.3     1  LIG1        0.4081
      3 C           0.5960   -2.0290    0.0000 C.2     1  LIG1        0.3052
      4 N          -0.2630   -1.5000    0.0000 N.am    1  LIG1       -0.2739
      5 C          -0.1130   -0.5380    0.0000 C.3     1  LIG1        0.0936
      6 C          -0.7750    0.2040    0.0000 C.3     1  LIG1        0.0215
      7 C          -1.7920    0.1330    0.0000 C.3     1  LIG1        0.0018
      8 C          -2.3500   -0.6500    0.0000 C.3     1  LIG1        0.0018
      9 C          -2.0500   -1.6130    0.0000 C.3     1  LIG1        0.0215
     10 C          -1.1580   -1.9920    0.0000 C.3     1  LIG1        0.0936
     11 O           0.5960   -3.0290    0.0000 O.2     1  LIG1       -0.2673
     12 C           2.3080   -0.0170    0.0000 C.ar    1  LIG1        0.2907
     13 C           2.3460    0.9830    0.0000 C.ar    1  LIG1        0.0805
     14 C           1.4540    1.5040    0.0000 C.ar    1  LIG1        0.0689
     15 C           1.4540    2.5170    0.0000 C.2     1  LIG1        0.2846
     16 O           2.3460    3.0000    0.0000 O.2     1  LIG1       -0.2667
     17 N           0.5960    3.0330    0.0000 N.am    1  LIG1       -0.0837
     18 C           0.5960    1.0210    0.0000 C.ar    1  LIG1        0.0805
     19 C           0.5960    0.0210    0.0000 C.ar    1  LIG1        0.2907
@<TRIPOS>BOND
     1     1     2    1
     2     1    12   ar
     3     1    19   ar
     4     2     3    1
     5     3     4   am
     6     3    11    2
     7     4     5    1
     8     4    10    1
     9     5     6    1
    10     6     7    1
    11     7     8    1
    12     8     9    1
    13     9    10    1
    14    12    13   ar
    15    13    14   ar
    16    14    15    1
    17    14    18   ar
    18    15    16    2
    19    15    17   am
    20    18    19   ar
