@<TRIPOS>MOLECULE
24791_ChemDiv_8016-5751
 15 16 0 0 0
SMALL
GASTEIGER
Energy = 0

@<TRIPOS>ATOM
      1 C           0.3580    1.0920    0.0000 C.2     1  LIG1        0.3149
      2 N           0.0460    0.1380    0.0000 N.am    1  LIG1       -0.1536
      3 N          -0.9580    0.1380    0.0000 N.2     1  LIG1       -0.1736
      4 C          -1.2630    1.0920    0.0000 C.2     1  LIG1        0.1238
      5 C          -0.4540    1.6790    0.0000 C.3     1  LIG1        0.2968
      6 N          -1.1710    2.3920    0.0000 N.4     1  LIG1        0.5982
      7 C           0.2420    2.3920    0.0000 C.3     1  LIG1        0.0900
      8 C          -2.2130    1.3960    0.0000 C.3     1  LIG1        0.0558
      9 C           0.6330   -0.6710    0.0000 C.ar    1  LIG1        0.0769
     10 C           0.2170   -1.5830    0.0000 C.ar    1  LIG1        0.0168
     11 C           0.8040   -2.3880    0.0000 C.ar    1  LIG1        0.0013
     12 C           1.8000   -2.2830    0.0000 C.ar    1  LIG1        0.0001
     13 C           2.2080   -1.3710    0.0000 C.ar    1  LIG1        0.0013
     14 C           1.6210   -0.5630    0.0000 C.ar    1  LIG1        0.0168
     15 O           1.3540    1.0920    0.0000 O.2     1  LIG1       -0.2658
@<TRIPOS>BOND
     1     1     2   am
     2     1     5    1
     3     1    15    2
     4     2     3    1
     5     2     9    1
     6     3     4    2
     7     4     5    1
     8     4     8    1
     9     5     6    1
    10     5     7    1
    11     9    10   ar
    12     9    14   ar
    13    10    11   ar
    14    11    12   ar
    15    12    13   ar
    16    13    14   ar
