@<TRIPOS>MOLECULE
24795_ChemDiv_5829-9251
 17 19 0 0 0
SMALL
GASTEIGER
Energy = 0

@<TRIPOS>ATOM
      1 C           0.8290    0.9580    0.0000 C.ar    1  LIG1        0.0460
      2 C           0.8130   -0.0080    0.0000 C.ar    1  LIG1        0.0446
      3 N          -0.0170   -0.4750    0.0000 N.ar    1  LIG1       -0.3285
      4 C          -0.8500    0.0080    0.0000 C.ar    1  LIG1        0.0596
      5 C          -0.8500    0.9630    0.0000 C.ar    1  LIG1        0.0181
      6 C          -1.6790    1.4500    0.0000 C.ar    1  LIG1       -0.0029
      7 C          -2.4960    0.9630    0.0000 C.ar    1  LIG1       -0.0218
      8 C          -2.4960    0.0080    0.0000 C.ar    1  LIG1       -0.0028
      9 C          -1.6790   -0.4750    0.0000 C.ar    1  LIG1        0.0168
     10 C          -3.3420    1.4500    0.0000 C.3     1  LIG1        0.0310
     11 C          -0.0170   -1.4460    0.0000 C.3     1  LIG1        0.1301
     12 C           1.6460   -0.4920    0.0000 C.3     1  LIG1        0.1046
     13 C           2.4920   -0.0250    0.0000 C.3     1  LIG1        0.1157
     14 N           2.4920    0.9460    0.0000 N.4     1  LIG1        0.3098
     15 C           1.6630    1.4330    0.0000 C.3     1  LIG1        0.1376
     16 C           3.3330    0.4630    0.0000 C.3     1  LIG1        0.1711
     17 C           3.3380    1.4170    0.0000 C.3     1  LIG1        0.1711
@<TRIPOS>BOND
     1     1     2   ar
     2     1     5   ar
     3     1    15    1
     4     2     3   ar
     5     2    12    1
     6     3     4   ar
     7     3    11    1
     8     4     5   ar
     9     4     9   ar
    10     5     6   ar
    11     6     7   ar
    12     7     8   ar
    13     7    10    1
    14     8     9   ar
    15    12    13    1
    16    13    14    1
    17    14    15    1
    18    14    16    1
    19    14    17    1
