@<TRIPOS>MOLECULE
24803_ChemDiv_0091-0214
 27 31 0 0 0
SMALL
GASTEIGER
Energy = 0

@<TRIPOS>ATOM
      1 N          -1.6170    0.3420    0.0000 N.am    1  LIG1       -0.2026
      2 C          -2.1920   -0.4790    0.0000 C.2     1  LIG1        0.2564
      3 C          -3.1330   -0.1540    0.0000 C.ar    1  LIG1        0.0589
      4 C          -3.1330    0.8420    0.0000 C.ar    1  LIG1        0.0584
      5 C          -2.1920    1.1540    0.0000 C.2     1  LIG1        0.2564
      6 O          -1.8460    2.0960    0.0000 O.2     1  LIG1       -0.2694
      7 C          -3.9960    1.3380    0.0000 C.ar    1  LIG1        0.0052
      8 C          -4.8630    0.8420    0.0000 C.ar    1  LIG1        0.0068
      9 C          -4.8630   -0.1540    0.0000 C.ar    1  LIG1        0.0347
     10 C          -3.9960   -0.6540    0.0000 C.ar    1  LIG1        0.0114
     11 BR         -5.7500   -0.6290    0.0000 Br      1  LIG1       -0.0490
     12 O          -1.8460   -1.4170    0.0000 O.2     1  LIG1       -0.2694
     13 C          -0.6210    0.3670    0.0000 C.3     1  LIG1        0.2151
     14 N          -0.1210   -0.5000    0.0000 N.pl3   1  LIG1       -0.2151
     15 C           0.9080   -0.5000    0.0000 C.ar    1  LIG1        0.0703
     16 C           1.4290   -1.3630    0.0000 C.ar    1  LIG1        0.0536
     17 C           2.4420   -1.3630    0.0000 C.ar    1  LIG1        0.1466
     18 O           3.1330   -2.0920    0.0000 O.2     1  LIG1       -0.4535
     19 C           4.0420   -1.6500    0.0000 C.ar    1  LIG1        0.1453
     20 C           3.8790   -0.6830    0.0000 C.ar    1  LIG1        0.0375
     21 C           2.9210   -0.5000    0.0000 C.ar    1  LIG1        0.0376
     22 C           2.4250    0.3670    0.0000 C.ar    1  LIG1        0.0045
     23 C           1.3920    0.3670    0.0000 C.ar    1  LIG1        0.0164
     24 C           4.6920   -0.0750    0.0000 C.ar    1  LIG1        0.0031
     25 C           5.6080   -0.4460    0.0000 C.ar    1  LIG1        0.0002
     26 C           5.7460   -1.4170    0.0000 C.ar    1  LIG1        0.0031
     27 C           4.9580   -2.0500    0.0000 C.ar    1  LIG1        0.0375
@<TRIPOS>BOND
     1     1     2   am
     2     1     5   am
     3     1    13    1
     4     2     3    1
     5     2    12    2
     6     3     4   ar
     7     3    10   ar
     8     4     5    1
     9     4     7   ar
    10     5     6    2
    11     7     8   ar
    12     8     9   ar
    13     9    10   ar
    14     9    11    1
    15    13    14    1
    16    14    15    1
    17    15    16   ar
    18    15    23   ar
    19    16    17   ar
    20    17    18   ar
    21    17    21   ar
    22    18    19   ar
    23    19    20   ar
    24    19    27   ar
    25    20    21   ar
    26    20    24   ar
    27    21    22   ar
    28    22    23   ar
    29    24    25   ar
    30    25    26   ar
    31    26    27   ar
