@<TRIPOS>MOLECULE
24800_ChemDiv_0174-0481
 28 30 0 0 0
SMALL
GASTEIGER
Energy = 0

@<TRIPOS>ATOM
      1 S           2.5960   -2.1750    0.0000 S.O2    1  LIG1        0.0485
      2 N           1.7000   -1.6540    0.0000 N.3     1  LIG1       -0.1407
      3 C           0.8380   -2.1080    0.0000 C.3     1  LIG1        0.1811
      4 C          -0.0210   -1.6330    0.0000 C.2     1  LIG1        0.2495
      5 N          -0.0210   -0.6460    0.0000 N.am    1  LIG1       -0.2272
      6 C           0.8580   -0.1420    0.0000 C.2     1  LIG1        0.2495
      7 C           1.7250   -0.6460    0.0000 C.3     1  LIG1        0.1811
      8 O           0.8750    0.8420    0.0000 O.2     1  LIG1       -0.2729
      9 C          -0.8630   -0.1420    0.0000 C.3     1  LIG1        0.1056
     10 C          -0.8630    0.8420    0.0000 C.3     1  LIG1        0.0483
     11 C          -1.7290    1.3540    0.0000 C.ar    1  LIG1       -0.0205
     12 C          -2.6000    0.8580    0.0000 C.ar    1  LIG1       -0.0042
     13 C          -3.4670    1.3540    0.0000 C.ar    1  LIG1       -0.0003
     14 C          -3.4670    2.3420    0.0000 C.ar    1  LIG1       -0.0000
     15 C          -2.6000    2.8540    0.0000 C.ar    1  LIG1       -0.0003
     16 C          -1.7290    2.3670    0.0000 C.ar    1  LIG1       -0.0042
     17 O          -0.8790   -2.1330    0.0000 O.2     1  LIG1       -0.2729
     18 C           3.1170   -1.2960    0.0000 C.3     1  LIG1        0.2162
     19 C           2.6380   -0.4130    0.0000 C.3     1  LIG1        0.2324
     20 O           3.1330    0.4290    0.0000 O.3     1  LIG1       -0.4735
     21 C           2.6580    1.3000    0.0000 C.ar    1  LIG1        0.1386
     22 C           1.6460    1.3210    0.0000 C.ar    1  LIG1        0.0369
     23 C           1.1420    2.1960    0.0000 C.ar    1  LIG1        0.0031
     24 C           1.6830    3.0380    0.0000 C.ar    1  LIG1        0.0002
     25 C           2.6880    3.0210    0.0000 C.ar    1  LIG1        0.0031
     26 C           3.1790    2.1500    0.0000 C.ar    1  LIG1        0.0369
     27 O           3.4630   -2.6960    0.0000 O.2     1  LIG1       -0.1571
     28 O           2.0750   -3.0330    0.0000 O.2     1  LIG1       -0.1571
@<TRIPOS>BOND
     1     1     2    1
     2     1    18    1
     3     1    27    2
     4     1    28    2
     5     2     3    1
     6     2     7    1
     7     3     4    1
     8     4     5   am
     9     4    17    2
    10     5     6   am
    11     5     9    1
    12     6     7    1
    13     6     8    2
    14     9    10    1
    15    10    11    1
    16    11    12   ar
    17    11    16   ar
    18    12    13   ar
    19    13    14   ar
    20    14    15   ar
    21    15    16   ar
    22    18    19    1
    23    19    20    1
    24    20    21    1
    25    21    22   ar
    26    21    26   ar
    27    22    23   ar
    28    23    24   ar
    29    24    25   ar
    30    25    26   ar
