@<TRIPOS>MOLECULE
24811_ChemDiv_0094-0092
 21 23 0 0 0
SMALL
GASTEIGER
Energy = 0

@<TRIPOS>ATOM
      1 C           0.3920   -0.1960    0.0000 C.3     1  LIG1        0.1344
      2 C          -0.1880   -0.9830    0.0000 C.2     1  LIG1        0.1833
      3 C          -1.1330   -0.6920    0.0000 C.ar    1  LIG1        0.0382
      4 C          -1.1330    0.3290    0.0000 C.ar    1  LIG1        0.0382
      5 C          -0.1880    0.6210    0.0000 C.2     1  LIG1        0.1833
      6 O           0.1540    1.5670    0.0000 O.2     1  LIG1       -0.2906
      7 C          -1.9710    0.8330    0.0000 C.ar    1  LIG1        0.0030
      8 C          -2.8380    0.3290    0.0000 C.ar    1  LIG1        0.0001
      9 C          -2.8380   -0.6920    0.0000 C.ar    1  LIG1        0.0001
     10 C          -1.9710   -1.1920    0.0000 C.ar    1  LIG1        0.0030
     11 O           0.1540   -1.9290    0.0000 O.2     1  LIG1       -0.2906
     12 C           1.3880   -0.2960    0.0000 C.3     1  LIG1        0.0604
     13 C           1.7790   -1.2210    0.0000 C.2     1  LIG1        0.0515
     14 O           1.2080   -2.0080    0.0000 O.co2   1  LIG1       -0.5491
     15 O           2.7790   -1.3250    0.0000 O.co2   1  LIG1       -0.5491
     16 C           0.9750    0.6210    0.0000 C.ar    1  LIG1       -0.0087
     17 C           1.7790   -0.0080    0.0000 C.ar    1  LIG1       -0.0034
     18 C           2.7040    0.3830    0.0000 C.ar    1  LIG1       -0.0003
     19 C           2.8330    1.3580    0.0000 C.ar    1  LIG1       -0.0000
     20 C           2.0170    2.0130    0.0000 C.ar    1  LIG1       -0.0003
     21 C           1.1000    1.5960    0.0000 C.ar    1  LIG1       -0.0034
@<TRIPOS>BOND
     1     1     2    1
     2     1     5    1
     3     1    12    1
     4     1    16    1
     5     2     3    1
     6     2    11    2
     7     3     4   ar
     8     3    10   ar
     9     4     5    1
    10     4     7   ar
    11     5     6    2
    12     7     8   ar
    13     8     9   ar
    14     9    10   ar
    15    12    13    1
    16    13    14   ar
    17    13    15   ar
    18    16    17   ar
    19    16    21   ar
    20    17    18   ar
    21    18    19   ar
    22    19    20   ar
    23    20    21   ar
