@<TRIPOS>MOLECULE
24813_ChemDiv_0095-0211
 32 35 0 0 0
SMALL
GASTEIGER
Energy = 0

@<TRIPOS>ATOM
      1 C          -0.6330    0.2080    0.0000 C.3     1  LIG1        0.1380
      2 C          -1.1960    1.0290    0.0000 C.2     1  LIG1        0.1835
      3 C          -2.1330    0.7080    0.0000 C.ar    1  LIG1        0.0382
      4 C          -2.1330   -0.3040    0.0000 C.ar    1  LIG1        0.0382
      5 C          -1.1960   -0.5960    0.0000 C.2     1  LIG1        0.1835
      6 O          -0.8630   -1.5750    0.0000 O.2     1  LIG1       -0.2906
      7 C          -2.9960   -0.8040    0.0000 C.ar    1  LIG1        0.0030
      8 C          -3.8830   -0.3040    0.0000 C.ar    1  LIG1        0.0001
      9 C          -3.8830    0.7080    0.0000 C.ar    1  LIG1        0.0001
     10 C          -2.9960    1.2130    0.0000 C.ar    1  LIG1        0.0030
     11 O          -0.8630    2.0080    0.0000 O.2     1  LIG1       -0.2906
     12 C           0.1380    0.6670    0.0000 C.ar    1  LIG1       -0.0053
     13 C          -0.0460    1.6170    0.0000 C.ar    1  LIG1        0.0366
     14 C           0.6670    2.2830    0.0000 C.ar    1  LIG1        0.1721
     15 C           1.5630    1.9670    0.0000 C.ar    1  LIG1        0.1722
     16 C           1.7710    1.0710    0.0000 C.ar    1  LIG1        0.0397
     17 C           1.0630    0.4250    0.0000 C.ar    1  LIG1       -0.0001
     18 O           2.2540    2.5710    0.0000 O.3     1  LIG1       -0.4724
     19 C           2.0580    3.5170    0.0000 C.3     1  LIG1        0.2057
     20 C           2.7460    4.2170    0.0000 C.3     1  LIG1        0.0512
     21 O           0.4380    3.1750    0.0000 O.3     1  LIG1       -0.4684
     22 C           1.1670    3.8170    0.0000 C.3     1  LIG1        0.2526
     23 C           0.1710   -0.7290    0.0000 C.3     1  LIG1        0.1059
     24 C           1.1670   -1.1880    0.0000 C.2     1  LIG1        0.2468
     25 N           1.2000   -2.2170    0.0000 N.am    1  LIG1       -0.1792
     26 C           2.0130   -2.6670    0.0000 C.ar    1  LIG1        0.0734
     27 C           2.0580   -3.6750    0.0000 C.ar    1  LIG1        0.0166
     28 C           2.9420   -4.2170    0.0000 C.ar    1  LIG1        0.0013
     29 C           3.8790   -3.6750    0.0000 C.ar    1  LIG1        0.0001
     30 C           3.8080   -2.6290    0.0000 C.ar    1  LIG1        0.0013
     31 C           2.9250   -2.2000    0.0000 C.ar    1  LIG1        0.0166
     32 O           2.1210   -0.7290    0.0000 O.2     1  LIG1       -0.2729
@<TRIPOS>BOND
     1     1     2    1
     2     1     5    1
     3     1    12    1
     4     1    23    1
     5     2     3    1
     6     2    11    2
     7     3     4   ar
     8     3    10   ar
     9     4     5    1
    10     4     7   ar
    11     5     6    2
    12     7     8   ar
    13     8     9   ar
    14     9    10   ar
    15    12    13   ar
    16    12    17   ar
    17    13    14   ar
    18    14    15   ar
    19    14    21    1
    20    15    16   ar
    21    15    18    1
    22    16    17   ar
    23    18    19    1
    24    19    20    1
    25    21    22    1
    26    23    24    1
    27    24    25   am
    28    24    32    2
    29    25    26    1
    30    26    27   ar
    31    26    31   ar
    32    27    28   ar
    33    28    29   ar
    34    29    30   ar
    35    30    31   ar
