@<TRIPOS>MOLECULE
24820_ChemDiv_K691-0128
 35 36 0 0 0
SMALL
GASTEIGER
Energy = 0

@<TRIPOS>ATOM
      1 S           3.4580   -2.1880    0.0000 S.O2    1  LIG1        0.0770
      2 C           3.2420   -1.2080    0.0000 C.ar    1  LIG1        0.1235
      3 C           3.9920   -0.5460    0.0000 C.ar    1  LIG1        0.0196
      4 C           3.7920    0.4330    0.0000 C.ar    1  LIG1       -0.0026
      5 C           2.8420    0.7500    0.0000 C.ar    1  LIG1       -0.0177
      6 C           2.6460    1.7330    0.0000 C.3     1  LIG1        0.0526
      7 C           1.6920    2.0500    0.0000 C.ar    1  LIG1       -0.0177
      8 C           0.9130    1.4170    0.0000 C.ar    1  LIG1       -0.0026
      9 C          -0.0170    1.7500    0.0000 C.ar    1  LIG1        0.0196
     10 C          -0.1830    2.7330    0.0000 C.ar    1  LIG1        0.1235
     11 S          -1.1330    3.0790    0.0000 S.O2    1  LIG1        0.0770
     12 O          -1.4830    2.1330    0.0000 O.2     1  LIG1       -0.1516
     13 O          -0.7830    4.0250    0.0000 O.2     1  LIG1       -0.1516
     14 N          -2.0830    3.4290    0.0000 N.3     1  LIG1       -0.0714
     15 C          -2.2540    4.4250    0.0000 C.3     1  LIG1        0.1778
     16 C          -3.1960    4.7750    0.0000 C.3     1  LIG1        0.1597
     17 N          -3.3540    5.7630    0.0000 N.4     1  LIG1        0.3784
     18 C          -4.2830    6.1210    0.0000 C.3     1  LIG1        0.1388
     19 C          -4.4460    7.1040    0.0000 C.3     1  LIG1        0.0688
     20 C          -2.5830    6.3960    0.0000 C.3     1  LIG1        0.1388
     21 C          -1.6500    6.0380    0.0000 C.3     1  LIG1        0.0688
     22 C           0.5790    3.3630    0.0000 C.ar    1  LIG1        0.0196
     23 C           1.5130    3.0170    0.0000 C.ar    1  LIG1       -0.0026
     24 C           2.0960    0.0880    0.0000 C.ar    1  LIG1       -0.0026
     25 C           2.2960   -0.8960    0.0000 C.ar    1  LIG1        0.0196
     26 O           4.4420   -1.9790    0.0000 O.2     1  LIG1       -0.1516
     27 O           2.4790   -2.3960    0.0000 O.2     1  LIG1       -0.1516
     28 N           3.6710   -3.1710    0.0000 N.3     1  LIG1       -0.0714
     29 C           2.9250   -3.8380    0.0000 C.3     1  LIG1        0.1778
     30 C           3.1250   -4.8080    0.0000 C.3     1  LIG1        0.1597
     31 N           2.3790   -5.4750    0.0000 N.4     1  LIG1        0.3784
     32 C           1.4420   -5.1580    0.0000 C.3     1  LIG1        0.1388
     33 C           1.2420   -4.1750    0.0000 C.3     1  LIG1        0.0688
     34 C           2.5790   -6.4500    0.0000 C.3     1  LIG1        0.1388
     35 C           1.8420   -7.1040    0.0000 C.3     1  LIG1        0.0688
@<TRIPOS>BOND
     1     1     2    1
     2     1    26    2
     3     1    27    2
     4     1    28    1
     5     2     3   ar
     6     2    25   ar
     7     3     4   ar
     8     4     5   ar
     9     5     6    1
    10     5    24   ar
    11     6     7    1
    12     7     8   ar
    13     7    23   ar
    14     8     9   ar
    15     9    10   ar
    16    10    11    1
    17    10    22   ar
    18    11    12    2
    19    11    13    2
    20    11    14    1
    21    14    15    1
    22    15    16    1
    23    16    17    1
    24    17    18    1
    25    17    20    1
    26    18    19    1
    27    20    21    1
    28    22    23   ar
    29    24    25   ar
    30    28    29    1
    31    29    30    1
    32    30    31    1
    33    31    32    1
    34    31    34    1
    35    32    33    1
    36    34    35    1
