@<TRIPOS>MOLECULE
24826_ChemDiv_0242-0547
 29 31 0 0 0
SMALL
GASTEIGER
Energy = 0

@<TRIPOS>ATOM
      1 N           1.5130    1.2790    0.0000 N.am    1  LIG1       -0.2136
      2 C           2.4920    1.2580    0.0000 C.2     1  LIG1        0.2555
      3 C           2.8250    2.2040    0.0000 C.ar    1  LIG1        0.0584
      4 C           2.0330    2.7920    0.0000 C.ar    1  LIG1        0.0584
      5 C           1.2080    2.2130    0.0000 C.2     1  LIG1        0.2555
      6 O           0.0750    2.4380    0.0000 O.2     1  LIG1       -0.2695
      7 C           2.1500    3.7750    0.0000 C.ar    1  LIG1        0.0047
      8 C           3.0380    4.1500    0.0000 C.ar    1  LIG1        0.0001
      9 C           3.8380    3.5630    0.0000 C.ar    1  LIG1        0.0001
     10 C           3.7380    2.6000    0.0000 C.ar    1  LIG1        0.0047
     11 O           2.7790    0.1710    0.0000 O.2     1  LIG1       -0.2695
     12 C           0.9420    0.4790    0.0000 C.3     1  LIG1        0.1864
     13 C          -0.3330    0.6040    0.0000 C.2     1  LIG1        0.2465
     14 N          -1.0750   -0.5000    0.0000 N.am    1  LIG1       -0.2730
     15 C          -1.7290    0.0540    0.0000 C.3     1  LIG1        0.1255
     16 C          -2.9130   -0.2380    0.0000 C.3     1  LIG1        0.1637
     17 O          -3.1250   -1.0540    0.0000 O.3     1  LIG1       -0.3493
     18 C          -3.8290   -1.4000    0.0000 C.3     1  LIG1        0.1742
     19 C          -3.8420   -2.3040    0.0000 C.3     1  LIG1        0.1742
     20 O          -3.0500   -2.9420    0.0000 O.3     1  LIG1       -0.3484
     21 C          -2.9790   -3.8250    0.0000 C.3     1  LIG1        0.1742
     22 C          -2.1420   -4.1500    0.0000 C.3     1  LIG1        0.1742
     23 O          -1.1750   -3.5920    0.0000 O.3     1  LIG1       -0.3484
     24 C          -0.3330   -3.8460    0.0000 C.3     1  LIG1        0.1742
     25 C           0.4540   -2.9710    0.0000 C.3     1  LIG1        0.1742
     26 O           0.2080   -2.0710    0.0000 O.3     1  LIG1       -0.3493
     27 C           0.4250   -1.3250    0.0000 C.3     1  LIG1        0.1637
     28 C          -0.1750   -0.4500    0.0000 C.3     1  LIG1        0.1255
     29 O          -0.8830    1.4500    0.0000 O.2     1  LIG1       -0.2730
@<TRIPOS>BOND
     1     1     2   am
     2     1     5   am
     3     1    12    1
     4     2     3    1
     5     2    11    2
     6     3     4   ar
     7     3    10   ar
     8     4     5    1
     9     4     7   ar
    10     5     6    2
    11     7     8   ar
    12     8     9   ar
    13     9    10   ar
    14    12    13    1
    15    13    14   am
    16    13    29    2
    17    14    15    1
    18    14    28    1
    19    15    16    1
    20    16    17    1
    21    17    18    1
    22    18    19    1
    23    19    20    1
    24    20    21    1
    25    21    22    1
    26    22    23    1
    27    23    24    1
    28    24    25    1
    29    25    26    1
    30    26    27    1
    31    27    28    1
