@<TRIPOS>MOLECULE
24828_ChemDiv_0812-1001
 15 16 0 0 0
SMALL
GASTEIGER
Energy = 0

@<TRIPOS>ATOM
      1 N           0.8210    0.0000    0.0000 N.am    1  LIG1       -0.2202
      2 C           0.2630    0.8040    0.0000 C.2     1  LIG1        0.2552
      3 C          -0.7080    0.5040    0.0000 C.ar    1  LIG1        0.0597
      4 C          -0.7080   -0.5000    0.0000 C.ar    1  LIG1        0.0584
      5 C           0.2630   -0.7960    0.0000 C.2     1  LIG1        0.2552
      6 O           0.5920   -1.7500    0.0000 O.2     1  LIG1       -0.2695
      7 C          -1.5710   -1.0000    0.0000 C.ar    1  LIG1        0.0061
      8 C          -2.4380   -0.5000    0.0000 C.ar    1  LIG1        0.0182
      9 C          -2.4380    0.5040    0.0000 C.ar    1  LIG1        0.0892
     10 C          -1.5710    0.9960    0.0000 C.ar    1  LIG1        0.0227
     11 N          -3.3210    0.9960    0.0000 N.pl3   1  LIG1       -0.1281
     12 O           0.5920    1.7540    0.0000 O.2     1  LIG1       -0.2695
     13 C           1.8130    0.0000    0.0000 C.3     1  LIG1        0.1370
     14 C           2.3170   -0.8580    0.0000 C.3     1  LIG1        0.2040
     15 O           3.3170   -0.8580    0.0000 O.3     1  LIG1       -0.2185
@<TRIPOS>BOND
     1     1     2   am
     2     1     5   am
     3     1    13    1
     4     2     3    1
     5     2    12    2
     6     3     4   ar
     7     3    10   ar
     8     4     5    1
     9     4     7   ar
    10     5     6    2
    11     7     8   ar
    12     8     9   ar
    13     9    10   ar
    14     9    11    1
    15    13    14    1
    16    14    15    1
