@<TRIPOS>MOLECULE
24823_ChemDiv_C104-0024
 19 21 0 0 0
SMALL
GASTEIGER
Energy = 0

@<TRIPOS>ATOM
      1 C           0.7630    1.6790    0.0000 C.ar    1  LIG1        0.0476
      2 C           1.3250    0.8420    0.0000 C.ar    1  LIG1        0.0446
      3 N           0.7040    0.0580    0.0000 N.ar    1  LIG1       -0.3294
      4 C          -0.2330    0.4080    0.0000 C.ar    1  LIG1        0.0595
      5 C          -0.1960    1.4080    0.0000 C.ar    1  LIG1        0.0181
      6 C          -1.0500    1.9460    0.0000 C.ar    1  LIG1       -0.0029
      7 C          -1.9290    1.4750    0.0000 C.ar    1  LIG1       -0.0218
      8 C          -1.9580    0.4790    0.0000 C.ar    1  LIG1       -0.0028
      9 C          -1.1170   -0.0500    0.0000 C.ar    1  LIG1        0.0168
     10 C          -2.7750    2.0080    0.0000 C.3     1  LIG1        0.0310
     11 C           0.9750   -0.9000    0.0000 C.3     1  LIG1        0.1219
     12 C           0.2750   -1.6080    0.0000 C.3     1  LIG1        0.1298
     13 C           0.5460   -2.5790    0.0000 C.1     1  LIG1        0.0752
     14 N           0.8080   -3.5290    0.0000 N.1     1  LIG1       -0.1958
     15 C           2.3210    0.9080    0.0000 C.3     1  LIG1        0.1062
     16 C           2.7710    1.8080    0.0000 C.3     1  LIG1        0.1457
     17 N           2.2170    2.6420    0.0000 N.4     1  LIG1        0.3858
     18 C           1.2130    2.5830    0.0000 C.3     1  LIG1        0.1677
     19 C           2.6540    3.5330    0.0000 C.3     1  LIG1        0.2027
@<TRIPOS>BOND
     1     1     2   ar
     2     1     5   ar
     3     1    18    1
     4     2     3   ar
     5     2    15    1
     6     3     4   ar
     7     3    11    1
     8     4     5   ar
     9     4     9   ar
    10     5     6   ar
    11     6     7   ar
    12     7     8   ar
    13     7    10    1
    14     8     9   ar
    15    11    12    1
    16    12    13    1
    17    13    14    3
    18    15    16    1
    19    16    17    1
    20    17    18    1
    21    17    19    1
