@<TRIPOS>MOLECULE
24839_ChemDiv_8017-0965
 21 23 0 0 0
SMALL
GASTEIGER
Energy = 0

@<TRIPOS>ATOM
      1 N           0.4290   -1.0040    0.0000 N.am    1  LIG1       -0.1311
      2 C          -0.4330   -0.5040    0.0000 C.3     1  LIG1        0.2325
      3 C          -0.4250    0.4960    0.0000 C.2     1  LIG1        0.1494
      4 N           0.4290    0.9960    0.0000 N.2     1  LIG1       -0.1712
      5 N           1.3000    0.4920    0.0000 N.am    1  LIG1       -0.1638
      6 C           1.3000   -0.5040    0.0000 C.2     1  LIG1        0.3469
      7 O           2.1630   -1.0040    0.0000 O.2     1  LIG1       -0.2488
      8 C           2.1670    0.9920    0.0000 C.3     1  LIG1        0.1209
      9 C           3.0290    0.4830    0.0000 C.3     1  LIG1        0.0256
     10 C          -1.2960    0.9960    0.0000 C.ar    1  LIG1        0.0225
     11 C          -1.2960    2.0040    0.0000 C.ar    1  LIG1        0.0015
     12 C          -2.1630    2.5040    0.0000 C.ar    1  LIG1        0.0000
     13 C          -3.0250    2.0040    0.0000 C.ar    1  LIG1        0.0000
     14 C          -3.0250    0.9960    0.0000 C.ar    1  LIG1        0.0000
     15 C          -2.1630    0.4960    0.0000 C.ar    1  LIG1        0.0015
     16 N          -1.2960   -1.0000    0.0000 N.4     1  LIG1        0.3932
     17 C          -2.1630   -0.5000    0.0000 C.3     1  LIG1        0.1413
     18 C          -3.0250   -0.9920    0.0000 C.3     1  LIG1        0.0630
     19 C          -3.0330   -1.9920    0.0000 C.3     1  LIG1        0.0123
     20 C          -2.1710   -2.5000    0.0000 C.3     1  LIG1        0.0630
     21 C          -1.3000   -2.0040    0.0000 C.3     1  LIG1        0.1413
@<TRIPOS>BOND
     1     1     2    1
     2     1     6   am
     3     2     3    1
     4     2    16    1
     5     3     4    2
     6     3    10    1
     7     4     5    1
     8     5     6   am
     9     5     8    1
    10     6     7    2
    11     8     9    1
    12    10    11   ar
    13    10    15   ar
    14    11    12   ar
    15    12    13   ar
    16    13    14   ar
    17    14    15   ar
    18    16    17    1
    19    16    21    1
    20    17    18    1
    21    18    19    1
    22    19    20    1
    23    20    21    1
