@<TRIPOS>MOLECULE
24831_ChemDiv_C104-0029
 20 22 0 0 0
SMALL
GASTEIGER
Energy = 0

@<TRIPOS>ATOM
      1 C           0.6290    1.7000    0.0000 C.ar    1  LIG1        0.0460
      2 C           1.1920    0.8580    0.0000 C.ar    1  LIG1        0.0445
      3 N           0.5670    0.0750    0.0000 N.ar    1  LIG1       -0.3294
      4 C          -0.3750    0.4210    0.0000 C.ar    1  LIG1        0.0595
      5 C          -0.3330    1.4250    0.0000 C.ar    1  LIG1        0.0181
      6 C          -1.1960    1.9710    0.0000 C.ar    1  LIG1       -0.0029
      7 C          -2.0790    1.4960    0.0000 C.ar    1  LIG1       -0.0218
      8 C          -2.1080    0.4920    0.0000 C.ar    1  LIG1       -0.0028
      9 C          -1.2630   -0.0380    0.0000 C.ar    1  LIG1        0.0168
     10 C          -2.9290    2.0290    0.0000 C.3     1  LIG1        0.0310
     11 C           0.8420   -0.8920    0.0000 C.3     1  LIG1        0.1219
     12 C           0.1380   -1.6040    0.0000 C.3     1  LIG1        0.1298
     13 C           0.4130   -2.5790    0.0000 C.1     1  LIG1        0.0752
     14 N           0.6750   -3.5380    0.0000 N.1     1  LIG1       -0.1958
     15 C           2.1960    0.9250    0.0000 C.3     1  LIG1        0.1046
     16 C           2.6460    1.8330    0.0000 C.3     1  LIG1        0.1157
     17 N           2.0880    2.6670    0.0000 N.4     1  LIG1        0.3098
     18 C           1.0790    2.6080    0.0000 C.3     1  LIG1        0.1376
     19 C           2.9250    2.9330    0.0000 C.3     1  LIG1        0.1711
     20 C           1.5710    3.5420    0.0000 C.3     1  LIG1        0.1711
@<TRIPOS>BOND
     1     1     2   ar
     2     1     5   ar
     3     1    18    1
     4     2     3   ar
     5     2    15    1
     6     3     4   ar
     7     3    11    1
     8     4     5   ar
     9     4     9   ar
    10     5     6   ar
    11     6     7   ar
    12     7     8   ar
    13     7    10    1
    14     8     9   ar
    15    11    12    1
    16    12    13    1
    17    13    14    3
    18    15    16    1
    19    16    17    1
    20    17    18    1
    21    17    19    1
    22    17    20    1
