@<TRIPOS>MOLECULE
24847_ChemDiv_3406-0486
 17 19 0 0 0
SMALL
GASTEIGER
Energy = 0

@<TRIPOS>ATOM
      1 C           0.0000   -0.5000    0.0000 C.ar    1  LIG1        0.0190
      2 C           0.0000   -1.5290    0.0000 C.ar    1  LIG1        0.0980
      3 N           0.8630   -2.0250    0.0000 N.ar    1  LIG1       -0.2425
      4 C           1.7330   -1.4920    0.0000 C.ar    1  LIG1        0.0989
      5 C           1.7330   -0.5330    0.0000 C.ar    1  LIG1        0.0207
      6 C           0.8630   -0.0130    0.0000 C.ar    1  LIG1        0.0030
      7 C           0.8630    0.9920    0.0000 C.ar    1  LIG1        0.0001
      8 C           0.0000    1.4960    0.0000 C.ar    1  LIG1        0.0000
      9 C           0.0000    2.5040    0.0000 C.ar    1  LIG1        0.0000
     10 C           0.8630    3.0080    0.0000 C.ar    1  LIG1        0.0000
     11 C           1.7330    2.5040    0.0000 C.ar    1  LIG1        0.0000
     12 C           1.7330    1.4960    0.0000 C.ar    1  LIG1        0.0000
     13 C          -0.8710   -2.0250    0.0000 C.ar    1  LIG1        0.1066
     14 N          -0.8710   -3.0040    0.0000 N.pl3   1  LIG1       -0.1265
     15 C          -1.7380   -1.4920    0.0000 C.ar    1  LIG1        0.0196
     16 C          -1.7380   -0.5330    0.0000 C.ar    1  LIG1        0.0015
     17 C          -0.8710   -0.0130    0.0000 C.ar    1  LIG1        0.0016
@<TRIPOS>BOND
     1     1     2   ar
     2     1     6   ar
     3     1    17   ar
     4     2     3   ar
     5     2    13   ar
     6     3     4   ar
     7     4     5   ar
     8     5     6   ar
     9     6     7    1
    10     7     8   ar
    11     7    12   ar
    12     8     9   ar
    13     9    10   ar
    14    10    11   ar
    15    11    12   ar
    16    13    14    1
    17    13    15   ar
    18    15    16   ar
    19    16    17   ar
