@<TRIPOS>MOLECULE
24854_ChemDiv_1683-1985
 27 30 0 0 0
SMALL
GASTEIGER
Energy = 0

@<TRIPOS>ATOM
      1 N          -0.6330    0.8790    0.0000 N.am    1  LIG1       -0.2155
      2 C          -1.2080    1.6710    0.0000 C.2     1  LIG1        0.2555
      3 C          -2.1580    1.3670    0.0000 C.ar    1  LIG1        0.0584
      4 C          -2.1580    0.3580    0.0000 C.ar    1  LIG1        0.0584
      5 C          -1.2080    0.0710    0.0000 C.2     1  LIG1        0.2555
      6 O          -0.9670   -0.7420    0.0000 O.2     1  LIG1       -0.2695
      7 C          -3.0250   -0.1460    0.0000 C.ar    1  LIG1        0.0047
      8 C          -3.9130    0.3580    0.0000 C.ar    1  LIG1        0.0001
      9 C          -3.9130    1.3670    0.0000 C.ar    1  LIG1        0.0001
     10 C          -3.0250    1.8710    0.0000 C.ar    1  LIG1        0.0047
     11 O          -0.8710    2.6330    0.0000 O.2     1  LIG1       -0.2695
     12 C           0.3960    0.8790    0.0000 C.3     1  LIG1        0.1635
     13 C           0.8920    0.0000    0.0000 C.2     1  LIG1        0.2447
     14 N           0.3960   -0.8710    0.0000 N.am    1  LIG1       -0.2730
     15 C          -0.6040   -0.8710    0.0000 C.3     1  LIG1        0.1255
     16 C          -1.1000   -1.7500    0.0000 C.3     1  LIG1        0.1636
     17 O          -0.5960   -2.6250    0.0000 O.3     1  LIG1       -0.3501
     18 C           0.4080   -2.6290    0.0000 C.3     1  LIG1        0.1636
     19 C           0.8960   -1.7500    0.0000 C.3     1  LIG1        0.1255
     20 O           1.8960    0.0000    0.0000 O.2     1  LIG1       -0.2731
     21 C           0.8920    1.7460    0.0000 C.3     1  LIG1        0.0560
     22 C           1.8960    1.7460    0.0000 C.ar    1  LIG1       -0.0200
     23 C           2.4000    2.6130    0.0000 C.ar    1  LIG1       -0.0042
     24 C           3.4080    2.6130    0.0000 C.ar    1  LIG1       -0.0003
     25 C           3.9080    1.7460    0.0000 C.ar    1  LIG1       -0.0000
     26 C           3.4080    0.8790    0.0000 C.ar    1  LIG1       -0.0003
     27 C           2.4000    0.8790    0.0000 C.ar    1  LIG1       -0.0042
@<TRIPOS>BOND
     1     1     2   am
     2     1     5   am
     3     1    12    1
     4     2     3    1
     5     2    11    2
     6     3     4   ar
     7     3    10   ar
     8     4     5    1
     9     4     7   ar
    10     5     6    2
    11     7     8   ar
    12     8     9   ar
    13     9    10   ar
    14    12    13    1
    15    12    21    1
    16    13    14   am
    17    13    20    2
    18    14    15    1
    19    14    19    1
    20    15    16    1
    21    16    17    1
    22    17    18    1
    23    18    19    1
    24    21    22    1
    25    22    23   ar
    26    22    27   ar
    27    23    24   ar
    28    24    25   ar
    29    25    26   ar
    30    26    27   ar
