@<TRIPOS>MOLECULE
24864_ChemDiv_C447-1004
 25 27 0 0 0
SMALL
GASTEIGER
Energy = 0

@<TRIPOS>ATOM
      1 C           0.0250    1.4460    0.0000 C.2     1  LIG1        0.2491
      2 N          -0.5630    2.2630    0.0000 N.am    1  LIG1       -0.2736
      3 C           0.0250    3.0670    0.0000 C.3     1  LIG1        0.1205
      4 C           0.9670    2.7580    0.0000 C.ar    1  LIG1        0.0022
      5 C           0.9670    1.7580    0.0000 C.ar    1  LIG1        0.0557
      6 C           1.8290    1.2630    0.0000 C.ar    1  LIG1        0.0592
      7 C           1.8290    0.2670    0.0000 C.2     1  LIG1        0.2651
      8 N           0.9670   -0.2330    0.0000 N.am    1  LIG1       -0.1963
      9 C           0.9670   -1.2420    0.0000 C.3     1  LIG1        0.1765
     10 C           1.8130   -1.7290    0.0000 C.3     1  LIG1        0.2579
     11 O           2.6960   -1.2460    0.0000 O.3     1  LIG1       -0.3265
     12 C           3.5540   -1.7580    0.0000 C.3     1  LIG1        0.1769
     13 O           1.8290   -2.7540    0.0000 O.3     1  LIG1       -0.3265
     14 C           2.6960   -3.2580    0.0000 C.3     1  LIG1        0.1769
     15 O           2.7040   -0.2330    0.0000 O.2     1  LIG1       -0.2684
     16 C           2.7040    1.7460    0.0000 C.ar    1  LIG1        0.0047
     17 C           2.7040    2.7460    0.0000 C.ar    1  LIG1       -0.0001
     18 C           1.8290    3.2630    0.0000 C.ar    1  LIG1       -0.0025
     19 C          -1.5580    2.2630    0.0000 C.3     1  LIG1        0.0759
     20 C          -2.0580    1.4080    0.0000 C.3     1  LIG1        0.0198
     21 C          -3.0580    1.4130    0.0000 C.3     1  LIG1        0.0017
     22 C          -3.5580    2.2920    0.0000 C.3     1  LIG1        0.0001
     23 C          -3.0540    3.1420    0.0000 C.3     1  LIG1        0.0017
     24 C          -2.0540    3.1420    0.0000 C.3     1  LIG1        0.0198
     25 O          -0.2920    0.5000    0.0000 O.2     1  LIG1       -0.2699
@<TRIPOS>BOND
     1     1     2   am
     2     1     5    1
     3     1    25    2
     4     2     3    1
     5     2    19    1
     6     3     4    1
     7     4     5   ar
     8     4    18   ar
     9     5     6   ar
    10     6     7    1
    11     6    16   ar
    12     7     8   am
    13     7    15    2
    14     8     9    1
    15     9    10    1
    16    10    11    1
    17    10    13    1
    18    11    12    1
    19    13    14    1
    20    16    17   ar
    21    17    18   ar
    22    19    20    1
    23    19    24    1
    24    20    21    1
    25    21    22    1
    26    22    23    1
    27    23    24    1
