@<TRIPOS>MOLECULE
24870_ChemDiv_0228-0655
 28 30 0 0 0
SMALL
GASTEIGER
Energy = 0

@<TRIPOS>ATOM
      1 S          -0.0080    0.9830    0.0000 S.O2    1  LIG1        0.0109
      2 C          -0.8540    0.4830    0.0000 C.3     1  LIG1        0.2474
      3 C          -0.8540   -0.5130    0.0000 C.3     1  LIG1        0.1281
      4 N          -0.0080   -1.0130    0.0000 N.3     1  LIG1       -0.2074
      5 C           0.8710   -0.5130    0.0000 C.3     1  LIG1        0.1281
      6 C           0.8710    0.4830    0.0000 C.3     1  LIG1        0.2474
      7 C           1.7420    1.0080    0.0000 C.2     1  LIG1        0.3409
      8 O           2.6080    0.5080    0.0000 O.2     1  LIG1       -0.2481
      9 O           1.7420    2.0080    0.0000 O.3     1  LIG1       -0.4432
     10 C           2.6080    2.5130    0.0000 C.3     1  LIG1        0.2557
     11 C           1.7170   -1.0130    0.0000 C.ar    1  LIG1       -0.0043
     12 C           2.5880   -0.5130    0.0000 C.ar    1  LIG1       -0.0029
     13 C           3.4580   -1.0130    0.0000 C.ar    1  LIG1       -0.0003
     14 C           3.4580   -2.0080    0.0000 C.ar    1  LIG1       -0.0000
     15 C           2.5830   -2.5080    0.0000 C.ar    1  LIG1       -0.0003
     16 C           1.7170   -2.0080    0.0000 C.ar    1  LIG1       -0.0029
     17 C          -1.7210   -1.0130    0.0000 C.ar    1  LIG1       -0.0043
     18 C          -2.5920   -0.5130    0.0000 C.ar    1  LIG1       -0.0029
     19 C          -3.4630   -1.0130    0.0000 C.ar    1  LIG1       -0.0003
     20 C          -3.4630   -2.0080    0.0000 C.ar    1  LIG1       -0.0000
     21 C          -2.5920   -2.5080    0.0000 C.ar    1  LIG1       -0.0003
     22 C          -1.7460   -2.0080    0.0000 C.ar    1  LIG1       -0.0029
     23 C          -1.7460    1.0080    0.0000 C.2     1  LIG1        0.3409
     24 O          -1.7210    2.0080    0.0000 O.2     1  LIG1       -0.2481
     25 O          -2.6170    0.5080    0.0000 O.3     1  LIG1       -0.4432
     26 C          -3.4630    1.0080    0.0000 C.3     1  LIG1        0.2557
     27 O          -0.6790    1.7210    0.0000 O.2     1  LIG1       -0.1719
     28 O           0.5170    1.8580    0.0000 O.2     1  LIG1       -0.1719
@<TRIPOS>BOND
     1     1     2    1
     2     1     6    1
     3     1    27    2
     4     1    28    2
     5     2     3    1
     6     2    23    1
     7     3     4    1
     8     3    17    1
     9     4     5    1
    10     5     6    1
    11     5    11    1
    12     6     7    1
    13     7     8    2
    14     7     9    1
    15     9    10    1
    16    11    12   ar
    17    11    16   ar
    18    12    13   ar
    19    13    14   ar
    20    14    15   ar
    21    15    16   ar
    22    17    18   ar
    23    17    22   ar
    24    18    19   ar
    25    19    20   ar
    26    20    21   ar
    27    21    22   ar
    28    23    24    2
    29    23    25    1
    30    25    26    1
