@<TRIPOS>MOLECULE
24881_ChemDiv_8017-7566
 14 15 0 0 0
SMALL
GASTEIGER
Energy = 0

@<TRIPOS>ATOM
      1 O           0.3290   -0.4130    0.0000 O.3     1  LIG1       -0.4715
      2 C           1.2040    0.0710    0.0000 C.ar    1  LIG1        0.1552
      3 C           2.0880   -0.4130    0.0000 C.ar    1  LIG1        0.1229
      4 N           2.0880   -1.4000    0.0000 N.pl3   1  LIG1       -0.1249
      5 C           2.9630    0.0960    0.0000 C.ar    1  LIG1        0.0211
      6 C           2.9630    1.1130    0.0000 C.ar    1  LIG1        0.0016
      7 C           2.0880    1.5750    0.0000 C.ar    1  LIG1        0.0032
      8 C           1.2040    1.0830    0.0000 C.ar    1  LIG1        0.0383
      9 C          -0.5170    0.0710    0.0000 C.3     1  LIG1        0.2347
     10 C          -1.3670   -0.4000    0.0000 C.3     1  LIG1        0.1588
     11 O          -2.2540    0.0210    0.0000 O.3     1  LIG1       -0.3524
     12 C          -2.9670   -0.7210    0.0000 C.3     1  LIG1        0.1423
     13 C          -2.4710   -1.5710    0.0000 C.3     1  LIG1        0.0347
     14 C          -1.4960   -1.4130    0.0000 C.3     1  LIG1        0.0360
@<TRIPOS>BOND
     1     1     2    1
     2     1     9    1
     3     2     3   ar
     4     2     8   ar
     5     3     4    1
     6     3     5   ar
     7     5     6   ar
     8     6     7   ar
     9     7     8   ar
    10     9    10    1
    11    10    11    1
    12    10    14    1
    13    11    12    1
    14    12    13    1
    15    13    14    1
