@<TRIPOS>MOLECULE
24885_ChemDiv_0121-0091
 22 23 0 0 0
SMALL
GASTEIGER
Energy = 0

@<TRIPOS>ATOM
      1 C           1.7170    1.0080    0.0000 C.ar    1  LIG1        0.0499
      2 C           0.8460    0.4790    0.0000 C.ar    1  LIG1        0.1465
      3 C           0.8670   -0.5210    0.0000 C.ar    1  LIG1        0.0400
      4 C           1.7170   -1.0040    0.0000 C.ar    1  LIG1        0.0338
      5 C           2.5750   -0.4960    0.0000 C.ar    1  LIG1        0.0904
      6 C           2.5750    0.4960    0.0000 C.ar    1  LIG1        0.0223
      7 N           3.4670   -1.0040    0.0000 N.pl3   1  LIG1       -0.1280
      8 C           1.7170   -2.0000    0.0000 C.2     1  LIG1        0.0743
      9 O           2.5750   -2.4880    0.0000 O.co2   1  LIG1       -0.5445
     10 O           0.8670   -2.4880    0.0000 O.co2   1  LIG1       -0.5445
     11 O          -0.0330    0.9880    0.0000 O.3     1  LIG1       -0.4526
     12 C          -0.9080    0.4580    0.0000 C.ar    1  LIG1        0.1558
     13 C          -0.8830   -0.5420    0.0000 C.ar    1  LIG1        0.0929
     14 C          -1.7130   -1.0420    0.0000 C.ar    1  LIG1        0.0259
     15 C          -2.5880   -0.5580    0.0000 C.ar    1  LIG1        0.0587
     16 C          -2.6380    0.4420    0.0000 C.ar    1  LIG1        0.0146
     17 C          -1.7580    0.9630    0.0000 C.ar    1  LIG1        0.0392
     18 CL         -3.4710   -1.0670    0.0000 Cl      1  LIG1       -0.0822
     19 CL          0.0130   -1.0420    0.0000 Cl      1  LIG1       -0.0790
     20 C           1.7170    2.0040    0.0000 C.2     1  LIG1        0.0758
     21 O           0.8670    2.4920    0.0000 O.co2   1  LIG1       -0.5445
     22 O           2.5750    2.4920    0.0000 O.co2   1  LIG1       -0.5445
@<TRIPOS>BOND
     1     1     2   ar
     2     1     6   ar
     3     1    20    1
     4     2     3   ar
     5     2    11    1
     6     3     4   ar
     7     4     5   ar
     8     4     8    1
     9     5     6   ar
    10     5     7    1
    11     8     9   ar
    12     8    10   ar
    13    11    12    1
    14    12    13   ar
    15    12    17   ar
    16    13    14   ar
    17    13    19    1
    18    14    15   ar
    19    15    16   ar
    20    15    18    1
    21    16    17   ar
    22    20    21   ar
    23    20    22   ar
