@<TRIPOS>MOLECULE
24882_ChemDiv_E612-0510
 26 29 0 0 0
SMALL
GASTEIGER
Energy = 0

@<TRIPOS>ATOM
      1 N           0.6080   -0.8500    0.0000 N.am    1  LIG1       -0.2650
      2 C           1.1960   -1.6580    0.0000 C.2     1  LIG1        0.2493
      3 C           2.1500   -1.3500    0.0000 C.ar    1  LIG1        0.0512
      4 C           2.1500   -0.3500    0.0000 C.ar    1  LIG1        0.0021
      5 C           1.1960   -0.0420    0.0000 C.3     1  LIG1        0.1210
      6 C           3.0170    0.1500    0.0000 C.ar    1  LIG1       -0.0025
      7 C           3.8830   -0.3500    0.0000 C.ar    1  LIG1       -0.0003
      8 C           3.8830   -1.3500    0.0000 C.ar    1  LIG1        0.0001
      9 C           3.0170   -1.8500    0.0000 C.ar    1  LIG1        0.0043
     10 O           0.8880   -2.6080    0.0000 O.2     1  LIG1       -0.2699
     11 C          -0.3920   -0.8500    0.0000 C.3     1  LIG1        0.1568
     12 C          -0.8920   -1.7170    0.0000 C.2     1  LIG1        0.2442
     13 N          -1.8880   -1.7170    0.0000 N.am    1  LIG1       -0.2730
     14 C          -2.3880   -0.8500    0.0000 C.3     1  LIG1        0.1255
     15 C          -3.3880   -0.8500    0.0000 C.3     1  LIG1        0.1636
     16 O          -3.8880   -1.7170    0.0000 O.3     1  LIG1       -0.3501
     17 C          -3.3880   -2.5830    0.0000 C.3     1  LIG1        0.1636
     18 C          -2.3880   -2.5830    0.0000 C.3     1  LIG1        0.1255
     19 O          -0.3920   -2.5830    0.0000 O.2     1  LIG1       -0.2731
     20 C          -0.8920    0.0170    0.0000 C.3     1  LIG1        0.0556
     21 C          -0.3920    0.8790    0.0000 C.ar    1  LIG1       -0.0200
     22 C          -0.8920    1.7460    0.0000 C.ar    1  LIG1       -0.0042
     23 C          -0.3920    2.6130    0.0000 C.ar    1  LIG1       -0.0003
     24 C           0.6080    2.6130    0.0000 C.ar    1  LIG1       -0.0000
     25 C           1.1080    1.7460    0.0000 C.ar    1  LIG1       -0.0003
     26 C           0.6080    0.8790    0.0000 C.ar    1  LIG1       -0.0042
@<TRIPOS>BOND
     1     1     2   am
     2     1     5    1
     3     1    11    1
     4     2     3    1
     5     2    10    2
     6     3     4   ar
     7     3     9   ar
     8     4     5    1
     9     4     6   ar
    10     6     7   ar
    11     7     8   ar
    12     8     9   ar
    13    11    12    1
    14    11    20    1
    15    12    13   am
    16    12    19    2
    17    13    14    1
    18    13    18    1
    19    14    15    1
    20    15    16    1
    21    16    17    1
    22    17    18    1
    23    20    21    1
    24    21    22   ar
    25    21    26   ar
    26    22    23   ar
    27    23    24   ar
    28    24    25   ar
    29    25    26   ar
