@<TRIPOS>MOLECULE
24884_ChemDiv_E612-1020
 29 31 0 0 0
SMALL
GASTEIGER
Energy = 0

@<TRIPOS>ATOM
      1 N           2.1080   -1.2830    0.0000 N.am    1  LIG1       -0.2653
      2 C           2.6960   -2.0920    0.0000 C.2     1  LIG1        0.2493
      3 C           3.6500   -1.7790    0.0000 C.ar    1  LIG1        0.0512
      4 C           3.6500   -0.7830    0.0000 C.ar    1  LIG1        0.0021
      5 C           2.6960   -0.4750    0.0000 C.3     1  LIG1        0.1210
      6 C           4.5170   -0.2830    0.0000 C.ar    1  LIG1       -0.0025
      7 C           5.3830   -0.7830    0.0000 C.ar    1  LIG1       -0.0003
      8 C           5.3830   -1.7790    0.0000 C.ar    1  LIG1        0.0001
      9 C           4.5170   -2.2790    0.0000 C.ar    1  LIG1        0.0043
     10 O           2.3880   -3.0420    0.0000 O.2     1  LIG1       -0.2699
     11 C           1.1080   -1.2830    0.0000 C.3     1  LIG1        0.1539
     12 C           0.6080   -2.1500    0.0000 C.2     1  LIG1        0.2595
     13 O           1.1080   -3.0170    0.0000 O.2     1  LIG1       -0.2716
     14 N          -0.3880   -2.1500    0.0000 N.am    1  LIG1       -0.2037
     15 C          -0.8880   -1.2830    0.0000 C.3     1  LIG1        0.1199
     16 C          -1.8880   -1.2830    0.0000 C.3     1  LIG1        0.0498
     17 C          -2.3880   -0.4130    0.0000 C.ar    1  LIG1       -0.0202
     18 C          -3.3880   -0.4130    0.0000 C.ar    1  LIG1       -0.0011
     19 C          -3.8880    0.4460    0.0000 C.ar    1  LIG1        0.0366
     20 C          -3.3880    1.3170    0.0000 C.ar    1  LIG1        0.1385
     21 C          -2.3880    1.3170    0.0000 C.ar    1  LIG1        0.0366
     22 C          -1.8880    0.4460    0.0000 C.ar    1  LIG1       -0.0011
     23 O          -3.8880    2.1830    0.0000 O.3     1  LIG1       -0.4755
     24 C          -4.8880    2.1830    0.0000 C.3     1  LIG1        0.2055
     25 C          -5.3880    3.0460    0.0000 C.3     1  LIG1        0.0512
     26 C           0.6080   -0.4130    0.0000 C.3     1  LIG1        0.0293
     27 C           1.1080    0.4460    0.0000 C.3     1  LIG1        0.0021
     28 C           0.6080    1.3170    0.0000 C.3     1  LIG1        0.0001
     29 C           2.1080    0.4460    0.0000 C.3     1  LIG1        0.0001
@<TRIPOS>BOND
     1     1     2   am
     2     1     5    1
     3     1    11    1
     4     2     3    1
     5     2    10    2
     6     3     4   ar
     7     3     9   ar
     8     4     5    1
     9     4     6   ar
    10     6     7   ar
    11     7     8   ar
    12     8     9   ar
    13    11    12    1
    14    11    26    1
    15    12    13    2
    16    12    14   am
    17    14    15    1
    18    15    16    1
    19    16    17    1
    20    17    18   ar
    21    17    22   ar
    22    18    19   ar
    23    19    20   ar
    24    20    21   ar
    25    20    23    1
    26    21    22   ar
    27    23    24    1
    28    24    25    1
    29    26    27    1
    30    27    28    1
    31    27    29    1
