@<TRIPOS>MOLECULE
24889_ChemDiv_2515-5894
 29 33 0 0 0
SMALL
GASTEIGER
Energy = 0

@<TRIPOS>ATOM
      1 S           2.8630    0.4290    0.0000 S.O2    1  LIG1       -0.0565
      2 N           3.8500    0.7630    0.0000 N.pl3   1  LIG1       -0.5152
      3 C           4.6750    0.0880    0.0000 C.ar    1  LIG1        0.0047
      4 N           5.6790    0.2130    0.0000 N.ar    1  LIG1       -0.2605
      5 C           6.0750   -0.7330    0.0000 C.ar    1  LIG1        0.1042
      6 C           5.3380   -1.4080    0.0000 C.ar    1  LIG1        0.0556
      7 S           4.4420   -0.9380    0.0000 S.2     1  LIG1       -0.0898
      8 C           1.8920    0.0880    0.0000 C.ar    1  LIG1        0.0894
      9 C           1.0830    0.7630    0.0000 C.ar    1  LIG1        0.0182
     10 C           0.1170    0.3960    0.0000 C.ar    1  LIG1        0.0179
     11 C          -0.0630   -0.6290    0.0000 C.ar    1  LIG1        0.0750
     12 N          -1.0500   -0.9460    0.0000 N.am    1  LIG1       -0.1610
     13 C          -1.8250   -0.2880    0.0000 C.2     1  LIG1        0.3434
     14 N          -2.8210   -0.6290    0.0000 N.am    1  LIG1       -0.1903
     15 C          -3.7040    0.1630    0.0000 C.3     1  LIG1        0.0802
     16 C          -4.3960   -0.6290    0.0000 C.3     1  LIG1        0.0201
     17 C          -5.1830   -0.3790    0.0000 C.3     1  LIG1        0.0017
     18 C          -5.1830    0.7380    0.0000 C.3     1  LIG1        0.0001
     19 C          -4.6420    1.3380    0.0000 C.3     1  LIG1        0.0017
     20 C          -3.7040    1.0250    0.0000 C.3     1  LIG1        0.0201
     21 C          -5.4330    0.9170    0.0000 C.3     1  LIG1        0.0001
     22 C          -5.4330    0.1630    0.0000 C.3     1  LIG1        0.0017
     23 C          -4.5040   -0.2130    0.0000 C.3     1  LIG1        0.0201
     24 C          -6.0750   -0.6290    0.0000 C.3     1  LIG1        0.0001
     25 O          -1.6420    0.7380    0.0000 O.2     1  LIG1       -0.2488
     26 C           0.7080   -1.2540    0.0000 C.ar    1  LIG1        0.0179
     27 C           1.7040   -0.9380    0.0000 C.ar    1  LIG1        0.0182
     28 O           2.5330    1.4130    0.0000 O.2     1  LIG1       -0.1841
     29 O           3.2040   -0.5580    0.0000 O.2     1  LIG1       -0.1841
@<TRIPOS>BOND
     1     1     2    1
     2     1     8    1
     3     1    28    2
     4     1    29    2
     5     2     3    1
     6     3     4   ar
     7     3     7   ar
     8     4     5   ar
     9     5     6   ar
    10     6     7   ar
    11     8     9   ar
    12     8    27   ar
    13     9    10   ar
    14    10    11   ar
    15    11    12    1
    16    11    26   ar
    17    12    13   am
    18    13    14   am
    19    13    25    2
    20    14    15    1
    21    15    16    1
    22    15    20    1
    23    15    23    1
    24    16    17    1
    25    17    18    1
    26    17    24    1
    27    18    19    1
    28    19    20    1
    29    19    21    1
    30    21    22    1
    31    22    23    1
    32    22    24    1
    33    26    27   ar
