@<TRIPOS>MOLECULE
24886_ChemDiv_E612-1509
 18 20 0 0 0
SMALL
GASTEIGER
Energy = 0

@<TRIPOS>ATOM
      1 N           0.3790    0.3830    0.0000 N.am    1  LIG1       -0.2636
      2 C           0.9670   -0.4250    0.0000 C.2     1  LIG1        0.2494
      3 C           1.9210   -0.1170    0.0000 C.ar    1  LIG1        0.0512
      4 C           1.9210    0.8830    0.0000 C.ar    1  LIG1        0.0021
      5 C           0.9670    1.1920    0.0000 C.3     1  LIG1        0.1211
      6 C           2.7880    1.3830    0.0000 C.ar    1  LIG1       -0.0025
      7 C           3.6540    0.8830    0.0000 C.ar    1  LIG1       -0.0003
      8 C           3.6540   -0.1170    0.0000 C.ar    1  LIG1        0.0001
      9 C           2.7880   -0.6170    0.0000 C.ar    1  LIG1        0.0043
     10 O           0.6580   -1.3790    0.0000 O.2     1  LIG1       -0.2699
     11 C          -0.6210    0.3830    0.0000 C.3     1  LIG1        0.1798
     12 C          -1.1210   -0.4830    0.0000 C.2     1  LIG1        0.2460
     13 N          -2.1210   -0.4830    0.0000 N.am    1  LIG1       -0.2781
     14 C          -2.7080   -1.2920    0.0000 C.3     1  LIG1        0.0935
     15 C          -3.6580   -0.9830    0.0000 C.3     1  LIG1        0.0233
     16 C          -3.6580    0.0170    0.0000 C.3     1  LIG1        0.0233
     17 C          -2.7080    0.3250    0.0000 C.3     1  LIG1        0.0935
     18 O          -0.6210   -1.3500    0.0000 O.2     1  LIG1       -0.2730
@<TRIPOS>BOND
     1     1     2   am
     2     1     5    1
     3     1    11    1
     4     2     3    1
     5     2    10    2
     6     3     4   ar
     7     3     9   ar
     8     4     5    1
     9     4     6   ar
    10     6     7   ar
    11     7     8   ar
    12     8     9   ar
    13    11    12    1
    14    12    13   am
    15    12    18    2
    16    13    14    1
    17    13    17    1
    18    14    15    1
    19    15    16    1
    20    16    17    1
