@<TRIPOS>MOLECULE
24887_ChemDiv_0131-0063
 31 35 0 0 0
SMALL
GASTEIGER
Energy = 0

@<TRIPOS>ATOM
      1 S           1.3500   -1.9710    0.0000 S.O2    1  LIG1       -0.0559
      2 N           2.1960   -2.4420    0.0000 N.pl3   1  LIG1       -0.5049
      3 C           3.0290   -1.9540    0.0000 C.ar    1  LIG1        0.0581
      4 N           3.8580   -2.4290    0.0000 N.ar    1  LIG1       -0.2544
      5 C           4.6750   -1.9290    0.0000 C.ar    1  LIG1        0.0601
      6 C           4.6750   -0.9880    0.0000 C.ar    1  LIG1        0.0294
      7 C           3.8580   -0.4920    0.0000 C.ar    1  LIG1        0.0601
      8 N           3.0290   -0.9750    0.0000 N.ar    1  LIG1       -0.2544
      9 C           3.8580    0.4670    0.0000 C.3     1  LIG1        0.0521
     10 C           5.5460   -2.3750    0.0000 C.3     1  LIG1        0.0521
     11 C           0.4920   -1.4880    0.0000 C.ar    1  LIG1        0.0894
     12 C          -0.3540   -1.9880    0.0000 C.ar    1  LIG1        0.0182
     13 C          -1.2000   -1.5130    0.0000 C.ar    1  LIG1        0.0179
     14 C          -1.2000   -0.5330    0.0000 C.ar    1  LIG1        0.0734
     15 N          -2.0290   -0.0580    0.0000 N.am    1  LIG1       -0.1792
     16 C          -2.0500    0.9130    0.0000 C.2     1  LIG1        0.2446
     17 C          -2.9170    1.3960    0.0000 C.3     1  LIG1        0.0708
     18 C          -2.9170    2.3710    0.0000 C.3     1  LIG1        0.0087
     19 C          -3.7460    2.8210    0.0000 C.3     1  LIG1        0.0005
     20 C          -4.5670    2.3500    0.0000 C.3     1  LIG1        0.0000
     21 C          -4.5670    1.3960    0.0000 C.3     1  LIG1        0.0005
     22 C          -3.7460    0.8960    0.0000 C.3     1  LIG1        0.0087
     23 C          -5.5500    0.6040    0.0000 C.3     1  LIG1        0.0000
     24 C          -4.1960    0.8170    0.0000 C.3     1  LIG1        0.0005
     25 C          -2.7380    0.6920    0.0000 C.3     1  LIG1        0.0087
     26 C          -4.1960    1.8920    0.0000 C.3     1  LIG1        0.0000
     27 O          -1.2040    1.4130    0.0000 O.2     1  LIG1       -0.2730
     28 C          -0.3670   -0.0330    0.0000 C.ar    1  LIG1        0.0179
     29 C           0.4920   -0.5130    0.0000 C.ar    1  LIG1        0.0182
     30 O           1.8210   -1.1130    0.0000 O.2     1  LIG1       -0.1841
     31 O           0.8670   -2.8170    0.0000 O.2     1  LIG1       -0.1841
@<TRIPOS>BOND
     1     1     2    1
     2     1    11    1
     3     1    30    2
     4     1    31    2
     5     2     3    1
     6     3     4   ar
     7     3     8   ar
     8     4     5   ar
     9     5     6   ar
    10     5    10    1
    11     6     7   ar
    12     7     8   ar
    13     7     9    1
    14    11    12   ar
    15    11    29   ar
    16    12    13   ar
    17    13    14   ar
    18    14    15    1
    19    14    28   ar
    20    15    16   am
    21    16    17    1
    22    16    27    2
    23    17    18    1
    24    17    22    1
    25    17    25    1
    26    18    19    1
    27    19    20    1
    28    19    26    1
    29    20    21    1
    30    21    22    1
    31    21    23    1
    32    23    24    1
    33    24    25    1
    34    24    26    1
    35    28    29   ar
