@<TRIPOS>MOLECULE
24888_ChemDiv_K786-2829
 28 31 0 0 0
SMALL
GASTEIGER
Energy = 0

@<TRIPOS>ATOM
      1 N          -0.4500    1.1830    0.0000 N.am    1  LIG1       -0.2659
      2 C          -1.0420    2.0000    0.0000 C.2     1  LIG1        0.2493
      3 C          -2.0000    1.6830    0.0000 C.ar    1  LIG1        0.0516
      4 C          -2.0000    0.6830    0.0000 C.ar    1  LIG1        0.0089
      5 C          -1.0420    0.3630    0.0000 C.3     1  LIG1        0.1768
      6 C          -0.7290   -0.5880    0.0000 C.2     1  LIG1        0.2637
      7 N          -1.3960   -1.3330    0.0000 N.am    1  LIG1       -0.2055
      8 C          -1.1380   -2.3000    0.0000 C.3     1  LIG1        0.0954
      9 C          -0.2540   -2.4250    0.0000 C.3     1  LIG1        0.0217
     10 C           0.2080   -3.3380    0.0000 C.3     1  LIG1        0.0018
     11 C          -0.2830   -4.2920    0.0000 C.3     1  LIG1        0.0001
     12 C          -1.3210   -4.5000    0.0000 C.3     1  LIG1        0.0001
     13 C          -2.0750   -3.8040    0.0000 C.3     1  LIG1        0.0018
     14 C          -1.9670   -2.9420    0.0000 C.3     1  LIG1        0.0217
     15 O           0.2460   -0.8000    0.0000 O.2     1  LIG1       -0.2712
     16 C          -2.8790    0.1830    0.0000 C.ar    1  LIG1       -0.0021
     17 C          -3.7330    0.6830    0.0000 C.ar    1  LIG1       -0.0003
     18 C          -3.7330    1.6830    0.0000 C.ar    1  LIG1        0.0001
     19 C          -2.8790    2.1830    0.0000 C.ar    1  LIG1        0.0043
     20 O          -0.7880    2.9710    0.0000 O.2     1  LIG1       -0.2699
     21 C           0.5500    1.1880    0.0000 C.3     1  LIG1        0.1006
     22 C           1.0460    2.0500    0.0000 C.3     1  LIG1        0.0842
     23 C           2.0330    2.0500    0.0000 C.3     1  LIG1        0.1403
     24 N           2.5330    2.9170    0.0000 N.4     1  LIG1        0.3773
     25 C           3.5210    3.0330    0.0000 C.3     1  LIG1        0.1388
     26 C           3.7290    4.0000    0.0000 C.3     1  LIG1        0.0688
     27 C           2.8630    4.5000    0.0000 C.3     1  LIG1        0.0688
     28 C           2.1250    3.8250    0.0000 C.3     1  LIG1        0.1388
@<TRIPOS>BOND
     1     1     2   am
     2     1     5    1
     3     1    21    1
     4     2     3    1
     5     2    20    2
     6     3     4   ar
     7     3    19   ar
     8     4     5    1
     9     4    16   ar
    10     5     6    1
    11     6     7   am
    12     6    15    2
    13     7     8    1
    14     8     9    1
    15     8    14    1
    16     9    10    1
    17    10    11    1
    18    11    12    1
    19    12    13    1
    20    13    14    1
    21    16    17   ar
    22    17    18   ar
    23    18    19   ar
    24    21    22    1
    25    22    23    1
    26    23    24    1
    27    24    25    1
    28    24    28    1
    29    25    26    1
    30    26    27    1
    31    27    28    1
