@<TRIPOS>MOLECULE
24896_ChemDiv_0181-0209
 22 25 0 0 0
SMALL
GASTEIGER
Energy = 0

@<TRIPOS>ATOM
      1 C          -0.7500    0.1670    0.0000 C.ar    1  LIG1       -0.0163
      2 C           0.1960   -0.1420    0.0000 C.3     1  LIG1        0.0793
      3 C           0.1960   -1.1330    0.0000 C.3     1  LIG1        0.1780
      4 C          -0.7500   -1.4420    0.0000 C.3     1  LIG1        0.0609
      5 C          -1.3080   -0.6330    0.0000 C.ar    1  LIG1       -0.0198
      6 C          -2.3000   -0.5250    0.0000 C.ar    1  LIG1        0.0409
      7 C          -2.7170    0.3670    0.0000 C.ar    1  LIG1        0.2339
      8 C          -2.1670    1.1920    0.0000 C.ar    1  LIG1        0.2339
      9 C          -1.1670    1.0790    0.0000 C.ar    1  LIG1        0.0412
     10 O          -2.5880    2.1130    0.0000 O.3     1  LIG1       -0.2832
     11 O          -3.7170    0.4420    0.0000 O.3     1  LIG1       -0.2832
     12 C           1.0540   -1.6380    0.0000 C.3     1  LIG1        0.2365
     13 O           1.9130   -1.1330    0.0000 O.3     1  LIG1       -0.4697
     14 C           1.9420   -0.1420    0.0000 C.ar    1  LIG1        0.1769
     15 C           1.0750    0.3670    0.0000 C.ar    1  LIG1        0.0215
     16 C           1.0750    1.3670    0.0000 C.ar    1  LIG1        0.0026
     17 C           1.9420    1.8630    0.0000 C.ar    1  LIG1        0.0453
     18 C           2.8290    1.3670    0.0000 C.ar    1  LIG1        0.2373
     19 C           2.8290    0.3670    0.0000 C.ar    1  LIG1        0.2674
     20 O           3.7130   -0.1420    0.0000 O.3     1  LIG1       -0.2799
     21 O           3.6960    1.8880    0.0000 O.3     1  LIG1       -0.2830
     22 O           0.0000   -2.1080    0.0000 O.3     1  LIG1       -0.2208
@<TRIPOS>BOND
     1     1     2    1
     2     1     5   ar
     3     1     9   ar
     4     2     3    1
     5     2    15    1
     6     3     4    1
     7     3    12    1
     8     3    22    1
     9     4     5    1
    10     5     6   ar
    11     6     7   ar
    12     7     8   ar
    13     7    11    1
    14     8     9   ar
    15     8    10    1
    16    12    13    1
    17    13    14    1
    18    14    15   ar
    19    14    19   ar
    20    15    16   ar
    21    16    17   ar
    22    17    18   ar
    23    18    19   ar
    24    18    21    1
    25    19    20    1
