@<TRIPOS>MOLECULE
24895_ChemDiv_2889-2746
 26 27 0 0 0
SMALL
GASTEIGER
Energy = 0

@<TRIPOS>ATOM
      1 S           2.2250   -1.2380    0.0000 S.O2    1  LIG1       -0.0559
      2 N           3.2290   -1.2380    0.0000 N.pl3   1  LIG1       -0.5049
      3 C           3.7540   -0.3540    0.0000 C.ar    1  LIG1        0.0586
      4 N           4.7500   -0.3540    0.0000 N.ar    1  LIG1       -0.2543
      5 C           5.2460    0.5080    0.0000 C.ar    1  LIG1        0.0605
      6 C           4.7500    1.3710    0.0000 C.ar    1  LIG1        0.0353
      7 C           3.7540    1.3710    0.0000 C.ar    1  LIG1        0.0996
      8 N           3.2460    0.5080    0.0000 N.ar    1  LIG1       -0.2485
      9 C           6.2500    0.5080    0.0000 C.3     1  LIG1        0.0521
     10 C           1.2330   -1.2380    0.0000 C.ar    1  LIG1        0.0894
     11 C           0.7330   -2.1000    0.0000 C.ar    1  LIG1        0.0182
     12 C          -0.2710   -2.1000    0.0000 C.ar    1  LIG1        0.0179
     13 C          -0.7670   -1.2380    0.0000 C.ar    1  LIG1        0.0734
     14 N          -1.7630   -1.2380    0.0000 N.am    1  LIG1       -0.1792
     15 C          -2.2580   -0.3750    0.0000 C.2     1  LIG1        0.2456
     16 O          -1.7630    0.5080    0.0000 O.2     1  LIG1       -0.2730
     17 C          -3.2630   -0.3750    0.0000 C.3     1  LIG1        0.0876
     18 C          -3.7580    0.5080    0.0000 C.3     1  LIG1        0.0155
     19 C          -4.7540    0.5080    0.0000 C.3     1  LIG1        0.0422
     20 C          -5.2580    1.3710    0.0000 C.2     1  LIG1        0.0503
     21 O          -6.2500    1.3710    0.0000 O.co2   1  LIG1       -0.5492
     22 O          -4.7540    2.2330    0.0000 O.co2   1  LIG1       -0.5492
     23 C          -0.2710   -0.3750    0.0000 C.ar    1  LIG1        0.0179
     24 C           0.7330   -0.3750    0.0000 C.ar    1  LIG1        0.0182
     25 O           2.2250   -0.2420    0.0000 O.2     1  LIG1       -0.1841
     26 O           2.2250   -2.2290    0.0000 O.2     1  LIG1       -0.1841
@<TRIPOS>BOND
     1     1     2    1
     2     1    10    1
     3     1    25    2
     4     1    26    2
     5     2     3    1
     6     3     4   ar
     7     3     8   ar
     8     4     5   ar
     9     5     6   ar
    10     5     9    1
    11     6     7   ar
    12     7     8   ar
    13    10    11   ar
    14    10    24   ar
    15    11    12   ar
    16    12    13   ar
    17    13    14    1
    18    13    23   ar
    19    14    15   am
    20    15    16    2
    21    15    17    1
    22    17    18    1
    23    18    19    1
    24    19    20    1
    25    20    21   ar
    26    20    22   ar
    27    23    24   ar
