@<TRIPOS>MOLECULE
24892_ChemDiv_N085-0027
 23 26 0 0 0
SMALL
GASTEIGER
Energy = 0

@<TRIPOS>ATOM
      1 N           0.1880    0.9670    0.0000 N.am    1  LIG1       -0.2227
      2 C           1.0960    0.5630    0.0000 C.2     1  LIG1        0.2551
      3 C           1.7670    1.3040    0.0000 C.ar    1  LIG1        0.0584
      4 C           1.2630    2.1710    0.0000 C.ar    1  LIG1        0.0584
      5 C           0.2880    1.9630    0.0000 C.2     1  LIG1        0.2551
      6 O          -0.4580    2.6250    0.0000 O.2     1  LIG1       -0.2695
      7 C           1.7540    3.0420    0.0000 C.ar    1  LIG1        0.0047
      8 C           2.7580    3.0420    0.0000 C.ar    1  LIG1        0.0001
      9 C           3.2630    2.1710    0.0000 C.ar    1  LIG1        0.0001
     10 C           2.7630    1.3040    0.0000 C.ar    1  LIG1        0.0047
     11 O           1.3080   -0.4130    0.0000 O.2     1  LIG1       -0.2695
     12 C          -0.6750    0.4630    0.0000 C.3     1  LIG1        0.1071
     13 C          -0.6710   -0.5420    0.0000 C.3     1  LIG1        0.0701
     14 C          -1.5380   -1.0380    0.0000 C.3     1  LIG1        0.0601
     15 N          -1.5330   -2.0460    0.0000 N.4     1  LIG1        0.2974
     16 C          -0.6710   -2.5460    0.0000 C.3     1  LIG1        0.1084
     17 C           0.1960   -2.0420    0.0000 C.3     1  LIG1        0.0613
     18 C           0.1920   -1.0380    0.0000 C.3     1  LIG1        0.0135
     19 C          -1.5380   -3.0380    0.0000 C.3     1  LIG1        0.1702
     20 C          -2.4040   -2.5460    0.0000 C.3     1  LIG1        0.1084
     21 C          -3.2670   -2.0460    0.0000 C.3     1  LIG1        0.0612
     22 C          -3.2670   -1.0380    0.0000 C.3     1  LIG1        0.0120
     23 C          -2.4040   -0.5420    0.0000 C.3     1  LIG1        0.0554
@<TRIPOS>BOND
     1     1     2   am
     2     1     5   am
     3     1    12    1
     4     2     3    1
     5     2    11    2
     6     3     4   ar
     7     3    10   ar
     8     4     5    1
     9     4     7   ar
    10     5     6    2
    11     7     8   ar
    12     8     9   ar
    13     9    10   ar
    14    12    13    1
    15    13    14    1
    16    13    18    1
    17    14    15    1
    18    14    23    1
    19    15    16    1
    20    15    19    1
    21    15    20    1
    22    16    17    1
    23    17    18    1
    24    20    21    1
    25    21    22    1
    26    22    23    1
