@<TRIPOS>MOLECULE
24890_ChemDiv_N080-0009
 22 25 0 0 0
SMALL
GASTEIGER
Energy = 0

@<TRIPOS>ATOM
      1 N           0.1000    0.7460    0.0000 N.am    1  LIG1       -0.2227
      2 C           0.9670    0.3080    0.0000 C.2     1  LIG1        0.2551
      3 C           1.7250    0.9540    0.0000 C.ar    1  LIG1        0.0584
      4 C           1.3130    1.8960    0.0000 C.ar    1  LIG1        0.0584
      5 C           0.2580    1.7790    0.0000 C.2     1  LIG1        0.2551
      6 O          -0.3460    2.5130    0.0000 O.2     1  LIG1       -0.2695
      7 C           1.8920    2.7170    0.0000 C.ar    1  LIG1        0.0047
      8 C           2.9250    2.6000    0.0000 C.ar    1  LIG1        0.0001
      9 C           3.3330    1.6540    0.0000 C.ar    1  LIG1        0.0001
     10 C           2.7130    0.8460    0.0000 C.ar    1  LIG1        0.0047
     11 O           1.0420   -0.6790    0.0000 O.2     1  LIG1       -0.2695
     12 C          -0.7540    0.2460    0.0000 C.3     1  LIG1        0.1072
     13 C          -0.7540   -0.7330    0.0000 C.3     1  LIG1        0.0717
     14 C          -1.6290   -1.2290    0.0000 C.3     1  LIG1        0.0883
     15 N          -1.6290   -2.2130    0.0000 N.4     1  LIG1        0.3730
     16 C          -0.7540   -2.7130    0.0000 C.3     1  LIG1        0.1383
     17 C           0.1000   -2.2130    0.0000 C.3     1  LIG1        0.0630
     18 C           0.1000   -1.2290    0.0000 C.3     1  LIG1        0.0136
     19 C          -2.4830   -2.7130    0.0000 C.3     1  LIG1        0.1383
     20 C          -3.3380   -2.2130    0.0000 C.3     1  LIG1        0.0629
     21 C          -3.3380   -1.2290    0.0000 C.3     1  LIG1        0.0120
     22 C          -2.4830   -0.7330    0.0000 C.3     1  LIG1        0.0570
@<TRIPOS>BOND
     1     1     2   am
     2     1     5   am
     3     1    12    1
     4     2     3    1
     5     2    11    2
     6     3     4   ar
     7     3    10   ar
     8     4     5    1
     9     4     7   ar
    10     5     6    2
    11     7     8   ar
    12     8     9   ar
    13     9    10   ar
    14    12    13    1
    15    13    14    1
    16    13    18    1
    17    14    15    1
    18    14    22    1
    19    15    16    1
    20    15    19    1
    21    16    17    1
    22    17    18    1
    23    19    20    1
    24    20    21    1
    25    21    22    1
