@<TRIPOS>MOLECULE
24893_ChemDiv_2889-1180
 24 26 0 0 0
SMALL
GASTEIGER
Energy = 0

@<TRIPOS>ATOM
      1 S          -1.7420    0.0290    0.0000 S.O2    1  LIG1       -0.0568
      2 N          -2.2000    0.9040    0.0000 N.pl3   1  LIG1       -0.5205
      3 C          -1.6920    1.7500    0.0000 C.ar    1  LIG1       -0.0237
      4 N          -2.1710    2.6130    0.0000 N.ar    1  LIG1       -0.2543
      5 C          -1.6750    3.4670    0.0000 C.ar    1  LIG1        0.1370
      6 N          -0.6790    3.4420    0.0000 N.ar    1  LIG1       -0.2351
      7 C          -0.2040    2.5750    0.0000 C.ar    1  LIG1        0.0603
      8 C          -0.7130    1.7290    0.0000 C.ar    1  LIG1        0.0098
      9 C           0.8130    2.5750    0.0000 C.3     1  LIG1        0.0521
     10 C          -2.1580    4.3500    0.0000 C.3     1  LIG1        0.0736
     11 C          -1.2460   -0.8580    0.0000 C.ar    1  LIG1        0.0894
     12 C          -0.2460   -0.8830    0.0000 C.ar    1  LIG1        0.0182
     13 C           0.2250   -1.7420    0.0000 C.ar    1  LIG1        0.0179
     14 C          -0.2830   -2.5880    0.0000 C.ar    1  LIG1        0.0734
     15 N           0.2000   -3.4670    0.0000 N.am    1  LIG1       -0.1792
     16 C           1.2080   -3.4670    0.0000 C.2     1  LIG1        0.2451
     17 C           1.7380   -2.5670    0.0000 C.3     1  LIG1        0.0786
     18 C           2.6130   -2.0460    0.0000 C.3     1  LIG1        0.0096
     19 C           1.7380   -1.5580    0.0000 C.3     1  LIG1        0.0096
     20 O           1.7040   -4.3500    0.0000 O.2     1  LIG1       -0.2730
     21 C          -1.2830   -2.5880    0.0000 C.ar    1  LIG1        0.0179
     22 C          -1.7500   -1.6960    0.0000 C.ar    1  LIG1        0.0182
     23 O          -0.8540    0.5130    0.0000 O.2     1  LIG1       -0.1841
     24 O          -2.6170   -0.4580    0.0000 O.2     1  LIG1       -0.1841
@<TRIPOS>BOND
     1     1     2    1
     2     1    11    1
     3     1    23    2
     4     1    24    2
     5     2     3    1
     6     3     4   ar
     7     3     8   ar
     8     4     5   ar
     9     5     6   ar
    10     5    10    1
    11     6     7   ar
    12     7     8   ar
    13     7     9    1
    14    11    12   ar
    15    11    22   ar
    16    12    13   ar
    17    13    14   ar
    18    14    15    1
    19    14    21   ar
    20    15    16   am
    21    16    17    1
    22    16    20    2
    23    17    18    1
    24    17    19    1
    25    18    19    1
    26    21    22   ar
