@<TRIPOS>MOLECULE
24891_ChemDiv_2889-0231
 24 25 0 0 0
SMALL
GASTEIGER
Energy = 0

@<TRIPOS>ATOM
      1 S          -2.8580    0.4540    0.0000 S.O2    1  LIG1       -0.0565
      2 N          -3.4130    1.3250    0.0000 N.pl3   1  LIG1       -0.5152
      3 C          -2.9580    2.2250    0.0000 C.ar    1  LIG1        0.0047
      4 N          -3.3460    3.1460    0.0000 N.ar    1  LIG1       -0.2605
      5 C          -2.5290    3.8080    0.0000 C.ar    1  LIG1        0.1042
      6 C          -1.7500    3.3040    0.0000 C.ar    1  LIG1        0.0556
      7 S          -1.9790    2.2920    0.0000 S.2     1  LIG1       -0.0898
      8 C          -2.2880   -0.3920    0.0000 C.ar    1  LIG1        0.0894
      9 C          -2.7540   -1.2630    0.0000 C.ar    1  LIG1        0.0182
     10 C          -2.2330   -2.1080    0.0000 C.ar    1  LIG1        0.0179
     11 C          -1.2500   -2.1080    0.0000 C.ar    1  LIG1        0.0734
     12 N          -0.7250   -2.9580    0.0000 N.am    1  LIG1       -0.1792
     13 C           0.2710   -2.9580    0.0000 C.2     1  LIG1        0.2456
     14 O           0.7960   -3.8040    0.0000 O.2     1  LIG1       -0.2730
     15 C           0.7500   -2.1250    0.0000 C.3     1  LIG1        0.0876
     16 C           1.7170   -2.0880    0.0000 C.3     1  LIG1        0.0155
     17 C           2.1830   -1.2250    0.0000 C.3     1  LIG1        0.0422
     18 C           3.1670   -1.1710    0.0000 C.2     1  LIG1        0.0503
     19 O           3.6460   -0.3210    0.0000 O.co2   1  LIG1       -0.5492
     20 O           3.6880   -2.0460    0.0000 O.co2   1  LIG1       -0.5492
     21 C          -0.7250   -1.2250    0.0000 C.ar    1  LIG1        0.0179
     22 C          -1.2500   -0.3750    0.0000 C.ar    1  LIG1        0.0182
     23 O          -1.9920    1.0330    0.0000 O.2     1  LIG1       -0.1841
     24 O          -3.6920   -0.0790    0.0000 O.2     1  LIG1       -0.1841
@<TRIPOS>BOND
     1     1     2    1
     2     1     8    1
     3     1    23    2
     4     1    24    2
     5     2     3    1
     6     3     4   ar
     7     3     7   ar
     8     4     5   ar
     9     5     6   ar
    10     6     7   ar
    11     8     9   ar
    12     8    22   ar
    13     9    10   ar
    14    10    11   ar
    15    11    12    1
    16    11    21   ar
    17    12    13   am
    18    13    14    2
    19    13    15    1
    20    15    16    1
    21    16    17    1
    22    17    18    1
    23    18    19   ar
    24    18    20   ar
    25    21    22   ar
