@<TRIPOS>MOLECULE
24907_ChemDiv_3199-0273
 26 30 0 0 0
SMALL
GASTEIGER
Energy = 0

@<TRIPOS>ATOM
      1 N          -0.8210    0.6920    0.0000 N.ar    1  LIG1       -0.2251
      2 C          -0.5130    1.7170    0.0000 C.ar    1  LIG1        0.1005
      3 C           0.5290    1.7000    0.0000 C.ar    1  LIG1        0.1005
      4 N           0.8170    0.6920    0.0000 N.ar    1  LIG1       -0.2251
      5 C           0.0710    0.1170    0.0000 C.ar    1  LIG1        0.1623
      6 C           0.0710   -0.8420    0.0000 C.ar    1  LIG1        0.0358
      7 C          -0.7290   -1.3630    0.0000 C.ar    1  LIG1        0.0031
      8 C          -0.7290   -2.3130    0.0000 C.ar    1  LIG1        0.0012
      9 C           0.1170   -2.8040    0.0000 C.ar    1  LIG1        0.0140
     10 C           0.1170   -3.7920    0.0000 C.2     1  LIG1        0.0729
     11 O           0.9960   -4.2960    0.0000 O.co2   1  LIG1       -0.5446
     12 O          -0.7670   -4.2000    0.0000 O.co2   1  LIG1       -0.5446
     13 C           0.9580   -2.3130    0.0000 C.ar    1  LIG1        0.0012
     14 C           0.9580   -1.3630    0.0000 C.ar    1  LIG1        0.0031
     15 C           1.0080    2.5790    0.0000 C.ar    1  LIG1        0.0192
     16 C           0.5210    3.4250    0.0000 C.ar    1  LIG1        0.0015
     17 C          -0.5130    3.4250    0.0000 C.ar    1  LIG1        0.0015
     18 C          -1.0170    2.5790    0.0000 C.ar    1  LIG1        0.0192
     19 C          -1.9960    2.5790    0.0000 C.ar    1  LIG1        0.0015
     20 C          -2.5460    3.4250    0.0000 C.ar    1  LIG1        0.0000
     21 C          -1.9960    4.2960    0.0000 C.ar    1  LIG1        0.0000
     22 C          -1.0380    4.2960    0.0000 C.ar    1  LIG1        0.0000
     23 C           1.0080    4.2960    0.0000 C.ar    1  LIG1        0.0000
     24 C           2.0580    4.2960    0.0000 C.ar    1  LIG1        0.0000
     25 C           2.5420    3.4250    0.0000 C.ar    1  LIG1        0.0000
     26 C           2.0580    2.5790    0.0000 C.ar    1  LIG1        0.0015
@<TRIPOS>BOND
     1     1     2   ar
     2     1     5   ar
     3     2     3   ar
     4     2    18   ar
     5     3     4   ar
     6     3    15   ar
     7     4     5   ar
     8     5     6    1
     9     6     7   ar
    10     6    14   ar
    11     7     8   ar
    12     8     9   ar
    13     9    10    1
    14     9    13   ar
    15    10    11   ar
    16    10    12   ar
    17    13    14   ar
    18    15    16   ar
    19    15    26   ar
    20    16    17   ar
    21    16    23   ar
    22    17    18   ar
    23    17    22   ar
    24    18    19   ar
    25    19    20   ar
    26    20    21   ar
    27    21    22   ar
    28    23    24   ar
    29    24    25   ar
    30    25    26   ar
