@<TRIPOS>MOLECULE
24905_ChemDiv_0109-0197
 16 18 0 0 0
SMALL
GASTEIGER
Energy = 0

@<TRIPOS>ATOM
      1 C           0.1500    0.3710    0.0000 C.ar    1  LIG1        0.1631
      2 N          -0.4170   -0.4380    0.0000 N.ar    1  LIG1       -0.2251
      3 C          -1.3830   -0.1380    0.0000 C.ar    1  LIG1        0.1006
      4 C          -1.3830    0.8670    0.0000 C.ar    1  LIG1        0.1006
      5 N          -0.4170    1.1750    0.0000 N.ar    1  LIG1       -0.2251
      6 C          -2.2580    1.3790    0.0000 C.ar    1  LIG1        0.0207
      7 C          -3.1380    0.8670    0.0000 C.ar    1  LIG1        0.0016
      8 C          -3.1380   -0.1380    0.0000 C.ar    1  LIG1        0.0016
      9 C          -2.2580   -0.6380    0.0000 C.ar    1  LIG1        0.0207
     10 C           1.1500    0.3710    0.0000 C.ar    1  LIG1        0.0464
     11 C           1.6920   -0.4750    0.0000 C.ar    1  LIG1        0.0606
     12 CL          1.2540   -1.3750    0.0000 Cl      1  LIG1       -0.0821
     13 C           2.6920   -0.4130    0.0000 C.ar    1  LIG1        0.0115
     14 C           3.1330    0.4670    0.0000 C.ar    1  LIG1        0.0009
     15 C           2.6000    1.2880    0.0000 C.ar    1  LIG1        0.0002
     16 C           1.5920    1.2330    0.0000 C.ar    1  LIG1        0.0039
@<TRIPOS>BOND
     1     1     2   ar
     2     1     5   ar
     3     1    10    1
     4     2     3   ar
     5     3     4   ar
     6     3     9   ar
     7     4     5   ar
     8     4     6   ar
     9     6     7   ar
    10     7     8   ar
    11     8     9   ar
    12    10    11   ar
    13    10    16   ar
    14    11    12    1
    15    11    13   ar
    16    13    14   ar
    17    14    15   ar
    18    15    16   ar
