@<TRIPOS>MOLECULE
24906_ChemDiv_0242-0680
 14 15 0 0 0
SMALL
GASTEIGER
Energy = 0

@<TRIPOS>ATOM
      1 C          -0.1040   -0.3580    0.0000 C.ar    1  LIG1        0.1006
      2 C          -0.1040    0.6210    0.0000 C.ar    1  LIG1        0.0715
      3 N          -1.0500    0.9290    0.0000 N.ar    1  LIG1       -0.2257
      4 C          -1.6130    0.1210    0.0000 C.ar    1  LIG1        0.2004
      5 S          -1.0500   -0.6670    0.0000 S.2     1  LIG1       -0.0441
      6 N          -2.6250    0.1500    0.0000 N.pl3   1  LIG1       -0.0998
      7 C           0.6630    1.2500    0.0000 C.3     1  LIG1        0.0482
      8 C           1.6630    1.0460    0.0000 C.3     1  LIG1        0.0257
      9 C           2.0790    0.0960    0.0000 C.3     1  LIG1        0.1158
     10 N           1.6630   -0.7880    0.0000 N.am    1  LIG1       -0.2012
     11 C           0.6630   -0.9960    0.0000 C.2     1  LIG1        0.2721
     12 O           0.4540   -2.0040    0.0000 O.2     1  LIG1       -0.2678
     13 C           2.6210    1.3000    0.0000 C.3     1  LIG1        0.0022
     14 C           1.9170    2.0080    0.0000 C.3     1  LIG1        0.0022
@<TRIPOS>BOND
     1     1     2   ar
     2     1     5   ar
     3     1    11    1
     4     2     3   ar
     5     2     7    1
     6     3     4   ar
     7     4     5   ar
     8     4     6    1
     9     7     8    1
    10     8     9    1
    11     8    13    1
    12     8    14    1
    13     9    10    1
    14    10    11   am
    15    11    12    2
