@<TRIPOS>MOLECULE
24900_ChemDiv_4483-0663
 28 30 0 0 0
SMALL
GASTEIGER
Energy = 0

@<TRIPOS>ATOM
      1 N          -0.6290    1.2750    0.0000 N.am    1  LIG1       -0.2036
      2 C          -1.2170    0.4630    0.0000 C.2     1  LIG1        0.2564
      3 C          -2.1670    0.7710    0.0000 C.ar    1  LIG1        0.0584
      4 C          -2.1670    1.7880    0.0000 C.ar    1  LIG1        0.0584
      5 C          -1.2170    2.0960    0.0000 C.2     1  LIG1        0.2564
      6 O          -0.9080    3.0920    0.0000 O.2     1  LIG1       -0.2694
      7 C          -3.0420    2.2830    0.0000 C.ar    1  LIG1        0.0047
      8 C          -3.9170    1.7710    0.0000 C.ar    1  LIG1        0.0001
      9 C          -3.9170    0.7920    0.0000 C.ar    1  LIG1        0.0001
     10 C          -3.0420    0.2790    0.0000 C.ar    1  LIG1        0.0047
     11 O          -0.8920   -0.5170    0.0000 O.2     1  LIG1       -0.2694
     12 C           0.3880    1.2750    0.0000 C.3     1  LIG1        0.2038
     13 N           0.8830    0.3960    0.0000 N.am    1  LIG1       -0.2373
     14 C           1.8960    0.3960    0.0000 C.ar    1  LIG1        0.0893
     15 C           2.4000    1.2750    0.0000 C.ar    1  LIG1        0.1523
     16 O           1.8830    2.1830    0.0000 O.3     1  LIG1       -0.4702
     17 C           2.4000    3.0460    0.0000 C.3     1  LIG1        0.2525
     18 C           3.4040    1.2750    0.0000 C.ar    1  LIG1        0.0382
     19 C           3.9130    0.3960    0.0000 C.ar    1  LIG1        0.0032
     20 C           3.4040   -0.4710    0.0000 C.ar    1  LIG1        0.0015
     21 C           2.4080   -0.4710    0.0000 C.ar    1  LIG1        0.0180
     22 C           0.3880   -0.4710    0.0000 C.2     1  LIG1        0.2306
     23 O          -0.3290   -0.4710    0.0000 O.2     1  LIG1       -0.2745
     24 C           0.8960   -1.3460    0.0000 C.3     1  LIG1        0.0857
     25 C           1.8960   -1.3460    0.0000 C.3     1  LIG1        0.0096
     26 C           2.4000   -2.2210    0.0000 C.3     1  LIG1        0.0005
     27 C           3.4040   -2.2210    0.0000 C.3     1  LIG1        0.0000
     28 C           3.9130   -3.0880    0.0000 C.3     1  LIG1        0.0000
@<TRIPOS>BOND
     1     1     2   am
     2     1     5   am
     3     1    12    1
     4     2     3    1
     5     2    11    2
     6     3     4   ar
     7     3    10   ar
     8     4     5    1
     9     4     7   ar
    10     5     6    2
    11     7     8   ar
    12     8     9   ar
    13     9    10   ar
    14    12    13    1
    15    13    14    1
    16    13    22   am
    17    14    15   ar
    18    14    21   ar
    19    15    16    1
    20    15    18   ar
    21    16    17    1
    22    18    19   ar
    23    19    20   ar
    24    20    21   ar
    25    22    23    2
    26    22    24    1
    27    24    25    1
    28    25    26    1
    29    26    27    1
    30    27    28    1
