@<TRIPOS>MOLECULE
24909_ChemDiv_3327-0134
 24 28 0 0 0
SMALL
GASTEIGER
Energy = 0

@<TRIPOS>ATOM
      1 N          -0.8210    0.4920    0.0000 N.ar    1  LIG1       -0.2251
      2 C          -0.5250    1.4580    0.0000 C.ar    1  LIG1        0.1005
      3 C           0.5000    1.4580    0.0000 C.ar    1  LIG1        0.1005
      4 N           0.8250    0.4920    0.0000 N.ar    1  LIG1       -0.2251
      5 C          -0.0080   -0.0790    0.0000 C.ar    1  LIG1        0.1623
      6 C           0.0000   -1.0750    0.0000 C.ar    1  LIG1        0.0360
      7 C          -0.8500   -1.5460    0.0000 C.ar    1  LIG1        0.0063
      8 C          -0.8500   -2.5420    0.0000 C.ar    1  LIG1        0.0421
      9 C           0.0210   -3.0420    0.0000 C.ar    1  LIG1        0.1957
     10 C           0.8710   -2.5420    0.0000 C.ar    1  LIG1        0.0421
     11 C           0.8710   -1.5460    0.0000 C.ar    1  LIG1        0.0063
     12 O           0.0540   -4.0370    0.0000 O.3     1  LIG1       -0.2866
     13 C           1.0130    2.3130    0.0000 C.ar    1  LIG1        0.0192
     14 C           0.5000    3.1830    0.0000 C.ar    1  LIG1        0.0015
     15 C          -0.5250    3.1830    0.0000 C.ar    1  LIG1        0.0015
     16 C          -1.0040    2.3130    0.0000 C.ar    1  LIG1        0.0192
     17 C          -2.0330    2.3130    0.0000 C.ar    1  LIG1        0.0015
     18 C          -2.5170    3.1830    0.0000 C.ar    1  LIG1        0.0000
     19 C          -2.0330    4.0370    0.0000 C.ar    1  LIG1        0.0000
     20 C          -1.0040    4.0370    0.0000 C.ar    1  LIG1        0.0000
     21 C           1.0130    4.0370    0.0000 C.ar    1  LIG1        0.0000
     22 C           2.0080    4.0370    0.0000 C.ar    1  LIG1        0.0000
     23 C           2.5130    3.1830    0.0000 C.ar    1  LIG1        0.0000
     24 C           2.0080    2.3130    0.0000 C.ar    1  LIG1        0.0015
@<TRIPOS>BOND
     1     1     2   ar
     2     1     5   ar
     3     2     3   ar
     4     2    16   ar
     5     3     4   ar
     6     3    13   ar
     7     4     5   ar
     8     5     6    1
     9     6     7   ar
    10     6    11   ar
    11     7     8   ar
    12     8     9   ar
    13     9    10   ar
    14     9    12    1
    15    10    11   ar
    16    13    14   ar
    17    13    24   ar
    18    14    15   ar
    19    14    21   ar
    20    15    16   ar
    21    15    20   ar
    22    16    17   ar
    23    17    18   ar
    24    18    19   ar
    25    19    20   ar
    26    21    22   ar
    27    22    23   ar
    28    23    24   ar
