@<TRIPOS>MOLECULE
24916_ChemDiv_0356-0001
 30 32 0 0 0
SMALL
GASTEIGER
Energy = 0

@<TRIPOS>ATOM
      1 C          -0.3170   -1.3040    0.0000 C.ar    1  LIG1        0.0420
      2 C           0.5580   -1.6670    0.0000 C.2     1  LIG1        0.1957
      3 C           1.2330   -0.8830    0.0000 C.ar    1  LIG1        0.0420
      4 C           0.6830   -0.0540    0.0000 C.ar    1  LIG1        0.0034
      5 C          -0.2830   -0.3000    0.0000 C.ar    1  LIG1        0.0034
      6 C          -1.1380    0.2130    0.0000 C.ar    1  LIG1        0.0032
      7 C          -2.0210   -0.2460    0.0000 C.ar    1  LIG1        0.0369
      8 C          -2.0460   -1.2420    0.0000 C.ar    1  LIG1        0.1390
      9 C          -1.1920   -1.7920    0.0000 C.ar    1  LIG1        0.0401
     10 O          -2.9290   -1.6960    0.0000 O.3     1  LIG1       -0.4690
     11 C          -3.7460   -1.1540    0.0000 C.3     1  LIG1        0.2675
     12 C          -4.6540   -1.5710    0.0000 C.3     1  LIG1        0.1867
     13 N          -5.4710   -1.0330    0.0000 N.4     1  LIG1        0.3802
     14 C          -6.3460   -1.4580    0.0000 C.3     1  LIG1        0.1389
     15 C          -7.1710   -0.8830    0.0000 C.3     1  LIG1        0.0688
     16 C          -5.3830   -0.0290    0.0000 C.3     1  LIG1        0.1389
     17 C          -4.4710    0.4000    0.0000 C.3     1  LIG1        0.0688
     18 C           1.1380    0.8540    0.0000 C.ar    1  LIG1        0.0032
     19 C           2.1420    0.9130    0.0000 C.ar    1  LIG1        0.0369
     20 C           2.6790    0.0290    0.0000 C.ar    1  LIG1        0.1390
     21 C           2.2250   -0.8500    0.0000 C.ar    1  LIG1        0.0401
     22 O           3.6830    0.0580    0.0000 O.3     1  LIG1       -0.4690
     23 C           4.1960    0.9130    0.0000 C.3     1  LIG1        0.2675
     24 C           5.1750    0.9130    0.0000 C.3     1  LIG1        0.1867
     25 N           5.6880    1.7920    0.0000 N.4     1  LIG1        0.3802
     26 C           5.1750    2.6380    0.0000 C.3     1  LIG1        0.1389
     27 C           4.1710    2.6040    0.0000 C.3     1  LIG1        0.0688
     28 C           6.6920    1.7920    0.0000 C.3     1  LIG1        0.1389
     29 C           7.1710    2.6750    0.0000 C.3     1  LIG1        0.0688
     30 O           0.7790   -2.6710    0.0000 O.2     1  LIG1       -0.2866
@<TRIPOS>BOND
     1     1     2    1
     2     1     5   ar
     3     1     9   ar
     4     2     3    1
     5     2    30    2
     6     3     4   ar
     7     3    21   ar
     8     4     5    1
     9     4    18   ar
    10     5     6   ar
    11     6     7   ar
    12     7     8   ar
    13     8     9   ar
    14     8    10    1
    15    10    11    1
    16    11    12    1
    17    12    13    1
    18    13    14    1
    19    13    16    1
    20    14    15    1
    21    16    17    1
    22    18    19   ar
    23    19    20   ar
    24    20    21   ar
    25    20    22    1
    26    22    23    1
    27    23    24    1
    28    24    25    1
    29    25    26    1
    30    25    28    1
    31    26    27    1
    32    28    29    1
