@<TRIPOS>MOLECULE
24913_ChemDiv_4477-2484
 31 34 0 0 0
SMALL
GASTEIGER
Energy = 0

@<TRIPOS>ATOM
      1 N          -0.4710   -2.9710    0.0000 N.am    1  LIG1       -0.2206
      2 C          -0.5250   -3.9330    0.0000 C.2     1  LIG1        0.2317
      3 C           0.3460   -4.2500    0.0000 C.3     1  LIG1        0.0857
      4 C           0.9170   -3.4420    0.0000 C.3     1  LIG1        0.0857
      5 C           0.4460   -2.7210    0.0000 C.2     1  LIG1        0.2317
      6 O           0.7500   -1.7040    0.0000 O.2     1  LIG1       -0.2745
      7 C           2.0170   -3.6710    0.0000 C.3     1  LIG1        0.0096
      8 C           2.3880   -4.5540    0.0000 C.3     1  LIG1        0.0005
      9 C           1.7000   -5.4040    0.0000 C.3     1  LIG1        0.0005
     10 C           0.7420   -5.2420    0.0000 C.3     1  LIG1        0.0096
     11 O          -1.4750   -4.5420    0.0000 O.2     1  LIG1       -0.2745
     12 C          -1.2790   -2.3170    0.0000 C.3     1  LIG1        0.1877
     13 C          -1.1250   -1.3130    0.0000 C.2     1  LIG1        0.2663
     14 N          -1.8670   -0.6580    0.0000 N.am    1  LIG1       -0.1778
     15 C          -1.6500    0.3330    0.0000 C.ar    1  LIG1        0.0735
     16 C          -2.3920    1.0750    0.0000 C.ar    1  LIG1        0.0179
     17 C          -2.0630    2.0040    0.0000 C.ar    1  LIG1        0.0182
     18 C          -1.1790    2.2670    0.0000 C.ar    1  LIG1        0.0894
     19 S          -0.9630    3.2710    0.0000 S.O2    1  LIG1       -0.0559
     20 N           0.0290    3.0540    0.0000 N.pl3   1  LIG1       -0.5049
     21 C           0.7080    3.7960    0.0000 C.ar    1  LIG1        0.0590
     22 N           1.6580    3.5750    0.0000 N.ar    1  LIG1       -0.2485
     23 C           2.2790    4.3790    0.0000 C.ar    1  LIG1        0.1000
     24 C           1.9630    5.2630    0.0000 C.ar    1  LIG1        0.0412
     25 C           0.9710    5.4040    0.0000 C.ar    1  LIG1        0.1000
     26 N           0.3460    4.6750    0.0000 N.ar    1  LIG1       -0.2485
     27 O          -0.7540    4.2580    0.0000 O.2     1  LIG1       -0.1841
     28 O          -1.9670    3.4790    0.0000 O.2     1  LIG1       -0.1841
     29 C          -0.4920    1.6000    0.0000 C.ar    1  LIG1        0.0182
     30 C          -0.7000    0.6500    0.0000 C.ar    1  LIG1        0.0179
     31 O          -0.1330   -1.0830    0.0000 O.2     1  LIG1       -0.2711
@<TRIPOS>BOND
     1     1     2   am
     2     1     5   am
     3     1    12    1
     4     2     3    1
     5     2    11    2
     6     3     4    1
     7     3    10    1
     8     4     5    1
     9     4     7    1
    10     5     6    2
    11     7     8    1
    12     8     9    1
    13     9    10    1
    14    12    13    1
    15    13    14   am
    16    13    31    2
    17    14    15    1
    18    15    16   ar
    19    15    30   ar
    20    16    17   ar
    21    17    18   ar
    22    18    19    1
    23    18    29   ar
    24    19    20    1
    25    19    27    2
    26    19    28    2
    27    20    21    1
    28    21    22   ar
    29    21    26   ar
    30    22    23   ar
    31    23    24   ar
    32    24    25   ar
    33    25    26   ar
    34    29    30   ar
