@<TRIPOS>MOLECULE
24917_ChemDiv_4802-0027
 38 42 0 0 0
SMALL
GASTEIGER
Energy = 0

@<TRIPOS>ATOM
      1 N           0.3460   -2.9040    0.0000 N.am    1  LIG1       -0.2225
      2 C           0.3130   -3.9170    0.0000 C.2     1  LIG1        0.2317
      3 C           1.0920   -4.2250    0.0000 C.3     1  LIG1        0.0857
      4 C           1.7540   -3.5210    0.0000 C.3     1  LIG1        0.0857
      5 C           1.3040   -2.7420    0.0000 C.2     1  LIG1        0.2317
      6 O           1.6330   -1.7500    0.0000 O.2     1  LIG1       -0.2745
      7 C           2.8210   -3.7880    0.0000 C.3     1  LIG1        0.0096
      8 C           3.0880   -4.6250    0.0000 C.3     1  LIG1        0.0005
      9 C           2.4170   -5.5040    0.0000 C.3     1  LIG1        0.0005
     10 C           1.4920   -5.2420    0.0000 C.3     1  LIG1        0.0096
     11 O          -0.6580   -4.3920    0.0000 O.2     1  LIG1       -0.2745
     12 C          -0.3170   -2.2790    0.0000 C.3     1  LIG1        0.1647
     13 C          -0.1830   -1.2880    0.0000 C.2     1  LIG1        0.2644
     14 N          -0.9210   -0.6250    0.0000 N.am    1  LIG1       -0.1778
     15 C          -0.7130    0.3670    0.0000 C.ar    1  LIG1        0.0735
     16 C          -1.4500    1.1040    0.0000 C.ar    1  LIG1        0.0179
     17 C          -1.1420    2.0630    0.0000 C.ar    1  LIG1        0.0182
     18 C          -0.2290    2.3250    0.0000 C.ar    1  LIG1        0.0894
     19 S          -0.0170    3.3380    0.0000 S.O2    1  LIG1       -0.0559
     20 N           0.9630    3.1170    0.0000 N.pl3   1  LIG1       -0.5049
     21 C           1.6330    3.8670    0.0000 C.ar    1  LIG1        0.0590
     22 N           2.5920    3.6460    0.0000 N.ar    1  LIG1       -0.2485
     23 C           3.2210    4.4380    0.0000 C.ar    1  LIG1        0.1000
     24 C           2.9420    5.3500    0.0000 C.ar    1  LIG1        0.0412
     25 C           1.8960    5.5040    0.0000 C.ar    1  LIG1        0.1000
     26 N           1.2710    4.7540    0.0000 N.ar    1  LIG1       -0.2485
     27 O           0.1790    4.3250    0.0000 O.2     1  LIG1       -0.1841
     28 O          -1.0210    3.5380    0.0000 O.2     1  LIG1       -0.1841
     29 C           0.4330    1.6330    0.0000 C.ar    1  LIG1        0.0182
     30 C           0.2460    0.6960    0.0000 C.ar    1  LIG1        0.0179
     31 O           0.8290   -1.0880    0.0000 O.2     1  LIG1       -0.2712
     32 C          -1.3750   -2.3420    0.0000 C.3     1  LIG1        0.0560
     33 C          -1.8040   -3.2580    0.0000 C.ar    1  LIG1       -0.0200
     34 C          -1.2080   -4.0500    0.0000 C.ar    1  LIG1       -0.0042
     35 C          -1.6380   -4.9880    0.0000 C.ar    1  LIG1       -0.0003
     36 C          -2.6380   -5.1210    0.0000 C.ar    1  LIG1       -0.0000
     37 C          -3.2250   -4.3170    0.0000 C.ar    1  LIG1       -0.0003
     38 C          -2.7710   -3.3330    0.0000 C.ar    1  LIG1       -0.0042
@<TRIPOS>BOND
     1     1     2   am
     2     1     5   am
     3     1    12    1
     4     2     3    1
     5     2    11    2
     6     3     4    1
     7     3    10    1
     8     4     5    1
     9     4     7    1
    10     5     6    2
    11     7     8    1
    12     8     9    1
    13     9    10    1
    14    12    13    1
    15    12    32    1
    16    13    14   am
    17    13    31    2
    18    14    15    1
    19    15    16   ar
    20    15    30   ar
    21    16    17   ar
    22    17    18   ar
    23    18    19    1
    24    18    29   ar
    25    19    20    1
    26    19    27    2
    27    19    28    2
    28    20    21    1
    29    21    22   ar
    30    21    26   ar
    31    22    23   ar
    32    23    24   ar
    33    24    25   ar
    34    25    26   ar
    35    29    30   ar
    36    32    33    1
    37    33    34   ar
    38    33    38   ar
    39    34    35   ar
    40    35    36   ar
    41    36    37   ar
    42    37    38   ar
