@<TRIPOS>MOLECULE
24918_ChemDiv_0356-0016
 42 44 0 0 0
SMALL
GASTEIGER
Energy = 0

@<TRIPOS>ATOM
      1 C          -1.3880    2.3580    0.0000 C.ar    1  LIG1        0.0420
      2 C          -0.4210    2.0920    0.0000 C.2     1  LIG1        0.1957
      3 C           0.1330    2.8500    0.0000 C.ar    1  LIG1        0.0420
      4 C          -0.4210    3.6750    0.0000 C.ar    1  LIG1        0.0034
      5 C          -1.3880    3.3670    0.0000 C.ar    1  LIG1        0.0034
      6 C          -2.2500    3.8830    0.0000 C.ar    1  LIG1        0.0032
      7 C          -3.1130    3.3670    0.0000 C.ar    1  LIG1        0.0369
      8 C          -3.1130    2.3580    0.0000 C.ar    1  LIG1        0.1390
      9 C          -2.2500    1.8790    0.0000 C.ar    1  LIG1        0.0401
     10 O          -3.9750    1.8420    0.0000 O.3     1  LIG1       -0.4691
     11 C          -3.9750    0.8420    0.0000 C.3     1  LIG1        0.2658
     12 C          -4.8380    0.3250    0.0000 C.3     1  LIG1        0.1573
     13 N          -4.8380   -0.6670    0.0000 N.4     1  LIG1        0.3084
     14 C          -4.8380   -1.6710    0.0000 C.3     1  LIG1        0.2194
     15 C          -3.9750   -2.1540    0.0000 C.2     1  LIG1        0.3739
     16 O          -3.1130   -1.6710    0.0000 O.2     1  LIG1       -0.2435
     17 O          -3.9750   -3.1580    0.0000 O.3     1  LIG1       -0.4445
     18 C          -3.1130   -3.6420    0.0000 C.3     1  LIG1        0.2088
     19 C          -3.1130   -4.6330    0.0000 C.3     1  LIG1        0.0513
     20 C          -3.8330   -0.6670    0.0000 C.3     1  LIG1        0.1095
     21 C          -3.3500    0.1960    0.0000 C.3     1  LIG1        0.0671
     22 C          -5.8290   -0.6670    0.0000 C.3     1  LIG1        0.1095
     23 C          -6.3460   -1.5290    0.0000 C.3     1  LIG1        0.0671
     24 C          -0.0080    4.5710    0.0000 C.ar    1  LIG1        0.0032
     25 C           0.9960    4.6330    0.0000 C.ar    1  LIG1        0.0369
     26 C           1.5880    3.8170    0.0000 C.ar    1  LIG1        0.1390
     27 C           1.1330    2.9130    0.0000 C.ar    1  LIG1        0.0401
     28 O           2.5790    3.8830    0.0000 O.3     1  LIG1       -0.4691
     29 C           3.0960    3.0210    0.0000 C.3     1  LIG1        0.2658
     30 C           4.1000    3.0500    0.0000 C.3     1  LIG1        0.1573
     31 N           4.6210    2.2210    0.0000 N.4     1  LIG1        0.3084
     32 C           5.1380    1.3580    0.0000 C.3     1  LIG1        0.2194
     33 C           4.6500    0.4750    0.0000 C.2     1  LIG1        0.3739
     34 O           3.6540    0.4330    0.0000 O.2     1  LIG1       -0.2435
     35 O           5.1670   -0.4000    0.0000 O.3     1  LIG1       -0.4445
     36 C           4.6920   -1.2630    0.0000 C.3     1  LIG1        0.2088
     37 C           5.2080   -2.1250    0.0000 C.3     1  LIG1        0.0513
     38 C           5.4830    2.7420    0.0000 C.3     1  LIG1        0.1095
     39 C           6.3460    2.2670    0.0000 C.3     1  LIG1        0.0671
     40 C           3.7420    1.6710    0.0000 C.3     1  LIG1        0.1095
     41 C           2.8580    2.1580    0.0000 C.3     1  LIG1        0.0671
     42 O          -0.0750    1.1250    0.0000 O.2     1  LIG1       -0.2866
@<TRIPOS>BOND
     1     1     2    1
     2     1     5   ar
     3     1     9   ar
     4     2     3    1
     5     2    42    2
     6     3     4   ar
     7     3    27   ar
     8     4     5    1
     9     4    24   ar
    10     5     6   ar
    11     6     7   ar
    12     7     8   ar
    13     8     9   ar
    14     8    10    1
    15    10    11    1
    16    11    12    1
    17    12    13    1
    18    13    14    1
    19    13    20    1
    20    13    22    1
    21    14    15    1
    22    15    16    2
    23    15    17    1
    24    17    18    1
    25    18    19    1
    26    20    21    1
    27    22    23    1
    28    24    25   ar
    29    25    26   ar
    30    26    27   ar
    31    26    28    1
    32    28    29    1
    33    29    30    1
    34    30    31    1
    35    31    32    1
    36    31    38    1
    37    31    40    1
    38    32    33    1
    39    33    34    2
    40    33    35    1
    41    35    36    1
    42    36    37    1
    43    38    39    1
    44    40    41    1
