@<TRIPOS>MOLECULE
24911_ChemDiv_5214-0007
 26 30 0 0 0
SMALL
GASTEIGER
Energy = 0

@<TRIPOS>ATOM
      1 N          -0.5250    0.9250    0.0000 N.ar    1  LIG1       -0.2251
      2 C          -1.4670    0.6170    0.0000 C.ar    1  LIG1        0.1005
      3 C          -1.4670   -0.4000    0.0000 C.ar    1  LIG1        0.1005
      4 N          -0.5250   -0.7080    0.0000 N.ar    1  LIG1       -0.2251
      5 C           0.0540    0.1080    0.0000 C.ar    1  LIG1        0.1624
      6 C           1.0710    0.0420    0.0000 C.ar    1  LIG1        0.0390
      7 C           1.5130   -0.8420    0.0000 C.ar    1  LIG1        0.0433
      8 C           2.5210   -0.9000    0.0000 C.ar    1  LIG1        0.1775
      9 C           3.0540   -0.0460    0.0000 C.ar    1  LIG1        0.2293
     10 C           2.6130    0.8380    0.0000 C.ar    1  LIG1        0.0453
     11 C           1.6000    0.9040    0.0000 C.ar    1  LIG1        0.0065
     12 O           4.0500   -0.0710    0.0000 O.3     1  LIG1       -0.2833
     13 O           2.9880   -1.7830    0.0000 O.3     1  LIG1       -0.4682
     14 C           2.4540   -2.6250    0.0000 C.3     1  LIG1        0.2526
     15 C          -2.3290   -0.8830    0.0000 C.ar    1  LIG1        0.0192
     16 C          -3.1880   -0.4000    0.0000 C.ar    1  LIG1        0.0015
     17 C          -3.1880    0.6170    0.0000 C.ar    1  LIG1        0.0015
     18 C          -2.3290    1.1250    0.0000 C.ar    1  LIG1        0.0192
     19 C          -2.3290    2.1170    0.0000 C.ar    1  LIG1        0.0015
     20 C          -3.1880    2.6290    0.0000 C.ar    1  LIG1        0.0000
     21 C          -4.0540    2.1170    0.0000 C.ar    1  LIG1        0.0000
     22 C          -4.0540    1.1250    0.0000 C.ar    1  LIG1        0.0000
     23 C          -4.0540   -0.8830    0.0000 C.ar    1  LIG1        0.0000
     24 C          -4.0540   -1.8920    0.0000 C.ar    1  LIG1        0.0000
     25 C          -3.1880   -2.3830    0.0000 C.ar    1  LIG1        0.0000
     26 C          -2.3290   -1.8920    0.0000 C.ar    1  LIG1        0.0015
@<TRIPOS>BOND
     1     1     2   ar
     2     1     5   ar
     3     2     3   ar
     4     2    18   ar
     5     3     4   ar
     6     3    15   ar
     7     4     5   ar
     8     5     6    1
     9     6     7   ar
    10     6    11   ar
    11     7     8   ar
    12     8     9   ar
    13     8    13    1
    14     9    10   ar
    15     9    12    1
    16    10    11   ar
    17    13    14    1
    18    15    16   ar
    19    15    26   ar
    20    16    17   ar
    21    16    23   ar
    22    17    18   ar
    23    17    22   ar
    24    18    19   ar
    25    19    20   ar
    26    20    21   ar
    27    21    22   ar
    28    23    24   ar
    29    24    25   ar
    30    25    26   ar
