@<TRIPOS>MOLECULE
24919_ChemDiv_6049-1280
 30 33 0 0 0
SMALL
GASTEIGER
Energy = 0

@<TRIPOS>ATOM
      1 S          -2.5920    1.2630    0.0000 S.O2    1  LIG1       -0.0559
      2 N          -3.1080    2.1290    0.0000 N.pl3   1  LIG1       -0.5049
      3 C          -2.6210    2.9540    0.0000 C.ar    1  LIG1        0.0586
      4 N          -1.6420    2.9880    0.0000 N.ar    1  LIG1       -0.2543
      5 C          -1.1960    3.8920    0.0000 C.ar    1  LIG1        0.0605
      6 C          -1.6960    4.7130    0.0000 C.ar    1  LIG1        0.0353
      7 C          -2.6460    4.6710    0.0000 C.ar    1  LIG1        0.0996
      8 N          -3.1420    3.8250    0.0000 N.ar    1  LIG1       -0.2485
      9 C          -0.2080    3.9420    0.0000 C.3     1  LIG1        0.0521
     10 C          -2.0750    0.4290    0.0000 C.ar    1  LIG1        0.0894
     11 C          -2.5580   -0.3920    0.0000 C.ar    1  LIG1        0.0182
     12 C          -2.0750   -1.2500    0.0000 C.ar    1  LIG1        0.0179
     13 C          -1.1250   -1.2500    0.0000 C.ar    1  LIG1        0.0734
     14 N          -0.6080   -2.1040    0.0000 N.am    1  LIG1       -0.1792
     15 C           0.4080   -2.1040    0.0000 C.2     1  LIG1        0.2458
     16 C           0.9250   -2.9710    0.0000 C.3     1  LIG1        0.0880
     17 C           0.4330   -3.8330    0.0000 C.3     1  LIG1        0.0311
     18 C           0.9290   -4.7130    0.0000 C.2     1  LIG1       -0.0305
     19 C           1.9250   -4.6880    0.0000 C.2     1  LIG1       -0.0306
     20 C           2.4250   -3.8040    0.0000 C.3     1  LIG1        0.0277
     21 C           1.9250   -2.9710    0.0000 C.3     1  LIG1        0.0495
     22 C           2.4540   -2.0960    0.0000 C.2     1  LIG1        0.0508
     23 O           1.9630   -1.1750    0.0000 O.co2   1  LIG1       -0.5492
     24 O           3.4460   -2.2040    0.0000 O.co2   1  LIG1       -0.5492
     25 C           1.4710   -4.4130    0.0000 C.3     1  LIG1        0.0095
     26 O           0.8960   -1.2290    0.0000 O.2     1  LIG1       -0.2730
     27 C          -0.6250   -0.3920    0.0000 C.ar    1  LIG1        0.0179
     28 C          -1.1460    0.4630    0.0000 C.ar    1  LIG1        0.0182
     29 O          -3.4500    0.7960    0.0000 O.2     1  LIG1       -0.1841
     30 O          -1.7710    1.8000    0.0000 O.2     1  LIG1       -0.1841
@<TRIPOS>BOND
     1     1     2    1
     2     1    10    1
     3     1    29    2
     4     1    30    2
     5     2     3    1
     6     3     4   ar
     7     3     8   ar
     8     4     5   ar
     9     5     6   ar
    10     5     9    1
    11     6     7   ar
    12     7     8   ar
    13    10    11   ar
    14    10    28   ar
    15    11    12   ar
    16    12    13   ar
    17    13    14    1
    18    13    27   ar
    19    14    15   am
    20    15    16    1
    21    15    26    2
    22    16    17    1
    23    16    21    1
    24    17    18    1
    25    17    25    1
    26    18    19    2
    27    19    20    1
    28    20    21    1
    29    20    25    1
    30    21    22    1
    31    22    23   ar
    32    22    24   ar
    33    27    28   ar
