@<TRIPOS>MOLECULE
24921_ChemDiv_6150-0130
 33 36 0 0 0
SMALL
GASTEIGER
Energy = 0

@<TRIPOS>ATOM
      1 S           1.9960    0.9380    0.0000 S.O2    1  LIG1       -0.0559
      2 N           2.9580    1.2000    0.0000 N.pl3   1  LIG1       -0.5049
      3 C           3.6580    0.5000    0.0000 C.ar    1  LIG1        0.0581
      4 N           3.4000   -0.4710    0.0000 N.ar    1  LIG1       -0.2544
      5 C           4.0960   -1.1750    0.0000 C.ar    1  LIG1        0.0601
      6 C           5.0630   -0.9170    0.0000 C.ar    1  LIG1        0.0294
      7 C           5.3210    0.0580    0.0000 C.ar    1  LIG1        0.0601
      8 N           4.6210    0.7540    0.0000 N.ar    1  LIG1       -0.2544
      9 C           6.2880    0.3170    0.0000 C.3     1  LIG1        0.0521
     10 C           3.8380   -2.1330    0.0000 C.3     1  LIG1        0.0521
     11 C           1.0250    0.6790    0.0000 C.ar    1  LIG1        0.0894
     12 C           0.7790   -0.2880    0.0000 C.ar    1  LIG1        0.0182
     13 C          -0.1830   -0.5540    0.0000 C.ar    1  LIG1        0.0179
     14 C          -0.8960    0.1500    0.0000 C.ar    1  LIG1        0.0735
     15 N          -1.8540   -0.1080    0.0000 N.am    1  LIG1       -0.1790
     16 C          -2.8290   -0.3630    0.0000 C.2     1  LIG1        0.2486
     17 C          -3.6920    0.1380    0.0000 C.3     1  LIG1        0.0944
     18 C          -4.5540   -0.3790    0.0000 C.ar    1  LIG1       -0.0144
     19 C          -4.5540   -1.3880    0.0000 C.ar    1  LIG1       -0.0038
     20 C          -5.4330   -1.8880    0.0000 C.ar    1  LIG1       -0.0003
     21 C          -6.2880   -1.3880    0.0000 C.ar    1  LIG1       -0.0000
     22 C          -6.2880   -0.3790    0.0000 C.ar    1  LIG1       -0.0003
     23 C          -5.4330    0.1250    0.0000 C.ar    1  LIG1       -0.0038
     24 C          -2.8290    0.6250    0.0000 C.3     1  LIG1        0.0449
     25 C          -2.8290    1.6330    0.0000 C.3     1  LIG1        0.1430
     26 O          -3.6920    2.1380    0.0000 O.3     1  LIG1       -0.3537
     27 C          -4.5540    1.6330    0.0000 C.3     1  LIG1        0.1430
     28 C          -4.5540    0.6250    0.0000 C.3     1  LIG1        0.0449
     29 O          -2.9500   -1.3630    0.0000 O.2     1  LIG1       -0.2727
     30 C          -0.6420    1.1170    0.0000 C.ar    1  LIG1        0.0179
     31 C           0.3170    1.3790    0.0000 C.ar    1  LIG1        0.0182
     32 O           1.7330    1.9040    0.0000 O.2     1  LIG1       -0.1841
     33 O           2.2630   -0.0250    0.0000 O.2     1  LIG1       -0.1841
@<TRIPOS>BOND
     1     1     2    1
     2     1    11    1
     3     1    32    2
     4     1    33    2
     5     2     3    1
     6     3     4   ar
     7     3     8   ar
     8     4     5   ar
     9     5     6   ar
    10     5    10    1
    11     6     7   ar
    12     7     8   ar
    13     7     9    1
    14    11    12   ar
    15    11    31   ar
    16    12    13   ar
    17    13    14   ar
    18    14    15    1
    19    14    30   ar
    20    15    16   am
    21    16    17    1
    22    16    29    2
    23    17    18    1
    24    17    24    1
    25    17    28    1
    26    18    19   ar
    27    18    23   ar
    28    19    20   ar
    29    20    21   ar
    30    21    22   ar
    31    22    23   ar
    32    24    25    1
    33    25    26    1
    34    26    27    1
    35    27    28    1
    36    30    31   ar
