@<TRIPOS>MOLECULE
24925_ChemDiv_0133-0021
 35 41 0 0 0
SMALL
GASTEIGER
Energy = 0

@<TRIPOS>ATOM
      1 C          -0.5710    3.2000    0.0000 C.2     1  LIG1        0.3434
      2 N          -1.3830    2.7330    0.0000 N.am    1  LIG1       -0.1613
      3 C          -1.4000    1.8000    0.0000 C.ar    1  LIG1        0.0723
      4 C          -0.5920    1.3170    0.0000 C.ar    1  LIG1        0.0330
      5 C          -0.5920    0.3420    0.0000 C.ar    1  LIG1        0.0762
      6 N           0.2790   -0.1540    0.0000 N.am    1  LIG1       -0.1609
      7 C           0.2790   -1.0920    0.0000 C.2     1  LIG1        0.3434
      8 N          -0.5920   -1.5710    0.0000 N.am    1  LIG1       -0.1903
      9 C          -0.5920   -2.5250    0.0000 C.3     1  LIG1        0.0802
     10 C           0.2540   -3.0000    0.0000 C.3     1  LIG1        0.0201
     11 C           0.2540   -3.9750    0.0000 C.3     1  LIG1        0.0017
     12 C          -0.5920   -4.4330    0.0000 C.3     1  LIG1        0.0001
     13 C          -1.4170   -3.9750    0.0000 C.3     1  LIG1        0.0017
     14 C          -1.4170   -3.0000    0.0000 C.3     1  LIG1        0.0201
     15 C          -2.3290   -4.6460    0.0000 C.3     1  LIG1        0.0001
     16 C          -1.0250   -4.5170    0.0000 C.3     1  LIG1        0.0017
     17 C          -1.0250   -3.3460    0.0000 C.3     1  LIG1        0.0201
     18 C           0.4040   -4.6250    0.0000 C.3     1  LIG1        0.0001
     19 O           1.0920   -1.5710    0.0000 O.2     1  LIG1       -0.2488
     20 C          -1.4000   -0.1210    0.0000 C.ar    1  LIG1        0.0164
     21 C          -2.2290    0.3420    0.0000 C.ar    1  LIG1       -0.0016
     22 C          -2.2290    1.3170    0.0000 C.ar    1  LIG1       -0.0064
     23 C          -3.0750    1.8000    0.0000 C.3     1  LIG1        0.0324
     24 N           0.2790    2.7130    0.0000 N.am    1  LIG1       -0.1903
     25 C           1.0920    3.2000    0.0000 C.3     1  LIG1        0.0802
     26 C           1.0920    4.1580    0.0000 C.3     1  LIG1        0.0201
     27 C           1.9040    4.6460    0.0000 C.3     1  LIG1        0.0017
     28 C           1.5080    3.8580    0.0000 C.3     1  LIG1        0.0001
     29 C           1.4830    2.6330    0.0000 C.3     1  LIG1        0.0017
     30 C           0.6460    2.2960    0.0000 C.3     1  LIG1        0.0201
     31 C           3.0710    2.4040    0.0000 C.3     1  LIG1        0.0001
     32 C           2.7670    3.2080    0.0000 C.3     1  LIG1        0.0017
     33 C           1.9380    2.7290    0.0000 C.3     1  LIG1        0.0201
     34 C           2.7460    4.1790    0.0000 C.3     1  LIG1        0.0001
     35 O          -0.5380    4.1750    0.0000 O.2     1  LIG1       -0.2488
@<TRIPOS>BOND
     1     1     2   am
     2     1    24   am
     3     1    35    2
     4     2     3    1
     5     3     4   ar
     6     3    22   ar
     7     4     5   ar
     8     5     6    1
     9     5    20   ar
    10     6     7   am
    11     7     8   am
    12     7    19    2
    13     8     9    1
    14     9    10    1
    15     9    14    1
    16     9    17    1
    17    10    11    1
    18    11    12    1
    19    11    18    1
    20    12    13    1
    21    13    14    1
    22    13    15    1
    23    15    16    1
    24    16    17    1
    25    16    18    1
    26    20    21   ar
    27    21    22   ar
    28    22    23    1
    29    24    25    1
    30    25    26    1
    31    25    30    1
    32    25    33    1
    33    26    27    1
    34    27    28    1
    35    27    34    1
    36    28    29    1
    37    29    30    1
    38    29    31    1
    39    31    32    1
    40    32    33    1
    41    32    34    1
