@<TRIPOS>MOLECULE
24926_ChemDiv_4782-0414
 21 23 0 0 0
SMALL
GASTEIGER
Energy = 0

@<TRIPOS>ATOM
      1 C          -0.9540   -0.4250    0.0000 C.3     1  LIG1        0.1760
      2 C          -1.6580   -1.1540    0.0000 C.ar    1  LIG1        0.0099
      3 C          -2.5500   -0.6500    0.0000 C.ar    1  LIG1       -0.0016
      4 C          -2.4290   -0.0330    0.0000 C.ar    1  LIG1       -0.0016
      5 C          -1.5380    0.4830    0.0000 C.ar    1  LIG1        0.0099
      6 C          -1.5540    1.5040    0.0000 C.ar    1  LIG1       -0.0016
      7 C          -2.4290    2.0040    0.0000 C.ar    1  LIG1       -0.0002
      8 C          -3.2960    1.4880    0.0000 C.ar    1  LIG1       -0.0000
      9 C          -3.3080    0.4830    0.0000 C.ar    1  LIG1       -0.0002
     10 C          -3.4170   -1.1540    0.0000 C.ar    1  LIG1       -0.0002
     11 C          -3.4170   -2.1630    0.0000 C.ar    1  LIG1       -0.0000
     12 C          -2.5500   -2.6670    0.0000 C.ar    1  LIG1       -0.0002
     13 C          -1.6580   -2.1630    0.0000 C.ar    1  LIG1       -0.0016
     14 C           0.0460   -0.5250    0.0000 C.3     1  LIG1        0.1150
     15 C           0.6420    0.3000    0.0000 C.1     1  LIG1       -0.0821
     16 C           1.2290    1.1210    0.0000 C.1     1  LIG1       -0.0287
     17 C           1.8170    1.9460    0.0000 C.3     1  LIG1        0.2180
     18 N           2.8420    1.8540    0.0000 N.4     1  LIG1        0.3969
     19 C           3.2460    0.9130    0.0000 C.3     1  LIG1        0.2040
     20 C           3.4130    2.6710    0.0000 C.3     1  LIG1        0.2040
     21 O          -0.7080    0.5630    0.0000 O.3     1  LIG1       -0.2156
@<TRIPOS>BOND
     1     1     2    1
     2     1     5    1
     3     1    14    1
     4     1    21    1
     5     2     3   ar
     6     2    13   ar
     7     3     4    1
     8     3    10   ar
     9     4     5   ar
    10     4     9   ar
    11     5     6   ar
    12     6     7   ar
    13     7     8   ar
    14     8     9   ar
    15    10    11   ar
    16    11    12   ar
    17    12    13   ar
    18    14    15    1
    19    15    16    3
    20    16    17    1
    21    17    18    1
    22    18    19    1
    23    18    20    1
