@<TRIPOS>MOLECULE
24923_ChemDiv_D038-0421
 33 36 0 0 0
SMALL
GASTEIGER
Energy = 0

@<TRIPOS>ATOM
      1 S          -0.8670    2.2330    0.0000 S.O2    1  LIG1       -0.0568
      2 N          -1.8630    2.2330    0.0000 N.pl3   1  LIG1       -0.5205
      3 C          -2.3540    1.3630    0.0000 C.ar    1  LIG1       -0.0237
      4 N          -3.3540    1.3630    0.0000 N.ar    1  LIG1       -0.2543
      5 C          -3.8540    0.4960    0.0000 C.ar    1  LIG1        0.1370
      6 N          -3.3500   -0.3710    0.0000 N.ar    1  LIG1       -0.2351
      7 C          -2.3540   -0.3630    0.0000 C.ar    1  LIG1        0.0603
      8 C          -1.8580    0.4960    0.0000 C.ar    1  LIG1        0.0098
      9 C          -1.8460   -1.2210    0.0000 C.3     1  LIG1        0.0521
     10 C          -4.8580    0.5040    0.0000 C.3     1  LIG1        0.0736
     11 C           0.1330    2.2380    0.0000 C.ar    1  LIG1        0.0894
     12 C           0.6420    3.1080    0.0000 C.ar    1  LIG1        0.0182
     13 C           1.6380    3.1080    0.0000 C.ar    1  LIG1        0.0159
     14 C           2.1380    2.2460    0.0000 C.ar    1  LIG1        0.0504
     15 N           3.1330    2.2460    0.0000 N.am    1  LIG1       -0.2836
     16 C           3.6420    1.3790    0.0000 C.2     1  LIG1        0.2307
     17 C           3.1330    0.5130    0.0000 C.3     1  LIG1        0.1149
     18 C           3.6460   -0.3580    0.0000 C.ar    1  LIG1        0.0275
     19 C           3.2420   -1.2670    0.0000 C.ar    1  LIG1        0.0338
     20 C           3.9790   -1.9460    0.0000 C.ar    1  LIG1        0.1451
     21 O           4.8540   -1.4420    0.0000 O.2     1  LIG1       -0.4507
     22 C           4.6420   -0.4630    0.0000 C.ar    1  LIG1        0.1757
     23 C           3.7830   -2.9130    0.0000 C.ar    1  LIG1        0.0372
     24 C           2.8420   -3.2290    0.0000 C.ar    1  LIG1       -0.0011
     25 C           2.0880   -2.5630    0.0000 C.ar    1  LIG1       -0.0217
     26 C           2.2920   -1.5830    0.0000 C.ar    1  LIG1       -0.0014
     27 C           1.1380   -2.8750    0.0000 C.3     1  LIG1        0.0310
     28 O           4.6420    1.3790    0.0000 O.2     1  LIG1       -0.2744
     29 C           1.6420    1.3710    0.0000 C.ar    1  LIG1        0.0159
     30 C           0.6420    1.3710    0.0000 C.ar    1  LIG1        0.0182
     31 O          -0.8630    1.2380    0.0000 O.2     1  LIG1       -0.1841
     32 O          -0.8670    3.2330    0.0000 O.2     1  LIG1       -0.1841
     33 H           3.6330    3.1130    0.0000 H       1  LIG1        0.1549
@<TRIPOS>BOND
     1     1     2    1
     2     1    11    1
     3     1    31    2
     4     1    32    2
     5     2     3    1
     6     3     4   ar
     7     3     8   ar
     8     4     5   ar
     9     5     6   ar
    10     5    10    1
    11     6     7   ar
    12     7     8   ar
    13     7     9    1
    14    11    12   ar
    15    11    30   ar
    16    12    13   ar
    17    13    14   ar
    18    14    15    1
    19    14    29   ar
    20    15    16   am
    21    15    33    1
    22    16    17    1
    23    16    28    2
    24    17    18    1
    25    18    19   ar
    26    18    22   ar
    27    19    20   ar
    28    19    26   ar
    29    20    21   ar
    30    20    23   ar
    31    21    22   ar
    32    23    24   ar
    33    24    25   ar
    34    25    26   ar
    35    25    27    1
    36    29    30   ar
