@<TRIPOS>MOLECULE
24927_ChemDiv_8012-4027
 36 42 0 0 0
SMALL
GASTEIGER
Energy = 0

@<TRIPOS>ATOM
      1 C           4.0880   -0.2500    0.0000 C.3     1  LIG1        0.0618
      2 N           3.7580    0.7080    0.0000 N.am    1  LIG1       -0.2640
      3 C           2.7750    0.7080    0.0000 C.2     1  LIG1        0.3274
      4 N           2.2920    1.5170    0.0000 N.am    1  LIG1       -0.1622
      5 C           1.2920    1.5170    0.0000 C.ar    1  LIG1        0.0762
      6 C           0.8170    0.7080    0.0000 C.ar    1  LIG1        0.0333
      7 C          -0.1630    0.7080    0.0000 C.ar    1  LIG1        0.0762
      8 N          -0.6880   -0.1580    0.0000 N.am    1  LIG1       -0.1622
      9 C          -1.6750   -0.1580    0.0000 C.2     1  LIG1        0.3274
     10 N          -2.1460   -1.0380    0.0000 N.am    1  LIG1       -0.2640
     11 C          -3.1420   -1.0380    0.0000 C.3     1  LIG1        0.0618
     12 C          -2.7130   -0.1880    0.0000 C.3     1  LIG1        0.0183
     13 C          -3.1920    0.5790    0.0000 C.3     1  LIG1        0.0016
     14 C          -4.1380    0.6290    0.0000 C.3     1  LIG1        0.0001
     15 C          -4.6130   -0.2080    0.0000 C.3     1  LIG1        0.0016
     16 C          -4.1170   -0.9710    0.0000 C.3     1  LIG1        0.0183
     17 C          -5.3330   -0.9710    0.0000 C.3     1  LIG1        0.0001
     18 C          -4.6630   -1.1880    0.0000 C.3     1  LIG1        0.0016
     19 C          -4.3170   -1.8880    0.0000 C.3     1  LIG1        0.0183
     20 C          -3.9580    0.1420    0.0000 C.3     1  LIG1        0.0001
     21 C          -1.5250   -1.8920    0.0000 C.3     1  LIG1        0.1164
     22 O          -2.1460    0.6670    0.0000 O.2     1  LIG1       -0.2504
     23 C          -0.6540    1.5170    0.0000 C.ar    1  LIG1        0.0167
     24 C          -0.1630    2.3460    0.0000 C.ar    1  LIG1        0.0027
     25 C           0.8170    2.3460    0.0000 C.ar    1  LIG1        0.0167
     26 O           2.2920   -0.1580    0.0000 O.2     1  LIG1       -0.2504
     27 C           4.3880    1.7420    0.0000 C.3     1  LIG1        0.1164
     28 C           4.3460   -1.1880    0.0000 C.3     1  LIG1        0.0183
     29 C           3.8250   -1.8920    0.0000 C.3     1  LIG1        0.0016
     30 C           2.8670   -1.7540    0.0000 C.3     1  LIG1        0.0001
     31 C           2.5830   -0.8380    0.0000 C.3     1  LIG1        0.0016
     32 C           3.1710   -0.1210    0.0000 C.3     1  LIG1        0.0183
     33 C           3.2580   -1.4000    0.0000 C.3     1  LIG1        0.0001
     34 C           4.7750   -1.6250    0.0000 C.3     1  LIG1        0.0016
     35 C           5.3290   -1.0420    0.0000 C.3     1  LIG1        0.0183
     36 C           4.7630   -2.3420    0.0000 C.3     1  LIG1        0.0001
@<TRIPOS>BOND
     1     1     2    1
     2     1    28    1
     3     1    32    1
     4     1    35    1
     5     2     3   am
     6     2    27    1
     7     3     4   am
     8     3    26    2
     9     4     5    1
    10     5     6   ar
    11     5    25   ar
    12     6     7   ar
    13     7     8    1
    14     7    23   ar
    15     8     9   am
    16     9    10   am
    17     9    22    2
    18    10    11    1
    19    10    21    1
    20    11    12    1
    21    11    16    1
    22    11    19    1
    23    12    13    1
    24    13    14    1
    25    13    20    1
    26    14    15    1
    27    15    16    1
    28    15    17    1
    29    17    18    1
    30    18    19    1
    31    18    20    1
    32    23    24   ar
    33    24    25   ar
    34    28    29    1
    35    29    30    1
    36    29    36    1
    37    30    31    1
    38    31    32    1
    39    31    33    1
    40    33    34    1
    41    34    35    1
    42    34    36    1
