@<TRIPOS>MOLECULE
24922_ChemDiv_3283-0575
 19 22 0 0 0
SMALL
GASTEIGER
Energy = 0

@<TRIPOS>ATOM
      1 C          -0.1750   -0.1380    0.0000 C.ar    1  LIG1        0.0034
      2 C          -0.1790    0.8670    0.0000 C.ar    1  LIG1        0.0421
      3 C           0.7750    1.1830    0.0000 C.2     1  LIG1        0.1956
      4 C           1.3750    0.3750    0.0000 C.ar    1  LIG1        0.0390
      5 C           0.7830   -0.4380    0.0000 C.ar    1  LIG1        0.0032
      6 C           1.1920   -1.3500    0.0000 C.ar    1  LIG1        0.0001
      7 C           2.1880   -1.4500    0.0000 C.ar    1  LIG1        0.0000
      8 C           2.7710   -0.6380    0.0000 C.ar    1  LIG1        0.0001
      9 C           2.3630    0.2710    0.0000 C.ar    1  LIG1        0.0032
     10 O           1.0880    2.1420    0.0000 O.2     1  LIG1       -0.2866
     11 C          -1.0500    1.3670    0.0000 C.ar    1  LIG1        0.0452
     12 C          -1.9080    0.8580    0.0000 C.ar    1  LIG1        0.1957
     13 C          -1.9040   -0.1420    0.0000 C.ar    1  LIG1        0.0390
     14 C          -1.0420   -0.6420    0.0000 C.ar    1  LIG1        0.0032
     15 C          -1.0380   -1.6330    0.0000 C.ar    1  LIG1        0.0001
     16 C          -1.8960   -2.1380    0.0000 C.ar    1  LIG1        0.0000
     17 C          -2.7670   -1.6380    0.0000 C.ar    1  LIG1        0.0001
     18 C          -2.7670   -0.6420    0.0000 C.ar    1  LIG1        0.0032
     19 O          -2.7750    1.3540    0.0000 O.3     1  LIG1       -0.2866
@<TRIPOS>BOND
     1     1     2   ar
     2     1     5    1
     3     1    14   ar
     4     2     3    1
     5     2    11   ar
     6     3     4    1
     7     3    10    2
     8     4     5   ar
     9     4     9   ar
    10     5     6   ar
    11     6     7   ar
    12     7     8   ar
    13     8     9   ar
    14    11    12   ar
    15    12    13   ar
    16    12    19    1
    17    13    14   ar
    18    13    18   ar
    19    14    15   ar
    20    15    16   ar
    21    16    17   ar
    22    17    18   ar
