@<TRIPOS>MOLECULE
24928_ChemDiv_5267-1165
 22 24 0 0 0
SMALL
GASTEIGER
Energy = 0

@<TRIPOS>ATOM
      1 C          -1.1880   -0.4380    0.0000 C.ar    1  LIG1        0.0094
      2 C          -0.8830   -1.3830    0.0000 C.ar    1  LIG1        0.0392
      3 C          -1.6750   -1.9750    0.0000 C.2     1  LIG1        0.1955
      4 C          -2.5130   -1.3830    0.0000 C.ar    1  LIG1        0.0390
      5 C          -2.2000   -0.4380    0.0000 C.ar    1  LIG1        0.0034
      6 C          -2.8670    0.2580    0.0000 C.ar    1  LIG1        0.0001
      7 C          -3.8540    0.0540    0.0000 C.ar    1  LIG1        0.0000
      8 C          -4.1580   -0.8920    0.0000 C.ar    1  LIG1        0.0001
      9 C          -3.4710   -1.6040    0.0000 C.ar    1  LIG1        0.0032
     10 O          -1.7000   -2.9920    0.0000 O.2     1  LIG1       -0.2866
     11 C           0.1040   -1.5920    0.0000 C.ar    1  LIG1        0.0032
     12 C           0.7750   -0.8790    0.0000 C.ar    1  LIG1        0.0003
     13 C           0.4540    0.0920    0.0000 C.ar    1  LIG1        0.0064
     14 C          -0.5080    0.2830    0.0000 C.ar    1  LIG1        0.0757
     15 C          -0.8170    1.2710    0.0000 C.2     1  LIG1        0.3413
     16 O          -1.8290    1.4750    0.0000 O.2     1  LIG1       -0.2449
     17 O          -0.1330    2.0040    0.0000 O.3     1  LIG1       -0.4427
     18 C           0.8130    1.7670    0.0000 C.3     1  LIG1        0.2407
     19 C           1.5210    2.4880    0.0000 C.3     1  LIG1        0.1894
     20 O           2.4630    2.2670    0.0000 O.3     1  LIG1       -0.3498
     21 C           3.1750    2.9960    0.0000 C.3     1  LIG1        0.1424
     22 C           4.1540    2.7630    0.0000 C.3     1  LIG1        0.0346
@<TRIPOS>BOND
     1     1     2   ar
     2     1     5    1
     3     1    14   ar
     4     2     3    1
     5     2    11   ar
     6     3     4    1
     7     3    10    2
     8     4     5   ar
     9     4     9   ar
    10     5     6   ar
    11     6     7   ar
    12     7     8   ar
    13     8     9   ar
    14    11    12   ar
    15    12    13   ar
    16    13    14   ar
    17    14    15    1
    18    15    16    2
    19    15    17    1
    20    17    18    1
    21    18    19    1
    22    19    20    1
    23    20    21    1
    24    21    22    1
