@<TRIPOS>MOLECULE
24924_ChemDiv_4782-0406
 24 26 0 0 0
SMALL
GASTEIGER
Energy = 0

@<TRIPOS>ATOM
      1 C          -1.4460   -0.4210    0.0000 C.3     1  LIG1        0.1760
      2 C          -2.1790   -1.1540    0.0000 C.ar    1  LIG1        0.0099
      3 C          -3.0460   -0.6460    0.0000 C.ar    1  LIG1       -0.0016
      4 C          -2.9210   -0.0330    0.0000 C.ar    1  LIG1       -0.0016
      5 C          -2.0580    0.4830    0.0000 C.ar    1  LIG1        0.0099
      6 C          -2.0580    1.5000    0.0000 C.ar    1  LIG1       -0.0016
      7 C          -2.9380    2.0040    0.0000 C.ar    1  LIG1       -0.0002
      8 C          -3.8080    1.4880    0.0000 C.ar    1  LIG1       -0.0000
      9 C          -3.8080    0.4830    0.0000 C.ar    1  LIG1       -0.0002
     10 C          -3.9210   -1.1540    0.0000 C.ar    1  LIG1       -0.0002
     11 C          -3.9210   -2.1580    0.0000 C.ar    1  LIG1       -0.0000
     12 C          -3.0460   -2.6630    0.0000 C.ar    1  LIG1       -0.0002
     13 C          -2.1630   -2.1580    0.0000 C.ar    1  LIG1       -0.0016
     14 C          -0.4580   -0.5250    0.0000 C.3     1  LIG1        0.1150
     15 C           0.1330    0.3000    0.0000 C.1     1  LIG1       -0.0821
     16 C           0.7210    1.1170    0.0000 C.1     1  LIG1       -0.0287
     17 C           1.3170    1.9420    0.0000 C.3     1  LIG1        0.2175
     18 N           2.3170    1.8500    0.0000 N.4     1  LIG1        0.3895
     19 C           2.7330    0.9130    0.0000 C.3     1  LIG1        0.1762
     20 C           2.1330    0.0880    0.0000 C.3     1  LIG1        0.2443
     21 O           2.5500   -0.8330    0.0000 O.3     1  LIG1       -0.2137
     22 C           2.9130    2.6670    0.0000 C.3     1  LIG1        0.1403
     23 C           3.9170    2.5710    0.0000 C.3     1  LIG1        0.0689
     24 O          -1.1960    0.5580    0.0000 O.3     1  LIG1       -0.2156
@<TRIPOS>BOND
     1     1     2    1
     2     1     5    1
     3     1    14    1
     4     1    24    1
     5     2     3   ar
     6     2    13   ar
     7     3     4    1
     8     3    10   ar
     9     4     5   ar
    10     4     9   ar
    11     5     6   ar
    12     6     7   ar
    13     7     8   ar
    14     8     9   ar
    15    10    11   ar
    16    11    12   ar
    17    12    13   ar
    18    14    15    1
    19    15    16    3
    20    16    17    1
    21    17    18    1
    22    18    19    1
    23    18    22    1
    24    19    20    1
    25    20    21    1
    26    22    23    1
