@<TRIPOS>MOLECULE
24920_ChemDiv_0356-0051
 24 26 0 0 0
SMALL
GASTEIGER
Energy = 0

@<TRIPOS>ATOM
      1 C           1.1420    0.0080    0.0000 C.ar    1  LIG1        0.0420
      2 C           0.4540   -0.7170    0.0000 C.2     1  LIG1        0.1957
      3 C          -0.4500   -0.2830    0.0000 C.ar    1  LIG1        0.0420
      4 C          -0.3380    0.6500    0.0000 C.ar    1  LIG1        0.0034
      5 C           0.6330    0.8710    0.0000 C.ar    1  LIG1        0.0034
      6 C           1.1130    1.7380    0.0000 C.ar    1  LIG1        0.0032
      7 C           2.1130    1.7380    0.0000 C.ar    1  LIG1        0.0369
      8 C           2.6250    0.8710    0.0000 C.ar    1  LIG1        0.1392
      9 C           2.1130    0.0080    0.0000 C.ar    1  LIG1        0.0401
     10 O           3.6290    0.8710    0.0000 O.3     1  LIG1       -0.4694
     11 C           4.1500    0.0080    0.0000 C.3     1  LIG1        0.2469
     12 C           5.1630    0.0080    0.0000 C.2     1  LIG1        0.0940
     13 O           5.6670    0.8710    0.0000 O.co2   1  LIG1       -0.5454
     14 O           5.6380   -0.8670    0.0000 O.co2   1  LIG1       -0.5454
     15 C          -1.1750    1.2330    0.0000 C.ar    1  LIG1        0.0032
     16 C          -2.0790    0.8000    0.0000 C.ar    1  LIG1        0.0369
     17 C          -2.1500   -0.1420    0.0000 C.ar    1  LIG1        0.1392
     18 C          -1.3540   -0.7170    0.0000 C.ar    1  LIG1        0.0401
     19 O          -3.1380   -0.5330    0.0000 O.3     1  LIG1       -0.4694
     20 C          -3.9290    0.1080    0.0000 C.3     1  LIG1        0.2469
     21 C          -4.8630   -0.2830    0.0000 C.2     1  LIG1        0.0940
     22 O          -5.0170   -1.2580    0.0000 O.co2   1  LIG1       -0.5454
     23 O          -5.6710    0.3250    0.0000 O.co2   1  LIG1       -0.5454
     24 O           0.6330   -1.7330    0.0000 O.2     1  LIG1       -0.2866
@<TRIPOS>BOND
     1     1     2    1
     2     1     5   ar
     3     1     9   ar
     4     2     3    1
     5     2    24    2
     6     3     4   ar
     7     3    18   ar
     8     4     5    1
     9     4    15   ar
    10     5     6   ar
    11     6     7   ar
    12     7     8   ar
    13     8     9   ar
    14     8    10    1
    15    10    11    1
    16    11    12    1
    17    12    13   ar
    18    12    14   ar
    19    15    16   ar
    20    16    17   ar
    21    17    18   ar
    22    17    19    1
    23    19    20    1
    24    20    21    1
    25    21    22   ar
    26    21    23   ar
