@<TRIPOS>MOLECULE
24932_ChemDiv_8011-0720
 28 31 0 0 0
SMALL
GASTEIGER
Energy = 0

@<TRIPOS>ATOM
      1 S           2.8960   -0.0250    0.0000 S.O2    1  LIG1        0.0634
      2 N           1.8540   -0.0250    0.0000 N.3     1  LIG1       -0.1520
      3 C           1.3750    0.8040    0.0000 C.3     1  LIG1        0.1173
      4 C           0.4330    0.8040    0.0000 C.3     1  LIG1        0.1118
      5 N          -0.0460   -0.0080    0.0000 N.pl3   1  LIG1       -0.2852
      6 C          -1.0040   -0.0080    0.0000 C.ar    1  LIG1        0.1631
      7 N          -1.4710    0.8040    0.0000 N.ar    1  LIG1       -0.2240
      8 C          -2.9250   -0.0080    0.0000 C.ar    1  LIG1        0.0897
      9 C          -2.4330   -0.8420    0.0000 C.ar    1  LIG1        0.0572
     10 S          -1.4710   -0.8420    0.0000 S.2     1  LIG1       -0.0510
     11 C          -3.8420   -0.0080    0.0000 C.ar    1  LIG1        0.0184
     12 C          -4.3790    0.8290    0.0000 C.ar    1  LIG1        0.0038
     13 C          -5.3880    0.8290    0.0000 C.ar    1  LIG1        0.0297
     14 C          -5.9080   -0.0250    0.0000 C.ar    1  LIG1        0.1401
     15 C          -5.3920   -0.8790    0.0000 C.ar    1  LIG1        0.0297
     16 C          -4.3960   -0.8790    0.0000 C.ar    1  LIG1        0.0038
     17 F          -6.8630   -0.0250    0.0000 F       1  LIG1       -0.2042
     18 C           0.4330   -0.8420    0.0000 C.3     1  LIG1        0.1118
     19 C           1.3750   -0.8420    0.0000 C.3     1  LIG1        0.1173
     20 C           3.8830   -0.0250    0.0000 C.ar    1  LIG1        0.1222
     21 C           4.3380   -0.8420    0.0000 C.ar    1  LIG1        0.0196
     22 C           5.3580   -0.8420    0.0000 C.ar    1  LIG1       -0.0029
     23 C           5.8830   -0.0250    0.0000 C.ar    1  LIG1       -0.0218
     24 C           5.3580    0.8790    0.0000 C.ar    1  LIG1       -0.0029
     25 C           4.3380    0.8790    0.0000 C.ar    1  LIG1        0.0196
     26 C           6.8630   -0.0250    0.0000 C.3     1  LIG1        0.0310
     27 O           2.8960    0.9830    0.0000 O.2     1  LIG1       -0.1528
     28 O           2.8960   -0.9790    0.0000 O.2     1  LIG1       -0.1528
@<TRIPOS>BOND
     1     1     2    1
     2     1    20    1
     3     1    27    2
     4     1    28    2
     5     2     3    1
     6     2    19    1
     7     3     4    1
     8     4     5    1
     9     5     6    1
    10     5    18    1
    11     6     7   ar
    12     6    10   ar
    13     7     8   ar
    14     8     9   ar
    15     8    11    1
    16     9    10   ar
    17    11    12   ar
    18    11    16   ar
    19    12    13   ar
    20    13    14   ar
    21    14    15   ar
    22    14    17    1
    23    15    16   ar
    24    18    19    1
    25    20    21   ar
    26    20    25   ar
    27    21    22   ar
    28    22    23   ar
    29    23    24   ar
    30    23    26    1
    31    24    25   ar
