@<TRIPOS>MOLECULE
24931_ChemDiv_0251-0261
 20 22 0 0 0
SMALL
GASTEIGER
Energy = 0

@<TRIPOS>ATOM
      1 S           0.5330   -0.2250    0.0000 S.O2    1  LIG1        0.0490
      2 C           0.2420    0.7080    0.0000 C.3     1  LIG1        0.2025
      3 C           0.7210    1.6000    0.0000 C.2     1  LIG1        0.1734
      4 C          -0.1670    2.0540    0.0000 C.3     1  LIG1        0.0595
      5 C          -1.0880    1.6540    0.0000 C.3     1  LIG1        0.0070
      6 C          -1.5750    0.7920    0.0000 C.3     1  LIG1        0.0025
      7 C          -0.6250    1.1670    0.0000 C.3     1  LIG1        0.0311
      8 C          -0.3630    3.0170    0.0000 C.3     1  LIG1        0.0096
      9 C          -1.6500    0.0250    0.0000 C.3     1  LIG1        0.0001
     10 C          -2.2790    1.2000    0.0000 C.3     1  LIG1        0.0001
     11 C          -1.6790    2.0880    0.0000 C.3     1  LIG1        0.0004
     12 O           1.3790    1.9790    0.0000 O.2     1  LIG1       -0.2942
     13 N           0.9040   -1.1540    0.0000 N.3     1  LIG1       -0.1540
     14 C           1.8790   -1.2830    0.0000 C.3     1  LIG1        0.1275
     15 C           2.2750   -2.2170    0.0000 C.3     1  LIG1        0.1613
     16 O           1.6630   -3.0130    0.0000 O.3     1  LIG1       -0.3507
     17 C           0.6790   -2.8750    0.0000 C.3     1  LIG1        0.1613
     18 C           0.3000   -1.9460    0.0000 C.3     1  LIG1        0.1275
     19 O           1.4670    0.1420    0.0000 O.2     1  LIG1       -0.1569
     20 O          -0.4250   -0.7210    0.0000 O.2     1  LIG1       -0.1569
@<TRIPOS>BOND
     1     1     2    1
     2     1    13    1
     3     1    19    2
     4     1    20    2
     5     2     3    1
     6     2     7    1
     7     3     4    1
     8     3    12    2
     9     4     5    1
    10     4     8    1
    11     5     6    1
    12     5    11    1
    13     6     7    1
    14     6     9    1
    15     6    10    1
    16     7     8    1
    17    13    14    1
    18    13    18    1
    19    14    15    1
    20    15    16    1
    21    16    17    1
    22    17    18    1
