@<TRIPOS>MOLECULE
24934_ChemDiv_8011-8320
 24 26 0 0 0
SMALL
GASTEIGER
Energy = 0

@<TRIPOS>ATOM
      1 C           0.0000    0.8000    0.0000 C.ar    1  LIG1        0.1628
      2 N          -0.4960    1.6380    0.0000 N.ar    1  LIG1       -0.2244
      3 C          -1.9420    0.8000    0.0000 C.ar    1  LIG1        0.0852
      4 C          -1.4500   -0.0250    0.0000 C.ar    1  LIG1        0.0275
      5 S          -0.4960   -0.0250    0.0000 S.2     1  LIG1       -0.0559
      6 C          -1.9420   -0.8830    0.0000 C.3     1  LIG1        0.0346
      7 C          -2.9580   -0.8830    0.0000 C.3     1  LIG1        0.0053
      8 C          -3.4540   -1.7460    0.0000 C.3     1  LIG1        0.0004
      9 C          -2.9040    0.8000    0.0000 C.ar    1  LIG1        0.0179
     10 C          -3.3960   -0.0250    0.0000 C.ar    1  LIG1        0.0015
     11 C          -4.3630   -0.0250    0.0000 C.ar    1  LIG1        0.0000
     12 C          -4.8580    0.8000    0.0000 C.ar    1  LIG1        0.0000
     13 C          -4.3630    1.6380    0.0000 C.ar    1  LIG1        0.0000
     14 C          -3.3960    1.6380    0.0000 C.ar    1  LIG1        0.0015
     15 N           0.9880    0.8000    0.0000 N.pl3   1  LIG1       -0.2852
     16 C           1.4710    1.6380    0.0000 C.3     1  LIG1        0.1118
     17 C           2.4540    1.6380    0.0000 C.3     1  LIG1        0.1169
     18 N           2.9330    0.8000    0.0000 N.3     1  LIG1       -0.1559
     19 S           3.8880    0.8000    0.0000 S.O2    1  LIG1        0.0458
     20 O           3.8880    1.7500    0.0000 O.2     1  LIG1       -0.1572
     21 O           3.8880   -0.1880    0.0000 O.2     1  LIG1       -0.1572
     22 C           4.8540    0.8000    0.0000 C.3     1  LIG1        0.1960
     23 C           2.4540   -0.0670    0.0000 C.3     1  LIG1        0.1169
     24 C           1.4710   -0.0670    0.0000 C.3     1  LIG1        0.1118
@<TRIPOS>BOND
     1     1     2   ar
     2     1     5   ar
     3     1    15    1
     4     2     3   ar
     5     3     4   ar
     6     3     9    1
     7     4     5   ar
     8     4     6    1
     9     6     7    1
    10     7     8    1
    11     9    10   ar
    12     9    14   ar
    13    10    11   ar
    14    11    12   ar
    15    12    13   ar
    16    13    14   ar
    17    15    16    1
    18    15    24    1
    19    16    17    1
    20    17    18    1
    21    18    19    1
    22    18    23    1
    23    19    20    2
    24    19    21    2
    25    19    22    1
    26    23    24    1
