@<TRIPOS>MOLECULE
24930_ChemDiv_8009-6525
 23 25 0 0 0
SMALL
GASTEIGER
Energy = 0

@<TRIPOS>ATOM
      1 C           0.2250    0.8710    0.0000 C.ar    1  LIG1        0.1627
      2 N          -0.2670    1.7000    0.0000 N.ar    1  LIG1       -0.2244
      3 C          -1.7210    0.8710    0.0000 C.ar    1  LIG1        0.0852
      4 C          -1.2330    0.0420    0.0000 C.ar    1  LIG1        0.0275
      5 S          -0.2670    0.0420    0.0000 S.2     1  LIG1       -0.0559
      6 C          -1.7040   -0.8290    0.0000 C.3     1  LIG1        0.0346
      7 C          -2.7380   -0.8210    0.0000 C.3     1  LIG1        0.0053
      8 C          -3.2460   -1.7250    0.0000 C.3     1  LIG1        0.0004
      9 C          -2.6790    0.8710    0.0000 C.ar    1  LIG1        0.0179
     10 C          -3.1710    0.0420    0.0000 C.ar    1  LIG1        0.0015
     11 C          -4.1250    0.0420    0.0000 C.ar    1  LIG1        0.0000
     12 C          -4.6250    0.8710    0.0000 C.ar    1  LIG1        0.0000
     13 C          -4.1250    1.7000    0.0000 C.ar    1  LIG1        0.0000
     14 C          -3.1710    1.7000    0.0000 C.ar    1  LIG1        0.0015
     15 N           1.1790    0.8710    0.0000 N.pl3   1  LIG1       -0.2881
     16 C           1.6880    0.0420    0.0000 C.3     1  LIG1        0.0931
     17 C           2.6420    0.0420    0.0000 C.3     1  LIG1        0.0307
     18 C           3.1330    0.8710    0.0000 C.3     1  LIG1        0.0833
     19 C           4.1170    0.8710    0.0000 C.2     1  LIG1        0.2604
     20 O           4.6210    1.7290    0.0000 O.2     1  LIG1       -0.2717
     21 N           4.5670    0.0420    0.0000 N.am    1  LIG1       -0.0878
     22 C           2.6420    1.7000    0.0000 C.3     1  LIG1        0.0307
     23 C           1.6580    1.7000    0.0000 C.3     1  LIG1        0.0931
@<TRIPOS>BOND
     1     1     2   ar
     2     1     5   ar
     3     1    15    1
     4     2     3   ar
     5     3     4   ar
     6     3     9    1
     7     4     5   ar
     8     4     6    1
     9     6     7    1
    10     7     8    1
    11     9    10   ar
    12     9    14   ar
    13    10    11   ar
    14    11    12   ar
    15    12    13   ar
    16    13    14   ar
    17    15    16    1
    18    15    23    1
    19    16    17    1
    20    17    18    1
    21    18    19    1
    22    18    22    1
    23    19    20    2
    24    19    21   am
    25    22    23    1
