@<TRIPOS>MOLECULE
24939_ChemDiv_0478-0719
 41 45 0 0 0
SMALL
GASTEIGER
Energy = 0

@<TRIPOS>ATOM
      1 N          -2.3960    1.1250    0.0000 N.ar    1  LIG1       -0.2082
      2 C          -1.5460    0.7000    0.0000 C.ar    1  LIG1        0.2297
      3 O          -1.6420   -0.2670    0.0000 O.2     1  LIG1       -0.4346
      4 C          -2.6040   -0.4420    0.0000 C.ar    1  LIG1        0.1648
      5 C          -3.0880    0.4290    0.0000 C.ar    1  LIG1        0.1202
      6 C          -4.1000    0.4460    0.0000 C.ar    1  LIG1        0.0389
      7 C          -4.6130   -0.3830    0.0000 C.ar    1  LIG1        0.0754
      8 N          -5.6380   -0.3460    0.0000 N.am    1  LIG1       -0.1754
      9 C          -6.1380   -1.2540    0.0000 C.2     1  LIG1        0.2690
     10 C          -5.6630   -2.1250    0.0000 C.ar    1  LIG1        0.0554
     11 C          -4.6580   -2.1380    0.0000 C.ar    1  LIG1        0.0048
     12 C          -4.1750   -3.0130    0.0000 C.ar    1  LIG1        0.0066
     13 C          -4.7080   -3.8830    0.0000 C.ar    1  LIG1        0.0757
     14 C          -4.2460   -4.7670    0.0000 C.2     1  LIG1        0.3413
     15 O          -4.7670   -5.6040    0.0000 O.2     1  LIG1       -0.2449
     16 O          -3.2460   -4.7920    0.0000 O.3     1  LIG1       -0.4413
     17 C          -2.7250   -3.9380    0.0000 C.3     1  LIG1        0.2560
     18 C          -5.6960   -3.8670    0.0000 C.ar    1  LIG1        0.0066
     19 C          -6.1750   -2.9750    0.0000 C.ar    1  LIG1        0.0048
     20 O          -7.1420   -1.2380    0.0000 O.2     1  LIG1       -0.2680
     21 C          -4.1710   -1.2540    0.0000 C.ar    1  LIG1        0.0198
     22 C          -3.1630   -1.3040    0.0000 C.ar    1  LIG1        0.0405
     23 C          -0.6880    1.2210    0.0000 C.ar    1  LIG1        0.0537
     24 C          -0.7130    2.2460    0.0000 C.ar    1  LIG1        0.0060
     25 C           0.1250    2.7880    0.0000 C.ar    1  LIG1        0.0168
     26 C           1.0330    2.2710    0.0000 C.ar    1  LIG1        0.0737
     27 N           1.9040    2.7880    0.0000 N.am    1  LIG1       -0.1754
     28 C           2.7540    2.2500    0.0000 C.2     1  LIG1        0.2690
     29 C           3.6380    2.7080    0.0000 C.ar    1  LIG1        0.0554
     30 C           3.6830    3.7170    0.0000 C.ar    1  LIG1        0.0048
     31 C           4.5710    4.1790    0.0000 C.ar    1  LIG1        0.0066
     32 C           5.4210    3.6380    0.0000 C.ar    1  LIG1        0.0757
     33 C           6.3250    4.0580    0.0000 C.2     1  LIG1        0.3413
     34 O           7.1420    3.5080    0.0000 O.2     1  LIG1       -0.2449
     35 O           6.3880    5.0500    0.0000 O.3     1  LIG1       -0.4413
     36 C           5.5500    5.6040    0.0000 C.3     1  LIG1        0.2560
     37 C           5.3830    2.6380    0.0000 C.ar    1  LIG1        0.0066
     38 C           4.4880    2.1670    0.0000 C.ar    1  LIG1        0.0048
     39 O           2.7330    1.2790    0.0000 O.2     1  LIG1       -0.2680
     40 C           1.0330    1.2670    0.0000 C.ar    1  LIG1        0.0168
     41 C           0.2000    0.7750    0.0000 C.ar    1  LIG1        0.0060
@<TRIPOS>BOND
     1     1     2   ar
     2     1     5   ar
     3     2     3   ar
     4     2    23    1
     5     3     4   ar
     6     4     5   ar
     7     4    22   ar
     8     5     6   ar
     9     6     7   ar
    10     7     8    1
    11     7    21   ar
    12     8     9   am
    13     9    10    1
    14     9    20    2
    15    10    11   ar
    16    10    19   ar
    17    11    12   ar
    18    12    13   ar
    19    13    14    1
    20    13    18   ar
    21    14    15    2
    22    14    16    1
    23    16    17    1
    24    18    19   ar
    25    21    22   ar
    26    23    24   ar
    27    23    41   ar
    28    24    25   ar
    29    25    26   ar
    30    26    27    1
    31    26    40   ar
    32    27    28   am
    33    28    29    1
    34    28    39    2
    35    29    30   ar
    36    29    38   ar
    37    30    31   ar
    38    31    32   ar
    39    32    33    1
    40    32    37   ar
    41    33    34    2
    42    33    35    1
    43    35    36    1
    44    37    38   ar
    45    40    41   ar
