@<TRIPOS>MOLECULE
24936_ChemDiv_8012-2508
 20 22 0 0 0
SMALL
GASTEIGER
Energy = 0

@<TRIPOS>ATOM
      1 C           0.9380   -1.2540    0.0000 C.ar    1  LIG1        0.1633
      2 N           0.3880   -0.3920    0.0000 N.ar    1  LIG1       -0.2240
      3 C          -0.5710   -0.6630    0.0000 C.ar    1  LIG1        0.0897
      4 C          -0.6130   -1.6540    0.0000 C.ar    1  LIG1        0.0572
      5 S           0.3170   -1.9880    0.0000 S.2     1  LIG1       -0.0510
      6 C          -1.3080    0.0080    0.0000 C.ar    1  LIG1        0.0183
      7 C          -2.2540   -0.3210    0.0000 C.ar    1  LIG1        0.0024
      8 C          -2.9670    0.3500    0.0000 C.ar    1  LIG1        0.0114
      9 C          -2.7670    1.3170    0.0000 C.ar    1  LIG1        0.0577
     10 C          -1.8290    1.6290    0.0000 C.ar    1  LIG1        0.0114
     11 C          -1.0790    0.9710    0.0000 C.ar    1  LIG1        0.0024
     12 CL         -3.5330    2.0080    0.0000 Cl      1  LIG1       -0.0822
     13 N           1.9330   -1.2540    0.0000 N.pl3   1  LIG1       -0.2849
     14 C           2.4580   -0.3880    0.0000 C.3     1  LIG1        0.1111
     15 C           2.0670    0.5540    0.0000 C.2     1  LIG1        0.0684
     16 O           1.0500    0.6710    0.0000 O.co2   1  LIG1       -0.5475
     17 O           2.6710    1.3630    0.0000 O.co2   1  LIG1       -0.5475
     18 C           3.4460   -0.6170    0.0000 C.3     1  LIG1        0.0273
     19 C           3.5290   -1.5920    0.0000 C.3     1  LIG1        0.0236
     20 C           2.6290   -2.0040    0.0000 C.3     1  LIG1        0.0930
@<TRIPOS>BOND
     1     1     2   ar
     2     1     5   ar
     3     1    13    1
     4     2     3   ar
     5     3     4   ar
     6     3     6    1
     7     4     5   ar
     8     6     7   ar
     9     6    11   ar
    10     7     8   ar
    11     8     9   ar
    12     9    10   ar
    13     9    12    1
    14    10    11   ar
    15    13    14    1
    16    13    20    1
    17    14    15    1
    18    14    18    1
    19    15    16   ar
    20    15    17   ar
    21    18    19    1
    22    19    20    1
