@<TRIPOS>MOLECULE
24944_ChemDiv_8015-0808
 21 23 0 0 0
SMALL
GASTEIGER
Energy = 0

@<TRIPOS>ATOM
      1 C          -0.1790   -0.8170    0.0000 C.ar    1  LIG1        0.1631
      2 N          -0.7670   -0.0080    0.0000 N.ar    1  LIG1       -0.2240
      3 C          -1.7170   -0.3170    0.0000 C.ar    1  LIG1        0.0897
      4 C          -1.7170   -1.3170    0.0000 C.ar    1  LIG1        0.0572
      5 S          -0.7670   -1.6250    0.0000 S.2     1  LIG1       -0.0510
      6 C          -2.5880    0.1830    0.0000 C.ar    1  LIG1        0.0182
      7 C          -3.4500   -0.3170    0.0000 C.ar    1  LIG1        0.0015
      8 C          -4.3210    0.1830    0.0000 C.ar    1  LIG1        0.0000
      9 C          -4.3170    1.1830    0.0000 C.ar    1  LIG1        0.0000
     10 C          -3.4500    1.6830    0.0000 C.ar    1  LIG1        0.0000
     11 C          -2.5880    1.1830    0.0000 C.ar    1  LIG1        0.0015
     12 N           0.8210   -0.8170    0.0000 N.pl3   1  LIG1       -0.2846
     13 C           1.3210    0.0500    0.0000 C.3     1  LIG1        0.1143
     14 C           2.3170    0.0500    0.0000 C.3     1  LIG1        0.1182
     15 N           2.8210   -0.8170    0.0000 N.am    1  LIG1       -0.2425
     16 C           3.8170   -0.8170    0.0000 C.2     1  LIG1        0.4051
     17 O           4.3170   -1.6790    0.0000 O.2     1  LIG1       -0.2262
     18 O           4.3170    0.0500    0.0000 O.3     1  LIG1       -0.4304
     19 C           3.8170    0.9170    0.0000 C.3     1  LIG1        0.2573
     20 C           2.3250   -1.6790    0.0000 C.3     1  LIG1        0.1182
     21 C           1.3210   -1.6790    0.0000 C.3     1  LIG1        0.1143
@<TRIPOS>BOND
     1     1     2   ar
     2     1     5   ar
     3     1    12    1
     4     2     3   ar
     5     3     4   ar
     6     3     6    1
     7     4     5   ar
     8     6     7   ar
     9     6    11   ar
    10     7     8   ar
    11     8     9   ar
    12     9    10   ar
    13    10    11   ar
    14    12    13    1
    15    12    21    1
    16    13    14    1
    17    14    15    1
    18    15    16   am
    19    15    20    1
    20    16    17    2
    21    16    18    1
    22    18    19    1
    23    20    21    1
