@<TRIPOS>MOLECULE
24941_ChemDiv_0808-0015
 25 28 0 0 0
SMALL
GASTEIGER
Energy = 0

@<TRIPOS>ATOM
      1 N           1.2380   -0.0960    0.0000 N.ar    1  LIG1       -0.2082
      2 C           1.8170    0.7330    0.0000 C.ar    1  LIG1        0.2297
      3 O           1.2380    1.5040    0.0000 O.2     1  LIG1       -0.4346
      4 C           0.3040    1.2130    0.0000 C.ar    1  LIG1        0.1648
      5 C           0.3040    0.1960    0.0000 C.ar    1  LIG1        0.1202
      6 C          -0.5670   -0.2960    0.0000 C.ar    1  LIG1        0.0389
      7 C          -1.4420    0.1960    0.0000 C.ar    1  LIG1        0.0754
      8 N          -2.2960   -0.3130    0.0000 N.am    1  LIG1       -0.1754
      9 C          -3.1830    0.1920    0.0000 C.2     1  LIG1        0.2690
     10 O          -3.1630    1.1880    0.0000 O.2     1  LIG1       -0.2680
     11 C          -4.0500   -0.2960    0.0000 C.ar    1  LIG1        0.0554
     12 C          -4.0580   -1.3000    0.0000 C.ar    1  LIG1        0.0046
     13 C          -4.9420   -1.7920    0.0000 C.ar    1  LIG1        0.0001
     14 C          -5.8040   -1.2580    0.0000 C.ar    1  LIG1        0.0000
     15 C          -5.7790   -0.2460    0.0000 C.ar    1  LIG1        0.0001
     16 C          -4.8880    0.2250    0.0000 C.ar    1  LIG1        0.0046
     17 C          -1.4420    1.2130    0.0000 C.ar    1  LIG1        0.0198
     18 C          -0.5670    1.7170    0.0000 C.ar    1  LIG1        0.0405
     19 C           2.8380    0.8080    0.0000 C.ar    1  LIG1        0.0536
     20 C           3.4170   -0.0040    0.0000 C.ar    1  LIG1        0.0055
     21 C           4.4000    0.0790    0.0000 C.ar    1  LIG1        0.0115
     22 C           4.8000    0.9880    0.0000 C.ar    1  LIG1        0.0577
     23 C           4.2290    1.7960    0.0000 C.ar    1  LIG1        0.0115
     24 C           3.2380    1.7170    0.0000 C.ar    1  LIG1        0.0055
     25 CL          5.8000    1.0670    0.0000 Cl      1  LIG1       -0.0822
@<TRIPOS>BOND
     1     1     2   ar
     2     1     5   ar
     3     2     3   ar
     4     2    19    1
     5     3     4   ar
     6     4     5   ar
     7     4    18   ar
     8     5     6   ar
     9     6     7   ar
    10     7     8    1
    11     7    17   ar
    12     8     9   am
    13     9    10    2
    14     9    11    1
    15    11    12   ar
    16    11    16   ar
    17    12    13   ar
    18    13    14   ar
    19    14    15   ar
    20    15    16   ar
    21    17    18   ar
    22    19    20   ar
    23    19    24   ar
    24    20    21   ar
    25    21    22   ar
    26    22    23   ar
    27    22    25    1
    28    23    24   ar
