@<TRIPOS>MOLECULE
24949_ChemDiv_0266-0165
 27 30 0 0 0
SMALL
GASTEIGER
Energy = 0

@<TRIPOS>ATOM
      1 C          -0.8790    0.4830    0.0000 C.ar    1  LIG1        0.2161
      2 N          -0.0290   -0.0130    0.0000 N.am    1  LIG1       -0.1447
      3 C          -0.0290   -1.0000    0.0000 C.2     1  LIG1        0.4151
      4 O           0.8500   -1.4920    0.0000 O.2     1  LIG1       -0.2256
      5 O          -0.9080   -1.5210    0.0000 O.3     1  LIG1       -0.4342
      6 C          -0.9080   -2.5000    0.0000 C.3     1  LIG1        0.2103
      7 C          -1.7540   -3.0000    0.0000 C.3     1  LIG1        0.0513
      8 C           0.8830    0.5080    0.0000 C.3     1  LIG1        0.2551
      9 N           0.8830    1.4670    0.0000 N.4     1  LIG1        0.4009
     10 C          -0.0290    1.9790    0.0000 C.3     1  LIG1        0.1769
     11 C          -0.8790    1.4880    0.0000 C.ar    1  LIG1        0.1231
     12 C          -1.7540    1.9790    0.0000 C.ar    1  LIG1        0.2044
     13 C          -2.6250    1.4670    0.0000 C.ar    1  LIG1        0.0735
     14 C          -2.6250    0.5080    0.0000 C.ar    1  LIG1        0.1499
     15 O          -1.7540   -0.0130    0.0000 O.2     1  LIG1       -0.4392
     16 C          -3.4710    0.0210    0.0000 C.ar    1  LIG1        0.0377
     17 C          -4.3580    0.5080    0.0000 C.ar    1  LIG1        0.0031
     18 C          -4.3580    1.4670    0.0000 C.ar    1  LIG1        0.0003
     19 C          -3.4710    1.9790    0.0000 C.ar    1  LIG1        0.0062
     20 O          -1.7540    3.0040    0.0000 O.2     1  LIG1       -0.2864
     21 C           1.7750    1.9540    0.0000 C.3     1  LIG1        0.1692
     22 C           2.6330    1.4080    0.0000 C.ar    1  LIG1        0.0345
     23 C           3.5000    1.9080    0.0000 C.ar    1  LIG1        0.0014
     24 C           4.3540    1.3500    0.0000 C.ar    1  LIG1       -0.0001
     25 C           4.3000    0.3710    0.0000 C.ar    1  LIG1       -0.0000
     26 C           3.4460   -0.1210    0.0000 C.ar    1  LIG1       -0.0001
     27 C           2.6080    0.4000    0.0000 C.ar    1  LIG1        0.0014
@<TRIPOS>BOND
     1     1     2    1
     2     1    11   ar
     3     1    15   ar
     4     2     3   am
     5     2     8    1
     6     3     4    2
     7     3     5    1
     8     5     6    1
     9     6     7    1
    10     8     9    1
    11     9    10    1
    12     9    21    1
    13    10    11    1
    14    11    12   ar
    15    12    13   ar
    16    12    20    2
    17    13    14   ar
    18    13    19   ar
    19    14    15   ar
    20    14    16   ar
    21    16    17   ar
    22    17    18   ar
    23    18    19   ar
    24    21    22    1
    25    22    23   ar
    26    22    27   ar
    27    23    24   ar
    28    24    25   ar
    29    25    26   ar
    30    26    27   ar
