@<TRIPOS>MOLECULE
24947_ChemDiv_0266-0162
 22 25 0 0 0
SMALL
GASTEIGER
Energy = 0

@<TRIPOS>ATOM
      1 C          -0.8790   -0.0170    0.0000 C.ar    1  LIG1        0.0944
      2 C          -0.8790   -1.0080    0.0000 C.ar    1  LIG1        0.1050
      3 S          -1.7380   -1.5080    0.0000 S.2     1  LIG1       -0.0707
      4 C          -2.5710   -1.0080    0.0000 C.ar    1  LIG1        0.0337
      5 C          -2.5710   -0.0170    0.0000 C.ar    1  LIG1        0.0449
      6 C          -1.7380    0.5080    0.0000 C.ar    1  LIG1        0.1994
      7 O          -1.7380    1.5130    0.0000 O.2     1  LIG1       -0.2866
      8 C          -3.4500    0.5080    0.0000 C.ar    1  LIG1        0.0037
      9 C          -4.3130   -0.0170    0.0000 C.ar    1  LIG1        0.0001
     10 C          -4.3130   -1.0080    0.0000 C.ar    1  LIG1        0.0005
     11 C          -3.4500   -1.5080    0.0000 C.ar    1  LIG1        0.0066
     12 N          -0.0170   -1.5080    0.0000 N.pl3   1  LIG1       -0.1753
     13 C           0.8540   -1.0080    0.0000 C.3     1  LIG1        0.2620
     14 N           0.8540   -0.0170    0.0000 N.4     1  LIG1        0.4016
     15 C          -0.0170    0.5080    0.0000 C.3     1  LIG1        0.1743
     16 C           1.7380    0.5080    0.0000 C.3     1  LIG1        0.1692
     17 C           2.6080   -0.0170    0.0000 C.ar    1  LIG1        0.0345
     18 C           3.4460    0.5080    0.0000 C.ar    1  LIG1        0.0014
     19 C           4.3080   -0.0170    0.0000 C.ar    1  LIG1       -0.0001
     20 C           4.3080   -1.0080    0.0000 C.ar    1  LIG1       -0.0000
     21 C           3.4460   -1.5080    0.0000 C.ar    1  LIG1       -0.0001
     22 C           2.6080   -1.0080    0.0000 C.ar    1  LIG1        0.0014
@<TRIPOS>BOND
     1     1     2   ar
     2     1     6   ar
     3     1    15    1
     4     2     3   ar
     5     2    12    1
     6     3     4   ar
     7     4     5   ar
     8     4    11   ar
     9     5     6   ar
    10     5     8   ar
    11     6     7    2
    12     8     9   ar
    13     9    10   ar
    14    10    11   ar
    15    12    13    1
    16    13    14    1
    17    14    15    1
    18    14    16    1
    19    16    17    1
    20    17    18   ar
    21    17    22   ar
    22    18    19   ar
    23    19    20   ar
    24    20    21   ar
    25    21    22   ar
