@<TRIPOS>MOLECULE
24959_ChemDiv_D058-0267
 28 32 0 0 0
SMALL
GASTEIGER
Energy = 0

@<TRIPOS>ATOM
      1 N           1.7920    0.2080    0.0000 N.ar    1  LIG1       -0.3099
      2 C           1.2170   -0.6130    0.0000 C.ar    1  LIG1        0.1320
      3 N           1.8250   -1.4130    0.0000 N.ar    1  LIG1       -0.2300
      4 C           2.7580   -1.0790    0.0000 C.ar    1  LIG1        0.0984
      5 C           2.7460   -0.0830    0.0000 C.ar    1  LIG1        0.0789
      6 C           3.5960    0.4290    0.0000 C.ar    1  LIG1        0.0188
      7 C           4.4710   -0.0540    0.0000 C.ar    1  LIG1        0.0016
      8 C           4.4880   -1.0500    0.0000 C.ar    1  LIG1        0.0016
      9 C           3.6380   -1.5670    0.0000 C.ar    1  LIG1        0.0206
     10 C           0.2210   -0.6290    0.0000 C.3     1  LIG1        0.1288
     11 S          -0.2580   -1.5040    0.0000 S.3     1  LIG1       -0.0675
     12 C          -1.2630   -1.5290    0.0000 C.ar    1  LIG1        0.1920
     13 N          -1.8960   -0.7000    0.0000 N.ar    1  LIG1       -0.2004
     14 C          -2.7420   -1.0210    0.0000 C.ar    1  LIG1        0.1866
     15 C          -2.7000   -2.1040    0.0000 C.ar    1  LIG1        0.1538
     16 N          -1.8290   -2.3750    0.0000 N.ar    1  LIG1       -0.2151
     17 C          -3.5080   -2.6330    0.0000 C.ar    1  LIG1        0.1919
     18 N          -4.4630   -2.1380    0.0000 N.ar    1  LIG1       -0.2040
     19 C          -4.4920   -1.0790    0.0000 C.ar    1  LIG1        0.2016
     20 N          -3.6290   -0.5460    0.0000 N.ar    1  LIG1       -0.2031
     21 N          -3.4630   -3.5920    0.0000 N.pl3   1  LIG1       -0.1054
     22 C           1.4630    1.1540    0.0000 C.3     1  LIG1        0.1339
     23 C           2.1130    1.9130    0.0000 C.ar    1  LIG1        0.0004
     24 C           3.0960    1.7170    0.0000 C.ar    1  LIG1       -0.0024
     25 C           3.7460    2.4630    0.0000 C.ar    1  LIG1       -0.0003
     26 C           3.4290    3.4080    0.0000 C.ar    1  LIG1       -0.0000
     27 C           2.4420    3.5960    0.0000 C.ar    1  LIG1       -0.0003
     28 C           1.7920    2.8500    0.0000 C.ar    1  LIG1       -0.0024
@<TRIPOS>BOND
     1     1     2   ar
     2     1     5   ar
     3     1    22    1
     4     2     3   ar
     5     2    10    1
     6     3     4   ar
     7     4     5   ar
     8     4     9   ar
     9     5     6   ar
    10     6     7   ar
    11     7     8   ar
    12     8     9   ar
    13    10    11    1
    14    11    12    1
    15    12    13   ar
    16    12    16   ar
    17    13    14   ar
    18    14    15   ar
    19    14    20   ar
    20    15    16   ar
    21    15    17   ar
    22    17    18   ar
    23    17    21    1
    24    18    19   ar
    25    19    20   ar
    26    22    23    1
    27    23    24   ar
    28    23    28   ar
    29    24    25   ar
    30    25    26   ar
    31    26    27   ar
    32    27    28   ar
