@<TRIPOS>MOLECULE
24957_ChemDiv_D058-0266
 22 25 0 0 0
SMALL
GASTEIGER
Energy = 0

@<TRIPOS>ATOM
      1 N          -1.8960    0.5210    0.0000 N.ar    1  LIG1       -0.2004
      2 C          -2.7420    0.2000    0.0000 C.ar    1  LIG1        0.1866
      3 C          -2.6960   -0.8750    0.0000 C.ar    1  LIG1        0.1538
      4 N          -1.8290   -1.1540    0.0000 N.ar    1  LIG1       -0.2151
      5 C          -1.2580   -0.3080    0.0000 C.ar    1  LIG1        0.1920
      6 S          -0.2580   -0.2830    0.0000 S.3     1  LIG1       -0.0675
      7 C           0.2210    0.5920    0.0000 C.3     1  LIG1        0.1288
      8 C           1.2170    0.6080    0.0000 C.ar    1  LIG1        0.1318
      9 N           1.8250   -0.1960    0.0000 N.ar    1  LIG1       -0.2300
     10 C           2.7580    0.1380    0.0000 C.ar    1  LIG1        0.0984
     11 C           2.7420    1.1330    0.0000 C.ar    1  LIG1        0.0787
     12 N           1.7920    1.4250    0.0000 N.ar    1  LIG1       -0.3122
     13 C           1.4630    2.3710    0.0000 C.3     1  LIG1        0.1316
     14 C           3.5920    1.6500    0.0000 C.ar    1  LIG1        0.0188
     15 C           4.4670    1.1670    0.0000 C.ar    1  LIG1        0.0016
     16 C           4.4830    0.1670    0.0000 C.ar    1  LIG1        0.0016
     17 C           3.6330   -0.3460    0.0000 C.ar    1  LIG1        0.0206
     18 C          -3.5040   -1.4040    0.0000 C.ar    1  LIG1        0.1919
     19 N          -4.4580   -0.9210    0.0000 N.ar    1  LIG1       -0.2040
     20 C          -4.4880    0.1380    0.0000 C.ar    1  LIG1        0.2016
     21 N          -3.6250    0.6710    0.0000 N.ar    1  LIG1       -0.2031
     22 N          -3.4580   -2.3670    0.0000 N.pl3   1  LIG1       -0.1054
@<TRIPOS>BOND
     1     1     2   ar
     2     1     5   ar
     3     2     3   ar
     4     2    21   ar
     5     3     4   ar
     6     3    18   ar
     7     4     5   ar
     8     5     6    1
     9     6     7    1
    10     7     8    1
    11     8     9   ar
    12     8    12   ar
    13     9    10   ar
    14    10    11   ar
    15    10    17   ar
    16    11    12   ar
    17    11    14   ar
    18    12    13    1
    19    14    15   ar
    20    15    16   ar
    21    16    17   ar
    22    18    19   ar
    23    18    22    1
    24    19    20   ar
    25    20    21   ar
