@<TRIPOS>MOLECULE
24962_ChemDiv_8015-7490
 21 23 0 0 0
SMALL
GASTEIGER
Energy = 0

@<TRIPOS>ATOM
      1 C           1.0710    0.2080    0.0000 C.ar    1  LIG1        0.1631
      2 N           0.4790    1.0080    0.0000 N.ar    1  LIG1       -0.2240
      3 C          -0.4710    0.7080    0.0000 C.ar    1  LIG1        0.0897
      4 C          -0.4710   -0.3000    0.0000 C.ar    1  LIG1        0.0572
      5 S           0.4790   -0.6040    0.0000 S.2     1  LIG1       -0.0510
      6 C          -1.3330    1.2080    0.0000 C.ar    1  LIG1        0.0183
      7 C          -2.2000    0.7080    0.0000 C.ar    1  LIG1        0.0020
      8 C          -3.0710    1.2080    0.0000 C.ar    1  LIG1        0.0067
      9 C          -3.0710    2.2040    0.0000 C.ar    1  LIG1        0.0346
     10 C          -2.2000    2.7080    0.0000 C.ar    1  LIG1        0.0067
     11 C          -1.3330    2.2040    0.0000 C.ar    1  LIG1        0.0020
     12 BR         -3.9380    2.7080    0.0000 Br      1  LIG1       -0.0490
     13 N           2.0710    0.2080    0.0000 N.pl3   1  LIG1       -0.2862
     14 C           2.5710   -0.6670    0.0000 C.3     1  LIG1        0.1000
     15 C           2.2630   -1.6170    0.0000 C.3     1  LIG1        0.1705
     16 S           3.0710   -2.2040    0.0000 S.O2    1  LIG1       -0.0083
     17 O           2.2080   -2.7040    0.0000 O.2     1  LIG1       -0.1729
     18 O           3.9330   -2.7040    0.0000 O.2     1  LIG1       -0.1729
     19 C           3.8830   -1.6170    0.0000 C.3     1  LIG1        0.1527
     20 C           3.5710   -0.6670    0.0000 C.3     1  LIG1        0.0469
     21 C           2.5710    1.0710    0.0000 C.3     1  LIG1        0.1141
@<TRIPOS>BOND
     1     1     2   ar
     2     1     5   ar
     3     1    13    1
     4     2     3   ar
     5     3     4   ar
     6     3     6    1
     7     4     5   ar
     8     6     7   ar
     9     6    11   ar
    10     7     8   ar
    11     8     9   ar
    12     9    10   ar
    13     9    12    1
    14    10    11   ar
    15    13    14    1
    16    13    21    1
    17    14    15    1
    18    14    20    1
    19    15    16    1
    20    16    17    2
    21    16    18    2
    22    16    19    1
    23    19    20    1
