@<TRIPOS>MOLECULE
24965_ChemDiv_2026-3270
 29 33 0 0 0
SMALL
GASTEIGER
Energy = 0

@<TRIPOS>ATOM
      1 C          -2.3540   -0.2540    0.0000 C.ar    1  LIG1        0.2328
      2 N          -3.2000   -0.8130    0.0000 N.ar    1  LIG1       -0.2082
      3 C          -3.9710   -0.1880    0.0000 C.ar    1  LIG1        0.1189
      4 C          -3.6210    0.7630    0.0000 C.ar    1  LIG1        0.1647
      5 O          -2.6210    0.7000    0.0000 O.2     1  LIG1       -0.4345
      6 C          -4.2670    1.5170    0.0000 C.ar    1  LIG1        0.0391
      7 C          -5.2210    1.3630    0.0000 C.ar    1  LIG1        0.0032
      8 C          -5.5790    0.4290    0.0000 C.ar    1  LIG1        0.0018
      9 C          -4.9500   -0.3630    0.0000 C.ar    1  LIG1        0.0223
     10 C          -1.4170   -0.6040    0.0000 C.ar    1  LIG1        0.0937
     11 C          -1.2500   -1.5880    0.0000 C.ar    1  LIG1        0.2002
     12 C          -0.3080   -1.9330    0.0000 C.ar    1  LIG1        0.0435
     13 C           0.4460   -1.3040    0.0000 C.ar    1  LIG1        0.0199
     14 C           0.2920   -0.3040    0.0000 C.ar    1  LIG1        0.0740
     15 N           1.0460    0.3170    0.0000 N.am    1  LIG1       -0.1754
     16 C           1.9960   -0.0330    0.0000 C.2     1  LIG1        0.2690
     17 C           2.7750    0.6130    0.0000 C.ar    1  LIG1        0.0554
     18 C           3.7040    0.2500    0.0000 C.ar    1  LIG1        0.0044
     19 C           4.4790    0.9000    0.0000 C.ar    1  LIG1        0.0001
     20 C           4.3040    1.8960    0.0000 C.ar    1  LIG1        0.0000
     21 C           3.3750    2.2330    0.0000 C.ar    1  LIG1        0.0001
     22 C           2.5960    1.6130    0.0000 C.ar    1  LIG1        0.0046
     23 C           5.4210    0.5630    0.0000 C.ar    1  LIG1        0.0000
     24 C           5.5750   -0.4290    0.0000 C.ar    1  LIG1        0.0000
     25 C           4.8210   -1.0790    0.0000 C.ar    1  LIG1        0.0000
     26 C           3.8790   -0.7210    0.0000 C.ar    1  LIG1        0.0001
     27 O           2.1750   -1.0130    0.0000 O.2     1  LIG1       -0.2680
     28 C          -0.6420    0.0380    0.0000 C.ar    1  LIG1        0.0245
     29 O          -2.0210   -2.2290    0.0000 O.3     1  LIG1       -0.2864
@<TRIPOS>BOND
     1     1     2   ar
     2     1     5   ar
     3     1    10    1
     4     2     3   ar
     5     3     4   ar
     6     3     9   ar
     7     4     5   ar
     8     4     6   ar
     9     6     7   ar
    10     7     8   ar
    11     8     9   ar
    12    10    11   ar
    13    10    28   ar
    14    11    12   ar
    15    11    29    1
    16    12    13   ar
    17    13    14   ar
    18    14    15    1
    19    14    28   ar
    20    15    16   am
    21    16    17    1
    22    16    27    2
    23    17    18   ar
    24    17    22   ar
    25    18    19   ar
    26    18    26   ar
    27    19    20   ar
    28    19    23   ar
    29    20    21   ar
    30    21    22   ar
    31    23    24   ar
    32    24    25   ar
    33    25    26   ar
