@<TRIPOS>MOLECULE
24969_ChemDiv_2343-1614
 26 29 0 0 0
SMALL
GASTEIGER
Energy = 0

@<TRIPOS>ATOM
      1 N          -2.7580    1.1670    0.0000 N.ar    1  LIG1       -0.2082
      2 C          -2.1460    0.3670    0.0000 C.ar    1  LIG1        0.2297
      3 O          -2.7420   -0.4290    0.0000 O.2     1  LIG1       -0.4346
      4 C          -3.7130   -0.0790    0.0000 C.ar    1  LIG1        0.1648
      5 C          -3.7290    0.8500    0.0000 C.ar    1  LIG1        0.1202
      6 C          -4.5790    1.3670    0.0000 C.ar    1  LIG1        0.0404
      7 C          -5.4880    0.8500    0.0000 C.ar    1  LIG1        0.0908
      8 N          -6.3960    1.2500    0.0000 N.pl3   1  LIG1       -0.1280
      9 C          -5.4710   -0.0790    0.0000 C.ar    1  LIG1        0.0213
     10 C          -4.5710   -0.5920    0.0000 C.ar    1  LIG1        0.0405
     11 C          -1.1460    0.3670    0.0000 C.ar    1  LIG1        0.0537
     12 C          -0.6130   -0.4630    0.0000 C.ar    1  LIG1        0.0060
     13 C           0.3670   -0.4630    0.0000 C.ar    1  LIG1        0.0168
     14 C           0.8750    0.3830    0.0000 C.ar    1  LIG1        0.0737
     15 N           1.8790    0.3830    0.0000 N.am    1  LIG1       -0.1754
     16 C           2.3630   -0.4960    0.0000 C.2     1  LIG1        0.2690
     17 C           3.3750   -0.4960    0.0000 C.ar    1  LIG1        0.0555
     18 C           3.8750   -1.3630    0.0000 C.ar    1  LIG1        0.0060
     19 C           4.9040   -1.3290    0.0000 C.ar    1  LIG1        0.0182
     20 C           5.4000   -0.4630    0.0000 C.ar    1  LIG1        0.0891
     21 N           6.3960   -0.4630    0.0000 N.pl3   1  LIG1       -0.1281
     22 C           4.8750    0.3830    0.0000 C.ar    1  LIG1        0.0182
     23 C           3.8750    0.3830    0.0000 C.ar    1  LIG1        0.0060
     24 O           1.8790   -1.3630    0.0000 O.2     1  LIG1       -0.2680
     25 C           0.3500    1.2500    0.0000 C.ar    1  LIG1        0.0168
     26 C          -0.6290    1.2500    0.0000 C.ar    1  LIG1        0.0060
@<TRIPOS>BOND
     1     1     2   ar
     2     1     5   ar
     3     2     3   ar
     4     2    11    1
     5     3     4   ar
     6     4     5   ar
     7     4    10   ar
     8     5     6   ar
     9     6     7   ar
    10     7     8    1
    11     7     9   ar
    12     9    10   ar
    13    11    12   ar
    14    11    26   ar
    15    12    13   ar
    16    13    14   ar
    17    14    15    1
    18    14    25   ar
    19    15    16   am
    20    16    17    1
    21    16    24    2
    22    17    18   ar
    23    17    23   ar
    24    18    19   ar
    25    19    20   ar
    26    20    21    1
    27    20    22   ar
    28    22    23   ar
    29    25    26   ar
