@<TRIPOS>MOLECULE
24961_ChemDiv_1602-1352
 26 29 0 0 0
SMALL
GASTEIGER
Energy = 0

@<TRIPOS>ATOM
      1 C          -1.3750   -1.7000    0.0000 C.ar    1  LIG1        0.2328
      2 N          -2.0330   -0.8920    0.0000 N.ar    1  LIG1       -0.2082
      3 C          -2.9710   -1.2130    0.0000 C.ar    1  LIG1        0.1189
      4 C          -2.9710   -2.2290    0.0000 C.ar    1  LIG1        0.1647
      5 O          -1.9830   -2.5540    0.0000 O.2     1  LIG1       -0.4345
      6 C          -3.8000   -2.7040    0.0000 C.ar    1  LIG1        0.0391
      7 C          -4.6710   -2.2000    0.0000 C.ar    1  LIG1        0.0032
      8 C          -4.6710   -1.2130    0.0000 C.ar    1  LIG1        0.0018
      9 C          -3.8000   -0.7380    0.0000 C.ar    1  LIG1        0.0223
     10 C          -0.3830   -1.7000    0.0000 C.ar    1  LIG1        0.0937
     11 C           0.1420   -2.5580    0.0000 C.ar    1  LIG1        0.2002
     12 C           1.1540   -2.5790    0.0000 C.ar    1  LIG1        0.0435
     13 C           1.6420   -1.7000    0.0000 C.ar    1  LIG1        0.0199
     14 C           1.1290   -0.8330    0.0000 C.ar    1  LIG1        0.0740
     15 N           1.6130    0.0290    0.0000 N.am    1  LIG1       -0.1754
     16 C           2.6290    0.0290    0.0000 C.2     1  LIG1        0.2690
     17 C           3.1290    0.8630    0.0000 C.ar    1  LIG1        0.0555
     18 C           4.1170    0.8540    0.0000 C.ar    1  LIG1        0.0060
     19 C           4.6500    1.6920    0.0000 C.ar    1  LIG1        0.0182
     20 C           4.1670    2.5630    0.0000 C.ar    1  LIG1        0.0891
     21 N           4.6670    3.4170    0.0000 N.pl3   1  LIG1       -0.1281
     22 C           3.1630    2.6040    0.0000 C.ar    1  LIG1        0.0182
     23 C           2.6500    1.7290    0.0000 C.ar    1  LIG1        0.0060
     24 O           3.1500   -0.8080    0.0000 O.2     1  LIG1       -0.2680
     25 C           0.1250   -0.8330    0.0000 C.ar    1  LIG1        0.0245
     26 O          -0.3630   -3.4130    0.0000 O.3     1  LIG1       -0.2864
@<TRIPOS>BOND
     1     1     2   ar
     2     1     5   ar
     3     1    10    1
     4     2     3   ar
     5     3     4   ar
     6     3     9   ar
     7     4     5   ar
     8     4     6   ar
     9     6     7   ar
    10     7     8   ar
    11     8     9   ar
    12    10    11   ar
    13    10    25   ar
    14    11    12   ar
    15    11    26    1
    16    12    13   ar
    17    13    14   ar
    18    14    15    1
    19    14    25   ar
    20    15    16   am
    21    16    17    1
    22    16    24    2
    23    17    18   ar
    24    17    23   ar
    25    18    19   ar
    26    19    20   ar
    27    20    21    1
    28    20    22   ar
    29    22    23   ar
