@<TRIPOS>MOLECULE
24966_ChemDiv_C301-6729
 24 26 0 0 0
SMALL
GASTEIGER
Energy = 0

@<TRIPOS>ATOM
      1 C           0.7880   -1.2710    0.0000 C.ar    1  LIG1        0.1688
      2 N          -0.1630   -0.9670    0.0000 N.ar    1  LIG1       -0.2237
      3 C          -0.7420   -1.7750    0.0000 C.ar    1  LIG1        0.0897
      4 C          -0.1630   -2.5880    0.0000 C.ar    1  LIG1        0.0572
      5 S           0.7880   -2.2750    0.0000 S.2     1  LIG1       -0.0506
      6 C          -1.7460   -1.7750    0.0000 C.ar    1  LIG1        0.0182
      7 C          -2.2540   -0.9040    0.0000 C.ar    1  LIG1        0.0012
      8 C          -3.2500   -0.9040    0.0000 C.ar    1  LIG1       -0.0042
      9 C          -3.7500   -1.7750    0.0000 C.ar    1  LIG1       -0.0218
     10 C          -3.2500   -2.6330    0.0000 C.ar    1  LIG1       -0.0042
     11 C          -2.2540   -2.6330    0.0000 C.ar    1  LIG1        0.0012
     12 C          -4.7500   -1.7750    0.0000 C.3     1  LIG1        0.0310
     13 N           1.6000   -0.6830    0.0000 N.am    1  LIG1       -0.2387
     14 C           1.5040    0.3130    0.0000 C.2     1  LIG1        0.2303
     15 C           2.3130    0.8920    0.0000 C.3     1  LIG1        0.0771
     16 C           3.2210    0.4880    0.0000 C.3     1  LIG1        0.0091
     17 C           4.0330    1.0630    0.0000 C.3     1  LIG1        0.0005
     18 C           3.9330    2.0630    0.0000 C.3     1  LIG1        0.0000
     19 C           3.0210    2.4670    0.0000 C.3     1  LIG1        0.0005
     20 C           2.2080    1.8790    0.0000 C.3     1  LIG1        0.0091
     21 C           4.7460    2.6380    0.0000 C.3     1  LIG1        0.0000
     22 O           0.5880    0.7210    0.0000 O.2     1  LIG1       -0.2745
     23 C           2.5210   -1.0920    0.0000 C.3     1  LIG1        0.1002
     24 C           2.6290   -2.0880    0.0000 C.3     1  LIG1        0.0237
@<TRIPOS>BOND
     1     1     2   ar
     2     1     5   ar
     3     1    13    1
     4     2     3   ar
     5     3     4   ar
     6     3     6    1
     7     4     5   ar
     8     6     7   ar
     9     6    11   ar
    10     7     8   ar
    11     8     9   ar
    12     9    10   ar
    13     9    12    1
    14    10    11   ar
    15    13    14   am
    16    13    23    1
    17    14    15    1
    18    14    22    2
    19    15    16    1
    20    15    20    1
    21    16    17    1
    22    17    18    1
    23    18    19    1
    24    18    21    1
    25    19    20    1
    26    23    24    1
