@<TRIPOS>MOLECULE
24979_ChemDiv_0614-1251
 22 24 0 0 0
SMALL
GASTEIGER
Energy = 0

@<TRIPOS>ATOM
      1 N          -1.9380   -0.4830    0.0000 N.ar    1  LIG1       -0.2004
      2 C          -2.9130   -0.2040    0.0000 C.ar    1  LIG1        0.1866
      3 C          -2.9130    0.8040    0.0000 C.ar    1  LIG1        0.1538
      4 N          -1.9380    1.1170    0.0000 N.ar    1  LIG1       -0.2151
      5 C          -1.3830    0.2960    0.0000 C.ar    1  LIG1        0.1917
      6 S          -0.3750    0.2960    0.0000 S.3     1  LIG1       -0.0717
      7 C           0.1250   -0.5500    0.0000 C.3     1  LIG1        0.1124
      8 C           1.1250   -0.5500    0.0000 C.3     1  LIG1        0.2176
      9 O           1.6250   -1.4210    0.0000 O.3     1  LIG1       -0.4714
     10 C           2.6170   -1.4210    0.0000 C.ar    1  LIG1        0.1722
     11 C           3.1080   -0.5500    0.0000 C.ar    1  LIG1        0.1724
     12 O           2.6000    0.3080    0.0000 O.3     1  LIG1       -0.4684
     13 C           3.1080    1.2000    0.0000 C.3     1  LIG1        0.2526
     14 C           4.1130   -0.5500    0.0000 C.ar    1  LIG1        0.0400
     15 C           4.6250   -1.4080    0.0000 C.ar    1  LIG1        0.0033
     16 C           4.1380   -2.2670    0.0000 C.ar    1  LIG1        0.0033
     17 C           3.1290   -2.2960    0.0000 C.ar    1  LIG1        0.0400
     18 C          -3.7630    1.3000    0.0000 C.ar    1  LIG1        0.1919
     19 N          -4.6290    0.8040    0.0000 N.ar    1  LIG1       -0.2040
     20 C          -4.6290   -0.2040    0.0000 C.ar    1  LIG1        0.2016
     21 N          -3.7630   -0.7130    0.0000 N.ar    1  LIG1       -0.2031
     22 N          -3.7630    2.3000    0.0000 N.pl3   1  LIG1       -0.1054
@<TRIPOS>BOND
     1     1     2   ar
     2     1     5   ar
     3     2     3   ar
     4     2    21   ar
     5     3     4   ar
     6     3    18   ar
     7     4     5   ar
     8     5     6    1
     9     6     7    1
    10     7     8    1
    11     8     9    1
    12     9    10    1
    13    10    11   ar
    14    10    17   ar
    15    11    12    1
    16    11    14   ar
    17    12    13    1
    18    14    15   ar
    19    15    16   ar
    20    16    17   ar
    21    18    19   ar
    22    18    22    1
    23    19    20   ar
    24    20    21   ar
