@<TRIPOS>MOLECULE
24971_ChemDiv_2810-2090
 34 37 0 0 0
SMALL
GASTEIGER
Energy = 0

@<TRIPOS>ATOM
      1 C          -2.6130    0.4330    0.0000 C.ar    1  LIG1        0.2328
      2 N          -3.1460   -0.3790    0.0000 N.ar    1  LIG1       -0.2082
      3 C          -4.1500   -0.0790    0.0000 C.ar    1  LIG1        0.1189
      4 C          -4.1500    0.9250    0.0000 C.ar    1  LIG1        0.1647
      5 O          -3.1960    1.2330    0.0000 O.2     1  LIG1       -0.4345
      6 C          -5.0170    1.4330    0.0000 C.ar    1  LIG1        0.0391
      7 C          -5.8750    0.9250    0.0000 C.ar    1  LIG1        0.0032
      8 C          -5.8750   -0.0790    0.0000 C.ar    1  LIG1        0.0018
      9 C          -5.0170   -0.5790    0.0000 C.ar    1  LIG1        0.0223
     10 C          -1.6130    0.4330    0.0000 C.ar    1  LIG1        0.0937
     11 C          -1.1170   -0.4290    0.0000 C.ar    1  LIG1        0.2002
     12 C          -0.1040   -0.4290    0.0000 C.ar    1  LIG1        0.0435
     13 C           0.3830    0.4330    0.0000 C.ar    1  LIG1        0.0199
     14 C          -0.1040    1.3000    0.0000 C.ar    1  LIG1        0.0740
     15 N           0.3830    2.1670    0.0000 N.am    1  LIG1       -0.1754
     16 C           1.3830    2.1670    0.0000 C.2     1  LIG1        0.2692
     17 C           1.8830    1.3000    0.0000 C.ar    1  LIG1        0.0616
     18 C           1.3830    0.4330    0.0000 C.ar    1  LIG1        0.0448
     19 C           1.8830   -0.4290    0.0000 C.ar    1  LIG1        0.1754
     20 C           2.8920   -0.4290    0.0000 C.ar    1  LIG1        0.2059
     21 C           3.3790    0.4330    0.0000 C.ar    1  LIG1        0.1754
     22 C           2.8920    1.3000    0.0000 C.ar    1  LIG1        0.0448
     23 O           4.3790    0.4330    0.0000 O.3     1  LIG1       -0.4723
     24 C           4.8750   -0.4290    0.0000 C.3     1  LIG1        0.2057
     25 C           5.8710   -0.4290    0.0000 C.3     1  LIG1        0.0512
     26 O           3.3790   -1.2960    0.0000 O.3     1  LIG1       -0.4695
     27 C           2.8920   -2.1630    0.0000 C.3     1  LIG1        0.2058
     28 C           3.3790   -3.0290    0.0000 C.3     1  LIG1        0.0512
     29 O           1.3830   -1.2960    0.0000 O.3     1  LIG1       -0.4723
     30 C           0.3830   -1.2960    0.0000 C.3     1  LIG1        0.2057
     31 C          -0.1040   -2.1630    0.0000 C.3     1  LIG1        0.0512
     32 O           1.8830    3.0330    0.0000 O.2     1  LIG1       -0.2680
     33 C          -1.1170    1.3000    0.0000 C.ar    1  LIG1        0.0245
     34 O          -1.6130   -1.2960    0.0000 O.3     1  LIG1       -0.2864
@<TRIPOS>BOND
     1     1     2   ar
     2     1     5   ar
     3     1    10    1
     4     2     3   ar
     5     3     4   ar
     6     3     9   ar
     7     4     5   ar
     8     4     6   ar
     9     6     7   ar
    10     7     8   ar
    11     8     9   ar
    12    10    11   ar
    13    10    33   ar
    14    11    12   ar
    15    11    34    1
    16    12    13   ar
    17    13    14   ar
    18    14    15    1
    19    14    33   ar
    20    15    16   am
    21    16    17    1
    22    16    32    2
    23    17    18   ar
    24    17    22   ar
    25    18    19   ar
    26    19    20   ar
    27    19    29    1
    28    20    21   ar
    29    20    26    1
    30    21    22   ar
    31    21    23    1
    32    23    24    1
    33    24    25    1
    34    26    27    1
    35    27    28    1
    36    29    30    1
    37    30    31    1
