@<TRIPOS>MOLECULE
24977_ChemDiv_0268-0033
 15 16 0 0 0
SMALL
GASTEIGER
Energy = 0

@<TRIPOS>ATOM
      1 N           0.3580   -0.3580    0.0000 N.ar    1  LIG1       -0.2916
      2 C          -0.5920   -0.0420    0.0000 C.ar    1  LIG1        0.1675
      3 C          -0.5920    0.9500    0.0000 C.ar    1  LIG1        0.1517
      4 N           0.3580    1.2670    0.0000 N.ar    1  LIG1       -0.2193
      5 C           0.9290    0.4710    0.0000 C.ar    1  LIG1        0.1798
      6 C          -1.4580    1.4580    0.0000 C.ar    1  LIG1        0.1919
      7 N          -2.3290    0.9500    0.0000 N.ar    1  LIG1       -0.2040
      8 C          -2.3290   -0.0420    0.0000 C.ar    1  LIG1        0.2016
      9 N          -1.4580   -0.5500    0.0000 N.ar    1  LIG1       -0.2048
     10 N          -1.4580    2.4580    0.0000 N.pl3   1  LIG1       -0.1054
     11 C           0.6790   -1.3290    0.0000 C.3     1  LIG1        0.1445
     12 C           1.6670   -1.5210    0.0000 C.3     1  LIG1        0.2072
     13 O           1.9880   -2.4540    0.0000 O.3     1  LIG1       -0.2182
     14 C           2.3250   -0.7580    0.0000 C.3     1  LIG1        0.2168
     15 O           2.0080    0.1710    0.0000 O.3     1  LIG1       -0.2175
@<TRIPOS>BOND
     1     1     2   ar
     2     1     5   ar
     3     1    11    1
     4     2     3   ar
     5     2     9   ar
     6     3     4   ar
     7     3     6   ar
     8     4     5   ar
     9     6     7   ar
    10     6    10    1
    11     7     8   ar
    12     8     9   ar
    13    11    12    1
    14    12    13    1
    15    12    14    1
    16    14    15    1
