@<TRIPOS>MOLECULE
24972_ChemDiv_C301-6929
 26 28 0 0 0
SMALL
GASTEIGER
Energy = 0

@<TRIPOS>ATOM
      1 C           0.2790   -0.5830    0.0000 C.ar    1  LIG1        0.1700
      2 N          -0.6710   -0.2750    0.0000 N.ar    1  LIG1       -0.2237
      3 C          -1.2460   -1.0830    0.0000 C.ar    1  LIG1        0.0897
      4 C          -0.6710   -1.8920    0.0000 C.ar    1  LIG1        0.0572
      5 S           0.2790   -1.5920    0.0000 S.2     1  LIG1       -0.0506
      6 C          -2.2460   -1.0830    0.0000 C.ar    1  LIG1        0.0182
      7 C          -2.7540   -1.9500    0.0000 C.ar    1  LIG1        0.0012
      8 C          -3.7540   -1.9500    0.0000 C.ar    1  LIG1       -0.0042
      9 C          -4.2500   -1.0830    0.0000 C.ar    1  LIG1       -0.0218
     10 C          -3.7540   -0.2210    0.0000 C.ar    1  LIG1       -0.0042
     11 C          -2.7540   -0.2210    0.0000 C.ar    1  LIG1        0.0012
     12 C          -5.2460   -1.0830    0.0000 C.3     1  LIG1        0.0310
     13 N           1.1000    0.0080    0.0000 N.am    1  LIG1       -0.2214
     14 C           0.9960    1.0040    0.0000 C.2     1  LIG1        0.3327
     15 N           1.8080    1.5790    0.0000 N.am    1  LIG1       -0.1619
     16 C           2.7210    1.1750    0.0000 C.ar    1  LIG1        0.0743
     17 C           2.8210    0.1790    0.0000 C.ar    1  LIG1        0.0124
     18 C           3.7380   -0.2250    0.0000 C.ar    1  LIG1       -0.0209
     19 C           4.5460    0.3670    0.0000 C.ar    1  LIG1       -0.0084
     20 C           4.4380    1.3630    0.0000 C.ar    1  LIG1       -0.0209
     21 C           3.5210    1.7670    0.0000 C.ar    1  LIG1        0.0124
     22 C           5.2420    1.9540    0.0000 C.3     1  LIG1        0.0311
     23 C           3.8420   -1.2170    0.0000 C.3     1  LIG1        0.0311
     24 O           0.0790    1.4080    0.0000 O.2     1  LIG1       -0.2500
     25 C           2.0080   -0.4080    0.0000 C.3     1  LIG1        0.1018
     26 C           2.1170   -1.4040    0.0000 C.3     1  LIG1        0.0238
@<TRIPOS>BOND
     1     1     2   ar
     2     1     5   ar
     3     1    13    1
     4     2     3   ar
     5     3     4   ar
     6     3     6    1
     7     4     5   ar
     8     6     7   ar
     9     6    11   ar
    10     7     8   ar
    11     8     9   ar
    12     9    10   ar
    13     9    12    1
    14    10    11   ar
    15    13    14   am
    16    13    25    1
    17    14    15   am
    18    14    24    2
    19    15    16    1
    20    16    17   ar
    21    16    21   ar
    22    17    18   ar
    23    18    19   ar
    24    18    23    1
    25    19    20   ar
    26    20    21   ar
    27    20    22    1
    28    25    26    1
