@<TRIPOS>MOLECULE
24973_ChemDiv_3031-0426
 30 34 0 0 0
SMALL
GASTEIGER
Energy = 0

@<TRIPOS>ATOM
      1 C           1.9580    0.9920    0.0000 C.ar    1  LIG1        0.2328
      2 N           2.7630    1.9080    0.0000 N.ar    1  LIG1       -0.2082
      3 C           3.6170    1.4130    0.0000 C.ar    1  LIG1        0.1185
      4 C           3.6170    0.4460    0.0000 C.ar    1  LIG1        0.1647
      5 O           2.7460   -0.0500    0.0000 O.2     1  LIG1       -0.4345
      6 C           4.4580   -0.0500    0.0000 C.ar    1  LIG1        0.0388
      7 C           5.3250    0.4330    0.0000 C.ar    1  LIG1       -0.0010
      8 C           5.3290    1.4080    0.0000 C.ar    1  LIG1       -0.0202
      9 C           4.4670    1.9080    0.0000 C.ar    1  LIG1        0.0181
     10 C           6.1710    1.8960    0.0000 C.3     1  LIG1        0.0311
     11 C           1.0210    0.9920    0.0000 C.ar    1  LIG1        0.0937
     12 C           0.5380    1.8130    0.0000 C.ar    1  LIG1        0.2002
     13 C          -0.3830    1.8130    0.0000 C.ar    1  LIG1        0.0435
     14 C          -0.8580    0.9920    0.0000 C.ar    1  LIG1        0.0199
     15 C          -0.3830    0.1750    0.0000 C.ar    1  LIG1        0.0740
     16 N          -0.8580   -0.6330    0.0000 N.am    1  LIG1       -0.1754
     17 C          -1.8380   -0.6330    0.0000 C.2     1  LIG1        0.2691
     18 C          -2.7040   -1.1290    0.0000 C.ar    1  LIG1        0.0586
     19 C          -3.5460   -0.6500    0.0000 C.ar    1  LIG1        0.0446
     20 C          -4.3710   -1.1290    0.0000 C.ar    1  LIG1        0.1725
     21 C          -4.3710   -2.1170    0.0000 C.ar    1  LIG1        0.1724
     22 O          -5.2290   -2.6130    0.0000 O.3     1  LIG1       -0.4684
     23 C          -6.1710   -2.3290    0.0000 C.3     1  LIG1        0.2526
     24 C          -6.1710   -0.8880    0.0000 C.3     1  LIG1        0.2526
     25 O          -5.2290   -0.6500    0.0000 O.3     1  LIG1       -0.4684
     26 C          -3.5460   -2.6130    0.0000 C.ar    1  LIG1        0.0402
     27 C          -2.7040   -2.1170    0.0000 C.ar    1  LIG1        0.0079
     28 O          -1.8500    0.3580    0.0000 O.2     1  LIG1       -0.2680
     29 C           0.5630    0.1920    0.0000 C.ar    1  LIG1        0.0245
     30 O           1.0210    2.6170    0.0000 O.3     1  LIG1       -0.2864
@<TRIPOS>BOND
     1     1     2   ar
     2     1     5   ar
     3     1    11    1
     4     2     3   ar
     5     3     4   ar
     6     3     9   ar
     7     4     5   ar
     8     4     6   ar
     9     6     7   ar
    10     7     8   ar
    11     8     9   ar
    12     8    10    1
    13    11    12   ar
    14    11    29   ar
    15    12    13   ar
    16    12    30    1
    17    13    14   ar
    18    14    15   ar
    19    15    16    1
    20    15    29   ar
    21    16    17   am
    22    17    18    1
    23    17    28    2
    24    18    19   ar
    25    18    27   ar
    26    19    20   ar
    27    20    21   ar
    28    20    25    1
    29    21    22    1
    30    21    26   ar
    31    22    23    1
    32    23    24    1
    33    24    25    1
    34    26    27   ar
