@<TRIPOS>MOLECULE
24975_ChemDiv_3729-2929
 28 32 0 0 0
SMALL
GASTEIGER
Energy = 0

@<TRIPOS>ATOM
      1 C           2.8540    0.2630    0.0000 C.ar    1  LIG1        0.1963
      2 O           3.8540    0.3880    0.0000 O.2     1  LIG1       -0.4492
      3 C           4.0540    1.3420    0.0000 C.ar    1  LIG1        0.1452
      4 C           3.1880    1.8380    0.0000 C.ar    1  LIG1        0.0337
      5 C           2.4540    1.1710    0.0000 C.ar    1  LIG1        0.0203
      6 C           1.4670    1.3880    0.0000 C.3     1  LIG1        0.0345
      7 C           3.1880    2.8380    0.0000 C.ar    1  LIG1        0.0028
      8 C           4.0540    3.3420    0.0000 C.ar    1  LIG1        0.0002
      9 C           4.9210    2.8380    0.0000 C.ar    1  LIG1        0.0031
     10 C           4.9210    1.8380    0.0000 C.ar    1  LIG1        0.0375
     11 C           2.3420   -0.6040    0.0000 C.2     1  LIG1        0.3034
     12 N           1.3420   -0.6040    0.0000 N.am    1  LIG1       -0.1728
     13 C           0.8540   -1.4710    0.0000 C.ar    1  LIG1        0.0739
     14 C          -0.1460   -1.4710    0.0000 C.ar    1  LIG1        0.0213
     15 C          -0.6580   -2.3380    0.0000 C.ar    1  LIG1        0.0549
     16 C          -1.6580   -2.3380    0.0000 C.ar    1  LIG1        0.2297
     17 N          -2.2580   -3.1380    0.0000 N.ar    1  LIG1       -0.2083
     18 C          -3.2040   -2.8460    0.0000 C.ar    1  LIG1        0.1189
     19 C          -3.2040   -1.8330    0.0000 C.ar    1  LIG1        0.1647
     20 O          -2.2580   -1.5250    0.0000 O.2     1  LIG1       -0.4346
     21 C          -4.0580   -1.3250    0.0000 C.ar    1  LIG1        0.0391
     22 C          -4.9250   -1.8330    0.0000 C.ar    1  LIG1        0.0032
     23 C          -4.9250   -2.8460    0.0000 C.ar    1  LIG1        0.0018
     24 C          -4.0580   -3.3380    0.0000 C.ar    1  LIG1        0.0223
     25 C          -0.1460   -3.2040    0.0000 C.ar    1  LIG1        0.0047
     26 C           0.8540   -3.2040    0.0000 C.ar    1  LIG1        0.0015
     27 C           1.3420   -2.3380    0.0000 C.ar    1  LIG1        0.0166
     28 O           2.8540   -1.4710    0.0000 O.2     1  LIG1       -0.2647
@<TRIPOS>BOND
     1     1     2   ar
     2     1     5   ar
     3     1    11    1
     4     2     3   ar
     5     3     4   ar
     6     3    10   ar
     7     4     5   ar
     8     4     7   ar
     9     5     6    1
    10     7     8   ar
    11     8     9   ar
    12     9    10   ar
    13    11    12   am
    14    11    28    2
    15    12    13    1
    16    13    14   ar
    17    13    27   ar
    18    14    15   ar
    19    15    16    1
    20    15    25   ar
    21    16    17   ar
    22    16    20   ar
    23    17    18   ar
    24    18    19   ar
    25    18    24   ar
    26    19    20   ar
    27    19    21   ar
    28    21    22   ar
    29    22    23   ar
    30    23    24   ar
    31    25    26   ar
    32    26    27   ar
