@<TRIPOS>MOLECULE
24983_ChemDiv_3219-0002
 21 23 0 0 0
SMALL
GASTEIGER
Energy = 0

@<TRIPOS>ATOM
      1 N          -2.4420   -0.5130    0.0000 N.ar    1  LIG1       -0.2004
      2 C          -3.3790   -0.2210    0.0000 C.ar    1  LIG1        0.1866
      3 C          -3.3790    0.7830    0.0000 C.ar    1  LIG1        0.1538
      4 N          -2.4420    1.1080    0.0000 N.ar    1  LIG1       -0.2151
      5 C          -1.8750    0.2830    0.0000 C.ar    1  LIG1        0.1917
      6 S          -0.8750    0.2830    0.0000 S.3     1  LIG1       -0.0717
      7 C          -0.3750   -0.5710    0.0000 C.3     1  LIG1        0.1124
      8 C           0.6290   -0.5460    0.0000 C.3     1  LIG1        0.2174
      9 O           1.1290   -1.4000    0.0000 O.3     1  LIG1       -0.4745
     10 C           2.1290   -1.4000    0.0000 C.ar    1  LIG1        0.1386
     11 C           2.6290   -0.5460    0.0000 C.ar    1  LIG1        0.0378
     12 C           3.6330   -0.5460    0.0000 C.ar    1  LIG1        0.0145
     13 C           4.1380   -1.4000    0.0000 C.ar    1  LIG1        0.0579
     14 CL          5.1290   -1.3790    0.0000 Cl      1  LIG1       -0.0822
     15 C           3.6330   -2.2830    0.0000 C.ar    1  LIG1        0.0145
     16 C           2.6290   -2.2830    0.0000 C.ar    1  LIG1        0.0378
     17 C          -4.2330    1.2920    0.0000 C.ar    1  LIG1        0.1919
     18 N          -5.1330    0.7830    0.0000 N.ar    1  LIG1       -0.2040
     19 C          -5.1330   -0.2210    0.0000 C.ar    1  LIG1        0.2016
     20 N          -4.2330   -0.7170    0.0000 N.ar    1  LIG1       -0.2031
     21 N          -4.2330    2.2880    0.0000 N.pl3   1  LIG1       -0.1054
@<TRIPOS>BOND
     1     1     2   ar
     2     1     5   ar
     3     2     3   ar
     4     2    20   ar
     5     3     4   ar
     6     3    17   ar
     7     4     5   ar
     8     5     6    1
     9     6     7    1
    10     7     8    1
    11     8     9    1
    12     9    10    1
    13    10    11   ar
    14    10    16   ar
    15    11    12   ar
    16    12    13   ar
    17    13    14    1
    18    13    15   ar
    19    15    16   ar
    20    17    18   ar
    21    17    21    1
    22    18    19   ar
    23    19    20   ar
