@<TRIPOS>MOLECULE
24986_ChemDiv_0343-0020
 25 26 0 0 0
SMALL
GASTEIGER
Energy = 0

@<TRIPOS>ATOM
      1 C           2.5920   -0.7420    0.0000 C.3     1  LIG1        0.1250
      2 C           3.4380   -1.2460    0.0000 C.2     1  LIG1       -0.0155
      3 C           4.3040   -0.7420    0.0000 C.3     1  LIG1       -0.3379
      4 C           4.3040    0.2750    0.0000 C.2     1  LIG1       -0.0257
      5 C           3.4380    0.7750    0.0000 C.3     1  LIG1        0.0309
      6 C           2.5710    0.2750    0.0000 C.3     1  LIG1        0.0413
      7 C           1.7040    0.7750    0.0000 C.ar    1  LIG1       -0.0211
      8 C           1.7040    1.7670    0.0000 C.ar    1  LIG1       -0.0011
      9 C           0.8580    2.2630    0.0000 C.ar    1  LIG1        0.0366
     10 C          -0.0290    1.7670    0.0000 C.ar    1  LIG1        0.1385
     11 C          -0.0080    0.7750    0.0000 C.ar    1  LIG1        0.0366
     12 C           0.8580    0.2750    0.0000 C.ar    1  LIG1       -0.0011
     13 O          -0.9130    2.2630    0.0000 O.3     1  LIG1       -0.4755
     14 C          -1.7580    1.7500    0.0000 C.3     1  LIG1        0.2054
     15 C          -2.6250    2.2250    0.0000 C.3     1  LIG1        0.0473
     16 C          -3.4630    1.7000    0.0000 C.3     1  LIG1        0.0038
     17 C          -4.3580    2.1830    0.0000 C.3     1  LIG1        0.0001
     18 C          -5.1960    1.6580    0.0000 C.3     1  LIG1        0.0000
     19 O           5.1920    0.7750    0.0000 O.2     1  LIG1       -0.3354
     20 O           3.4380   -2.2420    0.0000 O.2     1  LIG1       -0.3349
     21 C           1.7040   -1.2670    0.0000 C.2     1  LIG1        0.3209
     22 O           1.7040   -2.2580    0.0000 O.2     1  LIG1       -0.2497
     23 O           0.8580   -0.7710    0.0000 O.3     1  LIG1       -0.4483
     24 C          -0.0080   -1.2670    0.0000 C.3     1  LIG1        0.2086
     25 C          -0.8830   -0.7710    0.0000 C.3     1  LIG1        0.0513
@<TRIPOS>BOND
     1     1     2    1
     2     1     6    1
     3     1    21    1
     4     2     3    1
     5     2    20    2
     6     3     4    1
     7     4     5    1
     8     4    19    2
     9     5     6    1
    10     6     7    1
    11     7     8   ar
    12     7    12   ar
    13     8     9   ar
    14     9    10   ar
    15    10    11   ar
    16    10    13    1
    17    11    12   ar
    18    13    14    1
    19    14    15    1
    20    15    16    1
    21    16    17    1
    22    17    18    1
    23    21    22    2
    24    21    23    1
    25    23    24    1
    26    24    25    1
