@<TRIPOS>MOLECULE
24985_ChemDiv_4327-2950
 23 25 0 0 0
SMALL
GASTEIGER
Energy = 0

@<TRIPOS>ATOM
      1 N          -1.7040    0.7880    0.0000 N.ar    1  LIG1       -0.2004
      2 C          -2.6580    1.0880    0.0000 C.ar    1  LIG1        0.1866
      3 C          -2.6580    2.0920    0.0000 C.ar    1  LIG1        0.1538
      4 N          -1.7040    2.4210    0.0000 N.ar    1  LIG1       -0.2151
      5 C          -1.1170    1.5920    0.0000 C.ar    1  LIG1        0.1920
      6 S          -0.1080    1.5920    0.0000 S.3     1  LIG1       -0.0657
      7 C           0.8790    1.5920    0.0000 C.3     1  LIG1        0.1519
      8 C           1.3790    0.7420    0.0000 C.2     1  LIG1        0.2570
      9 N           2.3880    0.7420    0.0000 N.am    1  LIG1       -0.1785
     10 C           2.8750   -0.1210    0.0000 C.ar    1  LIG1        0.0736
     11 C           2.3880   -0.9920    0.0000 C.ar    1  LIG1        0.0197
     12 C           2.8750   -1.8540    0.0000 C.ar    1  LIG1        0.0382
     13 C           3.8830   -1.8540    0.0000 C.ar    1  LIG1        0.1388
     14 C           4.3830   -0.9830    0.0000 C.ar    1  LIG1        0.0382
     15 C           3.8830   -0.1210    0.0000 C.ar    1  LIG1        0.0197
     16 O           4.3830   -2.7210    0.0000 O.3     1  LIG1       -0.4714
     17 C           3.8830   -3.5830    0.0000 C.3     1  LIG1        0.2525
     18 O           0.8790   -0.1210    0.0000 O.2     1  LIG1       -0.2720
     19 C          -3.5330    2.5830    0.0000 C.ar    1  LIG1        0.1919
     20 N          -4.3880    2.0920    0.0000 N.ar    1  LIG1       -0.2040
     21 C          -4.3880    1.0880    0.0000 C.ar    1  LIG1        0.2016
     22 N          -3.5330    0.5880    0.0000 N.ar    1  LIG1       -0.2031
     23 N          -3.5420    3.5880    0.0000 N.pl3   1  LIG1       -0.1054
@<TRIPOS>BOND
     1     1     2   ar
     2     1     5   ar
     3     2     3   ar
     4     2    22   ar
     5     3     4   ar
     6     3    19   ar
     7     4     5   ar
     8     5     6    1
     9     6     7    1
    10     7     8    1
    11     8     9   am
    12     8    18    2
    13     9    10    1
    14    10    11   ar
    15    10    15   ar
    16    11    12   ar
    17    12    13   ar
    18    13    14   ar
    19    13    16    1
    20    14    15   ar
    21    16    17    1
    22    19    20   ar
    23    19    23    1
    24    20    21   ar
    25    21    22   ar
