@<TRIPOS>MOLECULE
24980_ChemDiv_C795-1450
 28 31 0 0 0
SMALL
GASTEIGER
Energy = 0

@<TRIPOS>ATOM
      1 N          -3.1420    1.2250    0.0000 N.am    1  LIG1       -0.2609
      2 C          -3.1540    2.2170    0.0000 C.3     1  LIG1        0.1636
      3 C          -2.2830    2.7290    0.0000 C.2     1  LIG1        0.2453
      4 N          -1.4210    2.2170    0.0000 N.am    1  LIG1       -0.2657
      5 C          -1.4210    1.2250    0.0000 C.3     1  LIG1        0.1796
      6 C          -2.2830    0.7250    0.0000 C.2     1  LIG1        0.2469
      7 O          -2.2830   -0.2710    0.0000 O.2     1  LIG1       -0.2730
      8 C          -0.5580    2.7290    0.0000 C.3     1  LIG1        0.1206
      9 C           0.3040    2.2290    0.0000 C.ar    1  LIG1       -0.0023
     10 C           0.3040    1.2380    0.0000 C.ar    1  LIG1       -0.0025
     11 C           1.1790    0.7420    0.0000 C.ar    1  LIG1        0.0043
     12 C           2.0380    1.2500    0.0000 C.ar    1  LIG1        0.0550
     13 C           2.9130    0.7540    0.0000 C.2     1  LIG1        0.2651
     14 N           2.9250   -0.2380    0.0000 N.am    1  LIG1       -0.1968
     15 C           3.7920   -0.7250    0.0000 C.3     1  LIG1        0.1418
     16 C           3.8040   -1.7130    0.0000 C.ar    1  LIG1       -0.0006
     17 C           2.9380   -2.2250    0.0000 C.ar    1  LIG1       -0.0026
     18 C           2.9420   -3.2250    0.0000 C.ar    1  LIG1       -0.0003
     19 C           3.8170   -3.7210    0.0000 C.ar    1  LIG1       -0.0000
     20 C           4.6880   -3.2080    0.0000 C.ar    1  LIG1       -0.0003
     21 C           4.6750   -2.2080    0.0000 C.ar    1  LIG1       -0.0026
     22 O           3.7670    1.2670    0.0000 O.2     1  LIG1       -0.2684
     23 C           2.0250    2.2630    0.0000 C.ar    1  LIG1        0.0043
     24 C           1.1670    2.7420    0.0000 C.ar    1  LIG1       -0.0025
     25 O          -2.2830    3.7250    0.0000 O.2     1  LIG1       -0.2730
     26 C          -4.1040    2.5380    0.0000 C.3     1  LIG1        0.0884
     27 S          -4.6920    1.7170    0.0000 S.3     1  LIG1       -0.1164
     28 C          -4.0920    0.9040    0.0000 C.3     1  LIG1        0.1527
@<TRIPOS>BOND
     1     1     2    1
     2     1     6   am
     3     1    28    1
     4     2     3    1
     5     2    26    1
     6     3     4   am
     7     3    25    2
     8     4     5    1
     9     4     8    1
    10     5     6    1
    11     6     7    2
    12     8     9    1
    13     9    10   ar
    14     9    24   ar
    15    10    11   ar
    16    11    12   ar
    17    12    13    1
    18    12    23   ar
    19    13    14   am
    20    13    22    2
    21    14    15    1
    22    15    16    1
    23    16    17   ar
    24    16    21   ar
    25    17    18   ar
    26    18    19   ar
    27    19    20   ar
    28    20    21   ar
    29    23    24   ar
    30    26    27    1
    31    27    28    1
