@<TRIPOS>MOLECULE
24981_ChemDiv_1210-0021
 15 16 0 0 0
SMALL
GASTEIGER
Energy = 0

@<TRIPOS>ATOM
      1 C           0.0920    1.5460    0.0000 C.ar    1  LIG1        0.1518
      2 C           0.0920    0.5380    0.0000 C.ar    1  LIG1        0.1675
      3 N          -0.7630    0.0210    0.0000 N.ar    1  LIG1       -0.2916
      4 C          -1.6210    0.5380    0.0000 C.ar    1  LIG1        0.1811
      5 N          -1.6210    1.5460    0.0000 N.ar    1  LIG1       -0.2055
      6 C          -0.7630    2.0330    0.0000 C.ar    1  LIG1        0.1918
      7 N          -0.8000    3.0380    0.0000 N.pl3   1  LIG1       -0.1054
      8 C          -0.8000   -0.9920    0.0000 C.3     1  LIG1        0.1445
      9 C           0.0580   -1.5040    0.0000 C.3     1  LIG1        0.2072
     10 O           0.9500   -1.0210    0.0000 O.3     1  LIG1       -0.2182
     11 C           0.0330   -2.5170    0.0000 C.3     1  LIG1        0.2168
     12 O           0.8790   -3.0330    0.0000 O.3     1  LIG1       -0.2175
     13 N           1.0330    0.2290    0.0000 N.ar    1  LIG1       -0.2049
     14 C           1.6170    1.0210    0.0000 C.ar    1  LIG1        0.2004
     15 N           1.0330    1.8540    0.0000 N.ar    1  LIG1       -0.2179
@<TRIPOS>BOND
     1     1     2   ar
     2     1     6   ar
     3     1    15   ar
     4     2     3   ar
     5     2    13   ar
     6     3     4   ar
     7     3     8    1
     8     4     5   ar
     9     5     6   ar
    10     6     7    1
    11     8     9    1
    12     9    10    1
    13     9    11    1
    14    11    12    1
    15    13    14   ar
    16    14    15   ar
