@<TRIPOS>MOLECULE
24989_ChemDiv_6056-0714
 22 24 0 0 0
SMALL
GASTEIGER
Energy = 0

@<TRIPOS>ATOM
      1 N          -0.8080    0.9540    0.0000 N.ar    1  LIG1       -0.2004
      2 C          -1.4750    1.7040    0.0000 C.ar    1  LIG1        0.1866
      3 C          -0.9880    2.5630    0.0000 C.ar    1  LIG1        0.1538
      4 N           0.0920    2.3670    0.0000 N.ar    1  LIG1       -0.2151
      5 C           0.1000    1.3750    0.0000 C.ar    1  LIG1        0.1920
      6 S           1.0580    1.1290    0.0000 S.3     1  LIG1       -0.0657
      7 C           1.3040    0.1540    0.0000 C.3     1  LIG1        0.1519
      8 C           2.2670   -0.0880    0.0000 C.2     1  LIG1        0.2570
      9 N           2.5250   -1.0500    0.0000 N.am    1  LIG1       -0.1785
     10 C           1.8290   -1.7500    0.0000 C.ar    1  LIG1        0.0731
     11 C           2.0920   -2.7000    0.0000 C.ar    1  LIG1        0.0123
     12 C           1.3790   -3.4080    0.0000 C.ar    1  LIG1       -0.0206
     13 C           0.4170   -3.1630    0.0000 C.ar    1  LIG1       -0.0042
     14 C           0.1580   -2.2040    0.0000 C.ar    1  LIG1        0.0010
     15 C           0.8790   -1.4960    0.0000 C.ar    1  LIG1        0.0166
     16 C           1.6630   -4.3750    0.0000 C.3     1  LIG1        0.0311
     17 O           2.9750    0.6170    0.0000 O.2     1  LIG1       -0.2720
     18 C          -1.4750    3.4130    0.0000 C.ar    1  LIG1        0.1919
     19 N          -2.4790    3.4130    0.0000 N.ar    1  LIG1       -0.2040
     20 C          -2.9790    2.5630    0.0000 C.ar    1  LIG1        0.2016
     21 N          -2.4790    1.7040    0.0000 N.ar    1  LIG1       -0.2031
     22 N          -1.2290    4.3750    0.0000 N.pl3   1  LIG1       -0.1054
@<TRIPOS>BOND
     1     1     2   ar
     2     1     5   ar
     3     2     3   ar
     4     2    21   ar
     5     3     4   ar
     6     3    18   ar
     7     4     5   ar
     8     5     6    1
     9     6     7    1
    10     7     8    1
    11     8     9   am
    12     8    17    2
    13     9    10    1
    14    10    11   ar
    15    10    15   ar
    16    11    12   ar
    17    12    13   ar
    18    12    16    1
    19    13    14   ar
    20    14    15   ar
    21    18    19   ar
    22    18    22    1
    23    19    20   ar
    24    20    21   ar
