@<TRIPOS>MOLECULE
24987_ChemDiv_5206-0003
 22 24 0 0 0
SMALL
GASTEIGER
Energy = 0

@<TRIPOS>ATOM
      1 C          -3.0500    1.9210    0.0000 C.ar    1  LIG1        0.1517
      2 N          -2.1000    2.2170    0.0000 N.ar    1  LIG1       -0.2193
      3 C          -1.5210    1.4210    0.0000 C.ar    1  LIG1        0.1799
      4 N          -2.1000    0.6170    0.0000 N.ar    1  LIG1       -0.2905
      5 C          -3.0500    0.9040    0.0000 C.ar    1  LIG1        0.1675
      6 N          -3.9130    0.4040    0.0000 N.ar    1  LIG1       -0.2048
      7 C          -4.7880    0.9250    0.0000 C.ar    1  LIG1        0.2016
      8 N          -4.7880    1.9000    0.0000 N.ar    1  LIG1       -0.2040
      9 C          -3.9130    2.4170    0.0000 C.ar    1  LIG1        0.1919
     10 N          -3.9130    3.4000    0.0000 N.pl3   1  LIG1       -0.1054
     11 C          -1.7830   -0.3540    0.0000 C.3     1  LIG1        0.1562
     12 C          -0.7920   -0.5540    0.0000 C.3     1  LIG1        0.2298
     13 O          -0.4790   -1.5000    0.0000 O.3     1  LIG1       -0.4734
     14 C           0.4920   -1.7040    0.0000 C.ar    1  LIG1        0.1388
     15 C           0.8210   -2.6540    0.0000 C.ar    1  LIG1        0.0400
     16 C           1.8040   -2.8540    0.0000 C.ar    1  LIG1        0.0400
     17 C           2.4500   -2.0960    0.0000 C.ar    1  LIG1        0.1388
     18 C           2.1290   -1.1630    0.0000 C.ar    1  LIG1        0.0400
     19 C           1.1580   -0.9580    0.0000 C.ar    1  LIG1        0.0400
     20 O           3.4630   -2.2750    0.0000 O.3     1  LIG1       -0.4755
     21 C           3.8080   -3.2210    0.0000 C.3     1  LIG1        0.2055
     22 C           4.7830   -3.3960    0.0000 C.3     1  LIG1        0.0512
@<TRIPOS>BOND
     1     1     2   ar
     2     1     5   ar
     3     1     9   ar
     4     2     3   ar
     5     3     4   ar
     6     4     5   ar
     7     4    11    1
     8     5     6   ar
     9     6     7   ar
    10     7     8   ar
    11     8     9   ar
    12     9    10    1
    13    11    12    1
    14    12    13    1
    15    13    14    1
    16    14    15   ar
    17    14    19   ar
    18    15    16   ar
    19    16    17   ar
    20    17    18   ar
    21    17    20    1
    22    18    19   ar
    23    20    21    1
    24    21    22    1
