@<TRIPOS>MOLECULE
24990_ChemDiv_1670-1782
 26 28 0 0 0
SMALL
GASTEIGER
Energy = 0

@<TRIPOS>ATOM
      1 C          -0.0040   -0.9000    0.0000 C.3     1  LIG1        0.0530
      2 C          -0.8710   -1.3880    0.0000 C.3     1  LIG1        0.1323
      3 C          -0.8710   -2.3920    0.0000 C.3     1  LIG1        0.1439
      4 C          -0.0040   -2.8920    0.0000 C.3     1  LIG1        0.0960
      5 C           0.8670   -2.3920    0.0000 C.2     1  LIG1        0.1637
      6 C           0.8670   -1.3880    0.0000 C.3     1  LIG1        0.1609
      7 C           1.7330   -0.8830    0.0000 C.2     1  LIG1        0.3240
      8 O           1.7330    0.1210    0.0000 O.2     1  LIG1       -0.2496
      9 O           2.6000   -1.3880    0.0000 O.3     1  LIG1       -0.4441
     10 C           3.4710   -0.8830    0.0000 C.3     1  LIG1        0.2556
     11 O           1.7330   -2.8920    0.0000 O.2     1  LIG1       -0.2954
     12 O          -1.5210   -3.1710    0.0000 O.3     1  LIG1       -0.2246
     13 C          -1.8540   -2.5580    0.0000 C.3     1  LIG1        0.0340
     14 C          -1.7380   -0.8830    0.0000 C.2     1  LIG1        0.3193
     15 O          -1.7380    0.1290    0.0000 O.2     1  LIG1       -0.2500
     16 O          -2.6040   -1.3710    0.0000 O.3     1  LIG1       -0.4443
     17 C          -3.4750   -0.8830    0.0000 C.3     1  LIG1        0.2556
     18 C          -0.0040    0.1040    0.0000 C.ar    1  LIG1       -0.0177
     19 C           0.8500    0.6130    0.0000 C.ar    1  LIG1        0.0360
     20 C           0.8500    1.6170    0.0000 C.ar    1  LIG1        0.1761
     21 C          -0.0040    2.1040    0.0000 C.ar    1  LIG1        0.1764
     22 O           0.2170    3.0830    0.0000 O.3     1  LIG1       -0.4346
     23 C           1.2000    3.1750    0.0000 C.3     1  LIG1        0.4294
     24 O           1.6000    2.2670    0.0000 O.3     1  LIG1       -0.4346
     25 C          -0.8710    1.6170    0.0000 C.ar    1  LIG1        0.0399
     26 C          -0.8710    0.6130    0.0000 C.ar    1  LIG1       -0.0009
@<TRIPOS>BOND
     1     1     2    1
     2     1     6    1
     3     1    18    1
     4     2     3    1
     5     2    14    1
     6     3     4    1
     7     3    12    1
     8     3    13    1
     9     4     5    1
    10     5     6    1
    11     5    11    2
    12     6     7    1
    13     7     8    2
    14     7     9    1
    15     9    10    1
    16    14    15    2
    17    14    16    1
    18    16    17    1
    19    18    19   ar
    20    18    26   ar
    21    19    20   ar
    22    20    21   ar
    23    20    24    1
    24    21    22    1
    25    21    25   ar
    26    22    23    1
    27    23    24    1
    28    25    26   ar
