@<TRIPOS>MOLECULE
24997_ChemDiv_7379-0897
 27 31 0 0 0
SMALL
GASTEIGER
Energy = 0

@<TRIPOS>ATOM
      1 N           2.1380   -0.8000    0.0000 N.ar    1  LIG1       -0.2082
      2 C           2.7250    0.0040    0.0000 C.ar    1  LIG1        0.2297
      3 O           2.1380    0.8040    0.0000 O.2     1  LIG1       -0.4346
      4 C           1.1920    0.5040    0.0000 C.ar    1  LIG1        0.1648
      5 C           1.1920   -0.5000    0.0000 C.ar    1  LIG1        0.1201
      6 C           0.3290   -0.9960    0.0000 C.ar    1  LIG1        0.0384
      7 C          -0.5290   -0.5000    0.0000 C.ar    1  LIG1        0.0674
      8 N          -1.7250   -0.5000    0.0000 N.pl3   1  LIG1       -0.2328
      9 C          -2.5830   -0.9960    0.0000 C.3     1  LIG1        0.1386
     10 C          -3.4420   -0.5000    0.0000 C.ar    1  LIG1        0.0026
     11 C          -4.3040   -0.9960    0.0000 C.ar    1  LIG1        0.0376
     12 C          -5.1580   -0.5000    0.0000 C.ar    1  LIG1        0.1762
     13 C          -5.1580    0.5040    0.0000 C.ar    1  LIG1        0.1764
     14 O          -6.1080    0.8040    0.0000 O.3     1  LIG1       -0.4346
     15 C          -6.6880    0.0040    0.0000 C.3     1  LIG1        0.4294
     16 O          -6.1080   -0.8000    0.0000 O.3     1  LIG1       -0.4346
     17 C          -4.3040    1.0000    0.0000 C.ar    1  LIG1        0.0399
     18 C          -3.4420    0.5040    0.0000 C.ar    1  LIG1        0.0008
     19 C          -0.5290    0.5040    0.0000 C.ar    1  LIG1        0.0193
     20 C           0.3290    1.0000    0.0000 C.ar    1  LIG1        0.0404
     21 C           3.7170    0.0040    0.0000 C.ar    1  LIG1        0.0536
     22 C           4.2130   -0.8540    0.0000 C.ar    1  LIG1        0.0043
     23 C           5.2040   -0.8540    0.0000 C.ar    1  LIG1       -0.0041
     24 C           5.6920    0.0040    0.0000 C.ar    1  LIG1       -0.0218
     25 C           5.2040    0.8630    0.0000 C.ar    1  LIG1       -0.0041
     26 C           4.2130    0.8630    0.0000 C.ar    1  LIG1        0.0043
     27 C           6.6880    0.0040    0.0000 C.3     1  LIG1        0.0310
@<TRIPOS>BOND
     1     1     2   ar
     2     1     5   ar
     3     2     3   ar
     4     2    21    1
     5     3     4   ar
     6     4     5   ar
     7     4    20   ar
     8     5     6   ar
     9     6     7   ar
    10     7     8    1
    11     7    19   ar
    12     8     9    1
    13     9    10    1
    14    10    11   ar
    15    10    18   ar
    16    11    12   ar
    17    12    13   ar
    18    12    16    1
    19    13    14    1
    20    13    17   ar
    21    14    15    1
    22    15    16    1
    23    17    18   ar
    24    19    20   ar
    25    21    22   ar
    26    21    26   ar
    27    22    23   ar
    28    23    24   ar
    29    24    25   ar
    30    24    27    1
    31    25    26   ar
