@<TRIPOS>MOLECULE
24999_ChemDiv_8007-1700
 35 39 0 0 0
SMALL
GASTEIGER
Energy = 0

@<TRIPOS>ATOM
      1 N          -0.1080    1.9540    0.0000 N.ar    1  LIG1       -0.2082
      2 C           0.4580    1.1710    0.0000 C.ar    1  LIG1        0.2297
      3 O          -0.1080    0.3580    0.0000 O.2     1  LIG1       -0.4346
      4 C          -1.0670    0.6420    0.0000 C.ar    1  LIG1        0.1648
      5 C          -1.0670    1.6710    0.0000 C.ar    1  LIG1        0.1202
      6 C          -1.9580    2.1630    0.0000 C.ar    1  LIG1        0.0389
      7 C          -2.8290    1.6330    0.0000 C.ar    1  LIG1        0.0753
      8 N          -3.7170    2.0540    0.0000 N.am    1  LIG1       -0.1742
      9 C          -4.5290    1.4880    0.0000 C.2     1  LIG1        0.3033
     10 C          -5.3830    1.9540    0.0000 C.3     1  LIG1        0.2271
     11 N          -6.2330    1.4380    0.0000 N.4     1  LIG1        0.3885
     12 C          -6.2330    0.4290    0.0000 C.3     1  LIG1        0.1720
     13 C          -7.0630   -0.1080    0.0000 C.3     1  LIG1        0.2048
     14 O          -7.9670    0.3960    0.0000 O.3     1  LIG1       -0.3411
     15 C          -7.9920    1.4040    0.0000 C.3     1  LIG1        0.2048
     16 C          -7.1330    1.9170    0.0000 C.3     1  LIG1        0.1720
     17 O          -4.4420    0.5170    0.0000 O.2     1  LIG1       -0.2665
     18 C          -2.8290    0.6750    0.0000 C.ar    1  LIG1        0.0198
     19 C          -1.9580    0.1460    0.0000 C.ar    1  LIG1        0.0405
     20 C           1.4540    1.1920    0.0000 C.ar    1  LIG1        0.0537
     21 C           1.8750    2.0540    0.0000 C.ar    1  LIG1        0.0060
     22 C           2.8830    2.1290    0.0000 C.ar    1  LIG1        0.0168
     23 C           3.4330    1.2580    0.0000 C.ar    1  LIG1        0.0736
     24 N           4.4630    1.2080    0.0000 N.am    1  LIG1       -0.1742
     25 C           4.9420    0.4790    0.0000 C.2     1  LIG1        0.3033
     26 C           5.9670    0.4790    0.0000 C.3     1  LIG1        0.2271
     27 N           6.4790   -0.4250    0.0000 N.4     1  LIG1        0.3885
     28 C           5.9670   -1.2880    0.0000 C.3     1  LIG1        0.1720
     29 C           6.4790   -2.1580    0.0000 C.3     1  LIG1        0.2048
     30 O           7.5080   -2.1580    0.0000 O.3     1  LIG1       -0.3411
     31 C           7.9920   -1.2540    0.0000 C.3     1  LIG1        0.2048
     32 C           7.5080   -0.4250    0.0000 C.3     1  LIG1        0.1720
     33 O           4.4630   -0.4250    0.0000 O.2     1  LIG1       -0.2665
     34 C           2.9920    0.4080    0.0000 C.ar    1  LIG1        0.0168
     35 C           1.9830    0.3580    0.0000 C.ar    1  LIG1        0.0060
@<TRIPOS>BOND
     1     1     2   ar
     2     1     5   ar
     3     2     3   ar
     4     2    20    1
     5     3     4   ar
     6     4     5   ar
     7     4    19   ar
     8     5     6   ar
     9     6     7   ar
    10     7     8    1
    11     7    18   ar
    12     8     9   am
    13     9    10    1
    14     9    17    2
    15    10    11    1
    16    11    12    1
    17    11    16    1
    18    12    13    1
    19    13    14    1
    20    14    15    1
    21    15    16    1
    22    18    19   ar
    23    20    21   ar
    24    20    35   ar
    25    21    22   ar
    26    22    23   ar
    27    23    24    1
    28    23    34   ar
    29    24    25   am
    30    25    26    1
    31    25    33    2
    32    26    27    1
    33    27    28    1
    34    27    32    1
    35    28    29    1
    36    29    30    1
    37    30    31    1
    38    31    32    1
    39    34    35   ar
