@<TRIPOS>MOLECULE
25005_ChemDiv_K806-0089
 37 41 0 0 0
SMALL
GASTEIGER
Energy = 0

@<TRIPOS>ATOM
      1 N          -2.1710   -2.2920    0.0000 N.ar    1  LIG1       -0.2082
      2 C          -1.5790   -1.4920    0.0000 C.ar    1  LIG1        0.2297
      3 O          -2.1710   -0.6830    0.0000 O.2     1  LIG1       -0.4346
      4 C          -3.1170   -0.9920    0.0000 C.ar    1  LIG1        0.1648
      5 C          -3.1170   -1.9920    0.0000 C.ar    1  LIG1        0.1202
      6 C          -3.9790   -2.4920    0.0000 C.ar    1  LIG1        0.0389
      7 C          -4.8500   -1.9920    0.0000 C.ar    1  LIG1        0.0754
      8 N          -5.7170   -2.5000    0.0000 N.am    1  LIG1       -0.1754
      9 C          -6.5880   -2.0000    0.0000 C.2     1  LIG1        0.2690
     10 C          -6.5920   -1.0000    0.0000 C.ar    1  LIG1        0.0556
     11 C          -7.4540   -0.5040    0.0000 C.ar    1  LIG1        0.0077
     12 C          -7.4540    0.5080    0.0000 C.ar    1  LIG1        0.0370
     13 C          -6.5920    1.0040    0.0000 C.ar    1  LIG1        0.1387
     14 C          -5.7290    0.5080    0.0000 C.ar    1  LIG1        0.0370
     15 C          -5.7290   -0.5040    0.0000 C.ar    1  LIG1        0.0077
     16 O          -6.6040    2.0040    0.0000 O.3     1  LIG1       -0.4714
     17 C          -5.7500    2.5040    0.0000 C.3     1  LIG1        0.2525
     18 O          -7.4500   -2.5000    0.0000 O.2     1  LIG1       -0.2680
     19 C          -4.8500   -0.9920    0.0000 C.ar    1  LIG1        0.0198
     20 C          -3.9790   -0.4920    0.0000 C.ar    1  LIG1        0.0405
     21 C          -0.5830   -1.5460    0.0000 C.ar    1  LIG1        0.0537
     22 C          -0.0420   -0.7040    0.0000 C.ar    1  LIG1        0.0060
     23 C           0.9630   -0.7460    0.0000 C.ar    1  LIG1        0.0168
     24 C           1.4290   -1.6210    0.0000 C.ar    1  LIG1        0.0737
     25 N           2.4290   -1.6420    0.0000 N.am    1  LIG1       -0.1754
     26 C           2.9460   -0.7960    0.0000 C.2     1  LIG1        0.2690
     27 C           3.9580   -0.8210    0.0000 C.ar    1  LIG1        0.0556
     28 C           4.4750    0.0420    0.0000 C.ar    1  LIG1        0.0077
     29 C           5.4830    0.0210    0.0000 C.ar    1  LIG1        0.0370
     30 C           5.9500   -0.8500    0.0000 C.ar    1  LIG1        0.1387
     31 C           5.4420   -1.7040    0.0000 C.ar    1  LIG1        0.0370
     32 C           4.4420   -1.6880    0.0000 C.ar    1  LIG1        0.0077
     33 O           6.9500   -0.8540    0.0000 O.3     1  LIG1       -0.4714
     34 C           7.4540   -0.0040    0.0000 C.3     1  LIG1        0.2525
     35 O           2.4580    0.0830    0.0000 O.2     1  LIG1       -0.2680
     36 C           0.8880   -2.4750    0.0000 C.ar    1  LIG1        0.0168
     37 C          -0.1130   -2.4290    0.0000 C.ar    1  LIG1        0.0060
@<TRIPOS>BOND
     1     1     2   ar
     2     1     5   ar
     3     2     3   ar
     4     2    21    1
     5     3     4   ar
     6     4     5   ar
     7     4    20   ar
     8     5     6   ar
     9     6     7   ar
    10     7     8    1
    11     7    19   ar
    12     8     9   am
    13     9    10    1
    14     9    18    2
    15    10    11   ar
    16    10    15   ar
    17    11    12   ar
    18    12    13   ar
    19    13    14   ar
    20    13    16    1
    21    14    15   ar
    22    16    17    1
    23    19    20   ar
    24    21    22   ar
    25    21    37   ar
    26    22    23   ar
    27    23    24   ar
    28    24    25    1
    29    24    36   ar
    30    25    26   am
    31    26    27    1
    32    26    35    2
    33    27    28   ar
    34    27    32   ar
    35    28    29   ar
    36    29    30   ar
    37    30    31   ar
    38    30    33    1
    39    31    32   ar
    40    33    34    1
    41    36    37   ar
