@<TRIPOS>MOLECULE
25003_ChemDiv_K213-0053
 25 28 0 0 0
SMALL
GASTEIGER
Energy = 0

@<TRIPOS>ATOM
      1 N           1.5170    1.9920    0.0000 N.ar    1  LIG1       -0.2083
      2 C           0.8710    1.2170    0.0000 C.ar    1  LIG1        0.2297
      3 O          -0.0460    1.5880    0.0000 O.2     1  LIG1       -0.4346
      4 C           0.0330    2.5790    0.0000 C.ar    1  LIG1        0.1647
      5 C           1.0000    2.8380    0.0000 C.ar    1  LIG1        0.1189
      6 C           1.2750    3.8040    0.0000 C.ar    1  LIG1        0.0223
      7 C           0.5750    4.5130    0.0000 C.ar    1  LIG1        0.0018
      8 C          -0.4170    4.2420    0.0000 C.ar    1  LIG1        0.0032
      9 C          -0.6580    3.3040    0.0000 C.ar    1  LIG1        0.0391
     10 C           1.0250    0.2500    0.0000 C.ar    1  LIG1        0.0537
     11 C           1.9500   -0.1130    0.0000 C.ar    1  LIG1        0.0060
     12 C           2.1130   -1.1040    0.0000 C.ar    1  LIG1        0.0168
     13 C           1.3000   -1.7500    0.0000 C.ar    1  LIG1        0.0737
     14 N           1.4130   -2.7380    0.0000 N.am    1  LIG1       -0.1754
     15 C           0.5960   -3.3330    0.0000 C.2     1  LIG1        0.2695
     16 C          -0.3130   -2.9250    0.0000 C.ar    1  LIG1        0.0616
     17 C          -1.1290   -3.4920    0.0000 C.ar    1  LIG1        0.0390
     18 BR         -1.0630   -4.5130    0.0000 Br      1  LIG1       -0.0489
     19 C          -2.0130   -3.0580    0.0000 C.ar    1  LIG1        0.0068
     20 C          -2.1170   -2.0710    0.0000 C.ar    1  LIG1        0.0005
     21 C          -1.3040   -1.5080    0.0000 C.ar    1  LIG1        0.0002
     22 C          -0.3920   -1.9330    0.0000 C.ar    1  LIG1        0.0051
     23 O           0.6790   -4.3290    0.0000 O.2     1  LIG1       -0.2680
     24 C           0.3830   -1.3500    0.0000 C.ar    1  LIG1        0.0168
     25 C           0.2250   -0.3670    0.0000 C.ar    1  LIG1        0.0060
@<TRIPOS>BOND
     1     1     2   ar
     2     1     5   ar
     3     2     3   ar
     4     2    10    1
     5     3     4   ar
     6     4     5   ar
     7     4     9   ar
     8     5     6   ar
     9     6     7   ar
    10     7     8   ar
    11     8     9   ar
    12    10    11   ar
    13    10    25   ar
    14    11    12   ar
    15    12    13   ar
    16    13    14    1
    17    13    24   ar
    18    14    15   am
    19    15    16    1
    20    15    23    2
    21    16    17   ar
    22    16    22   ar
    23    17    18    1
    24    17    19   ar
    25    19    20   ar
    26    20    21   ar
    27    21    22   ar
    28    24    25   ar
