@<TRIPOS>MOLECULE
25009_ChemDiv_6141-0019
 32 35 0 0 0
SMALL
GASTEIGER
Energy = 0

@<TRIPOS>ATOM
      1 N          -1.9630   -0.8170    0.0000 N.ar    1  LIG1       -0.2880
      2 C          -1.3710   -0.0170    0.0000 C.ar    1  LIG1        0.1727
      3 N          -1.9630    0.8000    0.0000 N.ar    1  LIG1       -0.2165
      4 C          -2.9040    0.4880    0.0000 C.ar    1  LIG1        0.1521
      5 C          -2.9040   -0.5080    0.0000 C.ar    1  LIG1        0.1678
      6 N          -3.7670   -1.0080    0.0000 N.ar    1  LIG1       -0.2048
      7 C          -4.6420   -0.5080    0.0000 C.ar    1  LIG1        0.2016
      8 N          -4.6420    0.4880    0.0000 N.ar    1  LIG1       -0.2040
      9 C          -3.7670    0.9880    0.0000 C.ar    1  LIG1        0.1919
     10 N          -3.7670    1.9880    0.0000 N.pl3   1  LIG1       -0.1054
     11 S          -0.3750   -0.0170    0.0000 S.3     1  LIG1       -0.0745
     12 C           0.1250    0.8460    0.0000 C.3     1  LIG1        0.1018
     13 C           1.1250    0.8460    0.0000 C.3     1  LIG1        0.2065
     14 C           1.6250    1.7080    0.0000 C.3     1  LIG1        0.2389
     15 O           2.6330    1.7080    0.0000 O.3     1  LIG1       -0.4727
     16 C           3.1330    2.5710    0.0000 C.ar    1  LIG1        0.1387
     17 C           4.1380    2.5710    0.0000 C.ar    1  LIG1        0.0369
     18 C           4.6380    3.4330    0.0000 C.ar    1  LIG1        0.0031
     19 C           4.1380    4.3080    0.0000 C.ar    1  LIG1        0.0002
     20 C           3.1330    4.3080    0.0000 C.ar    1  LIG1        0.0031
     21 C           2.6330    3.4420    0.0000 C.ar    1  LIG1        0.0369
     22 O           1.6250   -0.0170    0.0000 O.3     1  LIG1       -0.2182
     23 C          -1.6500   -1.7710    0.0000 C.3     1  LIG1        0.1566
     24 C          -0.6750   -1.9830    0.0000 C.3     1  LIG1        0.2299
     25 O          -0.3750   -2.9380    0.0000 O.3     1  LIG1       -0.4734
     26 C           0.6040   -3.1500    0.0000 C.ar    1  LIG1        0.1386
     27 C           1.2750   -2.4080    0.0000 C.ar    1  LIG1        0.0366
     28 C           2.2460   -2.6170    0.0000 C.ar    1  LIG1       -0.0011
     29 C           2.5580   -3.5710    0.0000 C.ar    1  LIG1       -0.0217
     30 C           1.8830   -4.3080    0.0000 C.ar    1  LIG1       -0.0011
     31 C           0.9130   -4.0960    0.0000 C.ar    1  LIG1        0.0366
     32 C           3.5420   -3.7960    0.0000 C.3     1  LIG1        0.0310
@<TRIPOS>BOND
     1     1     2   ar
     2     1     5   ar
     3     1    23    1
     4     2     3   ar
     5     2    11    1
     6     3     4   ar
     7     4     5   ar
     8     4     9   ar
     9     5     6   ar
    10     6     7   ar
    11     7     8   ar
    12     8     9   ar
    13     9    10    1
    14    11    12    1
    15    12    13    1
    16    13    14    1
    17    13    22    1
    18    14    15    1
    19    15    16    1
    20    16    17   ar
    21    16    21   ar
    22    17    18   ar
    23    18    19   ar
    24    19    20   ar
    25    20    21   ar
    26    23    24    1
    27    24    25    1
    28    25    26    1
    29    26    27   ar
    30    26    31   ar
    31    27    28   ar
    32    28    29   ar
    33    29    30   ar
    34    29    32    1
    35    30    31   ar
