@<TRIPOS>MOLECULE
25017_ChemDiv_8016-7581
 22 24 0 0 0
SMALL
GASTEIGER
Energy = 0

@<TRIPOS>ATOM
      1 C          -2.6210    0.0330    0.0000 C.ar    1  LIG1        0.1517
      2 N          -1.6710    0.3460    0.0000 N.ar    1  LIG1       -0.2193
      3 C          -1.0830   -0.4710    0.0000 C.ar    1  LIG1        0.1798
      4 N          -1.6710   -1.2790    0.0000 N.ar    1  LIG1       -0.2917
      5 C          -2.6210   -0.9710    0.0000 C.ar    1  LIG1        0.1675
      6 N          -3.4830   -1.4710    0.0000 N.ar    1  LIG1       -0.2048
      7 C          -4.3500   -0.9710    0.0000 C.ar    1  LIG1        0.2016
      8 N          -4.3500    0.0330    0.0000 N.ar    1  LIG1       -0.2040
      9 C          -3.4830    0.5330    0.0000 C.ar    1  LIG1        0.1919
     10 N          -3.4830    1.5330    0.0000 N.pl3   1  LIG1       -0.1054
     11 C          -1.1580   -2.1580    0.0000 C.3     1  LIG1        0.1410
     12 C          -0.1710   -2.1580    0.0000 C.3     1  LIG1        0.1671
     13 O           0.3460   -1.3040    0.0000 O.3     1  LIG1       -0.3469
     14 C           1.3460   -1.3040    0.0000 C.3     1  LIG1        0.1687
     15 C           1.8460   -0.4330    0.0000 C.ar    1  LIG1        0.0066
     16 C           1.3460    0.4330    0.0000 C.ar    1  LIG1       -0.0061
     17 C           1.8460    1.3000    0.0000 C.ar    1  LIG1       -0.0224
     18 C           2.8460    1.2960    0.0000 C.ar    1  LIG1       -0.0085
     19 C           3.3460    0.4330    0.0000 C.ar    1  LIG1       -0.0224
     20 C           2.8460   -0.4330    0.0000 C.ar    1  LIG1       -0.0061
     21 C           4.3460    0.4330    0.0000 C.3     1  LIG1        0.0310
     22 C           1.3460    2.1630    0.0000 C.3     1  LIG1        0.0310
@<TRIPOS>BOND
     1     1     2   ar
     2     1     5   ar
     3     1     9   ar
     4     2     3   ar
     5     3     4   ar
     6     4     5   ar
     7     4    11    1
     8     5     6   ar
     9     6     7   ar
    10     7     8   ar
    11     8     9   ar
    12     9    10    1
    13    11    12    1
    14    12    13    1
    15    13    14    1
    16    14    15    1
    17    15    16   ar
    18    15    20   ar
    19    16    17   ar
    20    17    18   ar
    21    17    22    1
    22    18    19   ar
    23    19    20   ar
    24    19    21    1
