@<TRIPOS>MOLECULE
25010_ChemDiv_3141-0335
 28 29 0 0 0
SMALL
GASTEIGER
Energy = 0

@<TRIPOS>ATOM
      1 C          -1.2960   -0.0080    0.0000 C.3     1  LIG1        0.1323
      2 C          -0.4330    0.4960    0.0000 C.3     1  LIG1        0.0529
      3 C          -0.4330    1.4880    0.0000 C.3     1  LIG1        0.1609
      4 C           0.4290    1.9960    0.0000 C.2     1  LIG1        0.3238
      5 O           1.2920    1.5080    0.0000 O.3     1  LIG1       -0.4520
      6 C           2.1630    1.9960    0.0000 C.3     1  LIG1        0.1691
      7 C           3.0250    1.5080    0.0000 C.3     1  LIG1        0.0473
      8 C           2.1630    3.0080    0.0000 C.3     1  LIG1        0.0473
      9 O           0.4290    3.0080    0.0000 O.2     1  LIG1       -0.2496
     10 C          -1.2960    1.9960    0.0000 C.2     1  LIG1        0.1637
     11 C          -2.1580    1.4880    0.0000 C.3     1  LIG1        0.0960
     12 C          -2.1580    0.4960    0.0000 C.3     1  LIG1        0.1439
     13 O          -2.8750    1.1920    0.0000 O.3     1  LIG1       -0.2246
     14 C          -2.4170   -0.4750    0.0000 C.3     1  LIG1        0.0340
     15 O          -1.2960    2.9830    0.0000 O.2     1  LIG1       -0.2954
     16 C           0.4290   -0.0080    0.0000 C.ar    1  LIG1       -0.0209
     17 C           0.4290   -1.0210    0.0000 C.ar    1  LIG1       -0.0037
     18 C           1.2920   -1.5080    0.0000 C.ar    1  LIG1        0.0064
     19 C           2.1630   -1.0210    0.0000 C.ar    1  LIG1        0.0345
     20 C           2.1630   -0.0080    0.0000 C.ar    1  LIG1        0.0064
     21 C           1.2920    0.4960    0.0000 C.ar    1  LIG1       -0.0037
     22 BR          3.0250   -1.5290    0.0000 Br      1  LIG1       -0.0490
     23 C          -1.2960   -1.0210    0.0000 C.2     1  LIG1        0.3191
     24 O          -2.1580   -1.5080    0.0000 O.3     1  LIG1       -0.4522
     25 C          -2.1580   -2.5170    0.0000 C.3     1  LIG1        0.1691
     26 C          -3.0290   -3.0040    0.0000 C.3     1  LIG1        0.0473
     27 C          -1.2960   -3.0040    0.0000 C.3     1  LIG1        0.0473
     28 O          -0.4330   -1.5080    0.0000 O.2     1  LIG1       -0.2500
@<TRIPOS>BOND
     1     1     2    1
     2     1    12    1
     3     1    23    1
     4     2     3    1
     5     2    16    1
     6     3     4    1
     7     3    10    1
     8     4     5    1
     9     4     9    2
    10     5     6    1
    11     6     7    1
    12     6     8    1
    13    10    11    1
    14    10    15    2
    15    11    12    1
    16    12    13    1
    17    12    14    1
    18    16    17   ar
    19    16    21   ar
    20    17    18   ar
    21    18    19   ar
    22    19    20   ar
    23    19    22    1
    24    20    21   ar
    25    23    24    1
    26    23    28    2
    27    24    25    1
    28    25    26    1
    29    25    27    1
