@<TRIPOS>MOLECULE
25014_ChemDiv_5665-0099
 33 34 0 0 0
SMALL
GASTEIGER
Energy = 0

@<TRIPOS>ATOM
      1 C          -1.2920    0.5000    0.0000 C.3     1  LIG1        0.1323
      2 C          -0.4290    1.0000    0.0000 C.3     1  LIG1        0.0530
      3 C          -0.4290    1.9920    0.0000 C.3     1  LIG1        0.1609
      4 C           0.4420    2.5000    0.0000 C.2     1  LIG1        0.3237
      5 O           1.3040    1.9920    0.0000 O.3     1  LIG1       -0.4555
      6 C           2.1540    2.5000    0.0000 C.3     1  LIG1        0.1363
      7 C           3.0290    2.0040    0.0000 C.3     1  LIG1        0.0437
      8 C           2.1540    3.5000    0.0000 C.3     1  LIG1        0.0437
      9 C           2.8500    3.2210    0.0000 C.3     1  LIG1        0.0437
     10 O           0.4420    3.5000    0.0000 O.2     1  LIG1       -0.2496
     11 C          -1.2920    2.5000    0.0000 C.2     1  LIG1        0.1637
     12 C          -2.1540    1.9920    0.0000 C.3     1  LIG1        0.0960
     13 C          -2.1540    1.0000    0.0000 C.3     1  LIG1        0.1439
     14 O          -3.0330    1.5000    0.0000 O.3     1  LIG1       -0.2246
     15 C          -3.0330    0.5000    0.0000 C.3     1  LIG1        0.0340
     16 O          -1.2920    3.5080    0.0000 O.2     1  LIG1       -0.2954
     17 C           0.4420    0.5000    0.0000 C.ar    1  LIG1       -0.0177
     18 C           0.4250   -0.5000    0.0000 C.ar    1  LIG1        0.0360
     19 C           1.3040   -1.0000    0.0000 C.ar    1  LIG1        0.1769
     20 C           2.1540   -0.5000    0.0000 C.ar    1  LIG1        0.2293
     21 C           2.1540    0.5000    0.0000 C.ar    1  LIG1        0.0449
     22 C           1.3040    1.0000    0.0000 C.ar    1  LIG1       -0.0008
     23 O           3.0290   -1.0000    0.0000 O.3     1  LIG1       -0.2833
     24 O           1.2880   -2.0130    0.0000 O.3     1  LIG1       -0.4722
     25 C           2.1540   -2.5040    0.0000 C.3     1  LIG1        0.2057
     26 C           2.1380   -3.5040    0.0000 C.3     1  LIG1        0.0512
     27 C          -1.2920   -0.4880    0.0000 C.2     1  LIG1        0.3190
     28 O          -0.4250   -0.9880    0.0000 O.3     1  LIG1       -0.4557
     29 C          -0.4290   -1.9960    0.0000 C.3     1  LIG1        0.1363
     30 C           0.4420   -2.4960    0.0000 C.3     1  LIG1        0.0437
     31 C          -1.2920   -2.4830    0.0000 C.3     1  LIG1        0.0437
     32 C          -0.1830   -2.9580    0.0000 C.3     1  LIG1        0.0437
     33 O          -2.1540   -1.0000    0.0000 O.2     1  LIG1       -0.2500
@<TRIPOS>BOND
     1     1     2    1
     2     1    13    1
     3     1    27    1
     4     2     3    1
     5     2    17    1
     6     3     4    1
     7     3    11    1
     8     4     5    1
     9     4    10    2
    10     5     6    1
    11     6     7    1
    12     6     8    1
    13     6     9    1
    14    11    12    1
    15    11    16    2
    16    12    13    1
    17    13    14    1
    18    13    15    1
    19    17    18   ar
    20    17    22   ar
    21    18    19   ar
    22    19    20   ar
    23    19    24    1
    24    20    21   ar
    25    20    23    1
    26    21    22   ar
    27    24    25    1
    28    25    26    1
    29    27    28    1
    30    27    33    2
    31    28    29    1
    32    29    30    1
    33    29    31    1
    34    29    32    1
