@<TRIPOS>MOLECULE
25011_ChemDiv_6502-0187
 24 27 0 0 0
SMALL
GASTEIGER
Energy = 0

@<TRIPOS>ATOM
      1 N           0.4670   -1.1710    0.0000 N.ar    1  LIG1       -0.3190
      2 C           1.1080   -1.9920    0.0000 C.ar    1  LIG1       -0.0284
      3 N           0.5630   -2.8500    0.0000 N.ar    1  LIG1       -0.2544
      4 C          -0.3040   -2.6000    0.0000 C.ar    1  LIG1        0.1489
      5 C          -0.3790   -1.5210    0.0000 C.ar    1  LIG1        0.1656
      6 N          -1.2670   -1.0630    0.0000 N.ar    1  LIG1       -0.2049
      7 C          -2.1170   -1.6210    0.0000 C.ar    1  LIG1        0.2016
      8 N          -2.0670   -2.6750    0.0000 N.ar    1  LIG1       -0.2040
      9 C          -1.1080   -3.1420    0.0000 C.ar    1  LIG1        0.1918
     10 N          -1.0460   -4.1040    0.0000 N.pl3   1  LIG1       -0.1054
     11 S           2.1130   -1.9460    0.0000 S.3     1  LIG1       -0.7209
     12 C           1.1710   -0.4670    0.0000 C.3     1  LIG1        0.1538
     13 C           0.9130    0.5000    0.0000 C.3     1  LIG1        0.2298
     14 O           1.6080    1.2130    0.0000 O.3     1  LIG1       -0.4734
     15 C           1.3500    2.1750    0.0000 C.ar    1  LIG1        0.1385
     16 C           0.3790    2.4420    0.0000 C.ar    1  LIG1        0.0340
     17 C           0.1210    3.4080    0.0000 C.ar    1  LIG1        0.0029
     18 C           0.8380    4.1040    0.0000 C.ar    1  LIG1        0.0002
     19 C           1.7920    3.8420    0.0000 C.ar    1  LIG1        0.0031
     20 C           2.0500    2.8880    0.0000 C.ar    1  LIG1        0.0369
     21 C          -0.8420    3.6540    0.0000 C.ar    1  LIG1        0.0001
     22 C          -1.5500    2.9630    0.0000 C.ar    1  LIG1        0.0000
     23 C          -1.2920    1.9880    0.0000 C.ar    1  LIG1        0.0001
     24 C          -0.3250    1.7290    0.0000 C.ar    1  LIG1        0.0030
@<TRIPOS>BOND
     1     1     2   ar
     2     1     5   ar
     3     1    12    1
     4     2     3   ar
     5     2    11    1
     6     3     4   ar
     7     4     5   ar
     8     4     9   ar
     9     5     6   ar
    10     6     7   ar
    11     7     8   ar
    12     8     9   ar
    13     9    10    1
    14    12    13    1
    15    13    14    1
    16    14    15    1
    17    15    16   ar
    18    15    20   ar
    19    16    17   ar
    20    16    24   ar
    21    17    18   ar
    22    17    21   ar
    23    18    19   ar
    24    19    20   ar
    25    21    22   ar
    26    22    23   ar
    27    23    24   ar
