@<TRIPOS>MOLECULE
25018_ChemDiv_8008-6749
 27 29 0 0 0
SMALL
GASTEIGER
Energy = 0

@<TRIPOS>ATOM
      1 C          -3.9210   -0.3380    0.0000 C.3     1  LIG1        0.0457
      2 C          -2.3330    0.3790    0.0000 C.3     1  LIG1        0.0387
      3 C          -0.0460    0.3790    0.0000 C.3     1  LIG1        0.1078
      4 C          -1.6830   -0.3380    0.0000 C.3     1  LIG1        0.0387
      5 C          -1.6830   -1.1130    0.0000 C.ar    1  LIG1       -0.0216
      6 C          -2.4000   -1.5380    0.0000 C.ar    1  LIG1       -0.0043
      7 C          -2.4000   -2.3130    0.0000 C.ar    1  LIG1       -0.0003
      8 C          -1.6710   -2.7420    0.0000 C.ar    1  LIG1       -0.0000
      9 C          -1.0130   -2.3460    0.0000 C.ar    1  LIG1       -0.0003
     10 C          -1.0130   -1.5380    0.0000 C.ar    1  LIG1       -0.0043
     11 C          -0.0460   -0.6250    0.0000 C.2     1  LIG1        0.3171
     12 O          -0.7080   -0.9540    0.0000 O.2     1  LIG1       -0.2501
     13 O           0.7380   -0.9540    0.0000 O.3     1  LIG1       -0.4485
     14 C           1.5380   -0.6080    0.0000 C.3     1  LIG1        0.2084
     15 C           2.3290   -1.0210    0.0000 C.3     1  LIG1        0.0474
     16 C           3.1000   -0.6080    0.0000 C.3     1  LIG1        0.0038
     17 C           3.9290   -1.0580    0.0000 C.3     1  LIG1        0.0001
     18 C           4.6920   -0.6080    0.0000 C.3     1  LIG1        0.0000
     19 C          -2.3330    1.0960    0.0000 C.ar    1  LIG1       -0.0216
     20 C          -3.0880    1.5080    0.0000 C.ar    1  LIG1       -0.0043
     21 C          -3.0880    2.3330    0.0000 C.ar    1  LIG1       -0.0003
     22 C          -2.3580    2.7460    0.0000 C.ar    1  LIG1       -0.0000
     23 C          -1.6170    2.3330    0.0000 C.ar    1  LIG1       -0.0003
     24 C          -1.6170    1.5080    0.0000 C.ar    1  LIG1       -0.0043
     25 C          -3.9210   -1.1130    0.0000 C.2     1  LIG1        0.0506
     26 O          -3.1290   -1.5080    0.0000 O.co2   1  LIG1       -0.5492
     27 O          -4.6960   -1.5380    0.0000 O.co2   1  LIG1       -0.5492
@<TRIPOS>BOND
     1     1     2    1
     2     1     4    1
     3     1    25    1
     4     2     3    1
     5     2    19    1
     6     3     4    1
     7     3    11    1
     8     4     5    1
     9     5     6   ar
    10     5    10   ar
    11     6     7   ar
    12     7     8   ar
    13     8     9   ar
    14     9    10   ar
    15    11    12    2
    16    11    13    1
    17    13    14    1
    18    14    15    1
    19    15    16    1
    20    16    17    1
    21    17    18    1
    22    19    20   ar
    23    19    24   ar
    24    20    21   ar
    25    21    22   ar
    26    22    23   ar
    27    23    24   ar
    28    25    26   ar
    29    25    27   ar
