@<TRIPOS>MOLECULE
25015_ChemDiv_7282-5815
 18 19 0 0 0
SMALL
GASTEIGER
Energy = 0

@<TRIPOS>ATOM
      1 C          -2.1830    2.2420    0.0000 C.ar    1  LIG1        0.1517
      2 N          -1.2250    2.5460    0.0000 N.ar    1  LIG1       -0.2193
      3 C          -0.6420    1.7330    0.0000 C.ar    1  LIG1        0.1800
      4 N          -1.2250    0.9290    0.0000 N.ar    1  LIG1       -0.2880
      5 C          -2.1830    1.2420    0.0000 C.ar    1  LIG1        0.1676
      6 N          -3.0460    0.7420    0.0000 N.ar    1  LIG1       -0.2048
      7 C          -3.9080    1.2420    0.0000 C.ar    1  LIG1        0.2016
      8 N          -3.9080    2.2420    0.0000 N.ar    1  LIG1       -0.2040
      9 C          -3.0460    2.7420    0.0000 C.ar    1  LIG1        0.1919
     10 N          -3.0460    3.7420    0.0000 N.pl3   1  LIG1       -0.1054
     11 C          -0.9250   -0.0250    0.0000 C.3     1  LIG1        0.1776
     12 C           0.0540   -0.2380    0.0000 C.3     1  LIG1        0.2255
     13 N           0.3630   -1.1920    0.0000 N.4     1  LIG1        0.4498
     14 C           1.3330   -1.4040    0.0000 C.3     1  LIG1        0.2033
     15 C           1.6460   -2.3580    0.0000 C.3     1  LIG1        0.1008
     16 C           2.6210   -2.5710    0.0000 C.3     1  LIG1        0.1487
     17 O           2.9250   -3.5250    0.0000 O.3     1  LIG1       -0.3509
     18 C           3.9040   -3.7380    0.0000 C.3     1  LIG1        0.1741
@<TRIPOS>BOND
     1     1     2   ar
     2     1     5   ar
     3     1     9   ar
     4     2     3   ar
     5     3     4   ar
     6     4     5   ar
     7     4    11    1
     8     5     6   ar
     9     6     7   ar
    10     7     8   ar
    11     8     9   ar
    12     9    10    1
    13    11    12    1
    14    12    13    1
    15    13    14    1
    16    14    15    1
    17    15    16    1
    18    16    17    1
    19    17    18    1
