@<TRIPOS>MOLECULE
25021_ChemDiv_D058-0052
 26 28 0 0 0
SMALL
GASTEIGER
Energy = 0

@<TRIPOS>ATOM
      1 C          -0.3420   -1.1250    0.0000 C.ar    1  LIG1        0.1729
      2 N          -0.9460   -0.2790    0.0000 N.ar    1  LIG1       -0.2879
      3 C          -1.8080   -0.5750    0.0000 C.ar    1  LIG1        0.1678
      4 C          -1.7830   -1.6670    0.0000 C.ar    1  LIG1        0.1521
      5 N          -0.9290   -1.9460    0.0000 N.ar    1  LIG1       -0.2165
      6 C          -2.6170   -2.1710    0.0000 C.ar    1  LIG1        0.1919
      7 N          -3.5500   -1.6420    0.0000 N.ar    1  LIG1       -0.2040
      8 C          -3.5540   -0.5960    0.0000 C.ar    1  LIG1        0.2016
      9 N          -2.6790   -0.0830    0.0000 N.ar    1  LIG1       -0.2048
     10 N          -2.6000   -3.1250    0.0000 N.pl3   1  LIG1       -0.1054
     11 C          -0.6420    0.6750    0.0000 C.3     1  LIG1        0.1566
     12 C           0.3250    0.8880    0.0000 C.3     1  LIG1        0.2298
     13 O           0.6290    1.8420    0.0000 O.3     1  LIG1       -0.4737
     14 C           1.6080    2.0540    0.0000 C.ar    1  LIG1        0.1346
     15 C           1.9000    3.0080    0.0000 C.ar    1  LIG1        0.0121
     16 C           1.2210    3.7330    0.0000 C.3     1  LIG1        0.0342
     17 C           2.8710    3.2210    0.0000 C.ar    1  LIG1       -0.0013
     18 C           3.5500    2.4830    0.0000 C.ar    1  LIG1       -0.0001
     19 C           3.2500    1.5290    0.0000 C.ar    1  LIG1        0.0031
     20 C           2.2790    1.3170    0.0000 C.ar    1  LIG1        0.0366
     21 S           0.6580   -1.1250    0.0000 S.3     1  LIG1       -0.0725
     22 C           1.1580   -1.9880    0.0000 C.3     1  LIG1        0.0910
     23 C           0.6540   -2.8630    0.0000 C.2     1  LIG1        0.0605
     24 O           1.1540   -3.7290    0.0000 O.co2   1  LIG1       -0.5483
     25 O          -0.3460   -2.8630    0.0000 O.co2   1  LIG1       -0.5483
     26 C           2.1580   -1.9880    0.0000 C.3     1  LIG1        0.0181
@<TRIPOS>BOND
     1     1     2   ar
     2     1     5   ar
     3     1    21    1
     4     2     3   ar
     5     2    11    1
     6     3     4   ar
     7     3     9   ar
     8     4     5   ar
     9     4     6   ar
    10     6     7   ar
    11     6    10    1
    12     7     8   ar
    13     8     9   ar
    14    11    12    1
    15    12    13    1
    16    13    14    1
    17    14    15   ar
    18    14    20   ar
    19    15    16    1
    20    15    17   ar
    21    17    18   ar
    22    18    19   ar
    23    19    20   ar
    24    21    22    1
    25    22    23    1
    26    22    26    1
    27    23    24   ar
    28    23    25   ar
