@<TRIPOS>MOLECULE
25020_ChemDiv_8008-8584
 26 28 0 0 0
SMALL
GASTEIGER
Energy = 0

@<TRIPOS>ATOM
      1 C           0.8000    0.3630    0.0000 C.3     1  LIG1        0.1078
      2 C          -0.8750   -0.3630    0.0000 C.3     1  LIG1        0.0387
      3 C          -3.0830   -0.3750    0.0000 C.3     1  LIG1        0.0457
      4 C          -1.5080    0.3630    0.0000 C.3     1  LIG1        0.0387
      5 C          -1.5080    1.0830    0.0000 C.ar    1  LIG1       -0.0216
      6 C          -0.7880    1.5040    0.0000 C.ar    1  LIG1       -0.0043
      7 C          -0.7880    2.3290    0.0000 C.ar    1  LIG1       -0.0003
      8 C          -1.5330    2.7540    0.0000 C.ar    1  LIG1       -0.0000
      9 C          -2.2790    2.3290    0.0000 C.ar    1  LIG1       -0.0003
     10 C          -2.2790    1.5040    0.0000 C.ar    1  LIG1       -0.0043
     11 C          -3.0830   -1.1420    0.0000 C.2     1  LIG1        0.0506
     12 O          -2.3170   -1.5460    0.0000 O.co2   1  LIG1       -0.5492
     13 O          -3.8880   -1.5830    0.0000 O.co2   1  LIG1       -0.5492
     14 C          -0.8750   -1.1710    0.0000 C.ar    1  LIG1       -0.0216
     15 C          -0.1920   -1.5830    0.0000 C.ar    1  LIG1       -0.0043
     16 C          -0.1920   -2.3830    0.0000 C.ar    1  LIG1       -0.0003
     17 C          -0.8750   -2.7500    0.0000 C.ar    1  LIG1       -0.0000
     18 C          -1.5710   -2.3630    0.0000 C.ar    1  LIG1       -0.0003
     19 C          -1.5710   -1.5830    0.0000 C.ar    1  LIG1       -0.0043
     20 C           0.8000   -0.6500    0.0000 C.2     1  LIG1        0.3175
     21 O           1.5920   -0.9880    0.0000 O.3     1  LIG1       -0.4422
     22 C           2.3630   -0.6380    0.0000 C.3     1  LIG1        0.2499
     23 C           3.1630   -1.0130    0.0000 C.2     1  LIG1        0.0941
     24 O           3.1630   -1.8250    0.0000 O.co2   1  LIG1       -0.5454
     25 O           3.8830   -0.6380    0.0000 O.co2   1  LIG1       -0.5454
     26 O           0.1210   -0.9880    0.0000 O.2     1  LIG1       -0.2501
@<TRIPOS>BOND
     1     1     2    1
     2     1     4    1
     3     1    20    1
     4     2     3    1
     5     2    14    1
     6     3     4    1
     7     3    11    1
     8     4     5    1
     9     5     6   ar
    10     5    10   ar
    11     6     7   ar
    12     7     8   ar
    13     8     9   ar
    14     9    10   ar
    15    11    12   ar
    16    11    13   ar
    17    14    15   ar
    18    14    19   ar
    19    15    16   ar
    20    16    17   ar
    21    17    18   ar
    22    18    19   ar
    23    20    21    1
    24    20    26    2
    25    21    22    1
    26    22    23    1
    27    23    24   ar
    28    23    25   ar
