@<TRIPOS>MOLECULE
25024_ChemDiv_8010-2300
 24 25 0 0 0
SMALL
GASTEIGER
Energy = 0

@<TRIPOS>ATOM
      1 C           0.4790   -0.2380    0.0000 C.3     1  LIG1        0.2017
      2 C          -0.3670    0.2420    0.0000 C.3     1  LIG1        0.0510
      3 C          -1.2290   -0.2380    0.0000 C.3     1  LIG1        0.0699
      4 C          -2.0750    0.2420    0.0000 C.2     1  LIG1        0.1506
      5 C          -2.9210   -0.2380    0.0000 C.3     1  LIG1        0.0577
      6 C          -3.8880    0.0170    0.0000 C.3     1  LIG1        0.0078
      7 C          -3.1830   -1.1920    0.0000 C.3     1  LIG1        0.0078
      8 O          -2.0750    1.2290    0.0000 O.2     1  LIG1       -0.2961
      9 C          -0.3670    1.2290    0.0000 C.ar    1  LIG1       -0.0210
     10 C          -1.2290    1.7170    0.0000 C.ar    1  LIG1       -0.0042
     11 C          -1.2290    2.7080    0.0000 C.ar    1  LIG1       -0.0003
     12 C          -0.3670    3.2000    0.0000 C.ar    1  LIG1       -0.0000
     13 C           0.4790    2.7080    0.0000 C.ar    1  LIG1       -0.0003
     14 C           0.4790    1.7170    0.0000 C.ar    1  LIG1       -0.0042
     15 C           0.4790   -1.2290    0.0000 C.2     1  LIG1        0.3277
     16 O           1.3290   -1.7170    0.0000 O.2     1  LIG1       -0.2495
     17 O          -0.3670   -1.7170    0.0000 O.3     1  LIG1       -0.4481
     18 C          -0.3790   -2.7040    0.0000 C.3     1  LIG1        0.2086
     19 C          -1.2420   -3.1960    0.0000 C.3     1  LIG1        0.0513
     20 C           1.3290    0.2420    0.0000 C.2     1  LIG1        0.3277
     21 O           1.3290    1.2290    0.0000 O.2     1  LIG1       -0.2495
     22 O           2.1750   -0.2380    0.0000 O.3     1  LIG1       -0.4481
     23 C           3.0210    0.2420    0.0000 C.3     1  LIG1        0.2086
     24 C           3.8830   -0.2250    0.0000 C.3     1  LIG1        0.0513
@<TRIPOS>BOND
     1     1     2    1
     2     1    15    1
     3     1    20    1
     4     2     3    1
     5     2     9    1
     6     3     4    1
     7     4     5    1
     8     4     8    2
     9     5     6    1
    10     5     7    1
    11     6     7    1
    12     9    10   ar
    13     9    14   ar
    14    10    11   ar
    15    11    12   ar
    16    12    13   ar
    17    13    14   ar
    18    15    16    2
    19    15    17    1
    20    17    18    1
    21    18    19    1
    22    20    21    2
    23    20    22    1
    24    22    23    1
    25    23    24    1
