@<TRIPOS>MOLECULE
25023_ChemDiv_D058-0053
 32 35 0 0 0
SMALL
GASTEIGER
Energy = 0

@<TRIPOS>ATOM
      1 N          -2.2670   -0.3250    0.0000 N.ar    1  LIG1       -0.2880
      2 C          -1.6630   -1.1710    0.0000 C.ar    1  LIG1        0.1727
      3 N          -2.2500   -1.9920    0.0000 N.ar    1  LIG1       -0.2165
      4 C          -3.1000   -1.7130    0.0000 C.ar    1  LIG1        0.1521
      5 C          -3.1210   -0.6210    0.0000 C.ar    1  LIG1        0.1678
      6 N          -3.9960   -0.1250    0.0000 N.ar    1  LIG1       -0.2048
      7 C          -4.8750   -0.6420    0.0000 C.ar    1  LIG1        0.2016
      8 N          -4.8750   -1.6880    0.0000 N.ar    1  LIG1       -0.2040
      9 C          -3.9330   -2.2170    0.0000 C.ar    1  LIG1        0.1919
     10 N          -3.9210   -3.1710    0.0000 N.pl3   1  LIG1       -0.1054
     11 S          -0.6630   -1.1710    0.0000 S.3     1  LIG1       -0.0734
     12 C           0.2040   -1.6710    0.0000 C.3     1  LIG1        0.1123
     13 C           1.0670   -1.1710    0.0000 C.3     1  LIG1        0.2174
     14 O           1.9290   -1.6670    0.0000 O.3     1  LIG1       -0.4745
     15 C           2.7920   -1.1670    0.0000 C.ar    1  LIG1        0.1386
     16 C           3.6580   -1.6670    0.0000 C.ar    1  LIG1        0.0369
     17 C           4.5210   -1.1670    0.0000 C.ar    1  LIG1        0.0031
     18 C           4.5210   -0.1670    0.0000 C.ar    1  LIG1        0.0002
     19 C           3.6500    0.3290    0.0000 C.ar    1  LIG1        0.0031
     20 C           2.7920   -0.1710    0.0000 C.ar    1  LIG1        0.0369
     21 C          -1.9630    0.6290    0.0000 C.3     1  LIG1        0.1566
     22 C          -0.9830    0.8420    0.0000 C.3     1  LIG1        0.2299
     23 O          -0.6830    1.7960    0.0000 O.3     1  LIG1       -0.4734
     24 C           0.2920    2.0080    0.0000 C.ar    1  LIG1        0.1388
     25 C           0.9580    1.2670    0.0000 C.ar    1  LIG1        0.0400
     26 C           1.9420    1.4830    0.0000 C.ar    1  LIG1        0.0400
     27 C           2.2420    2.4380    0.0000 C.ar    1  LIG1        0.1388
     28 C           1.5630    3.1750    0.0000 C.ar    1  LIG1        0.0400
     29 C           0.5790    2.9630    0.0000 C.ar    1  LIG1        0.0400
     30 O           3.2170    2.6630    0.0000 O.3     1  LIG1       -0.4755
     31 C           3.8960    1.9170    0.0000 C.3     1  LIG1        0.2055
     32 C           4.8710    2.1380    0.0000 C.3     1  LIG1        0.0512
@<TRIPOS>BOND
     1     1     2   ar
     2     1     5   ar
     3     1    21    1
     4     2     3   ar
     5     2    11    1
     6     3     4   ar
     7     4     5   ar
     8     4     9   ar
     9     5     6   ar
    10     6     7   ar
    11     7     8   ar
    12     8     9   ar
    13     9    10    1
    14    11    12    1
    15    12    13    1
    16    13    14    1
    17    14    15    1
    18    15    16   ar
    19    15    20   ar
    20    16    17   ar
    21    17    18   ar
    22    18    19   ar
    23    19    20   ar
    24    21    22    1
    25    22    23    1
    26    23    24    1
    27    24    25   ar
    28    24    29   ar
    29    25    26   ar
    30    26    27   ar
    31    27    28   ar
    32    27    30    1
    33    28    29   ar
    34    30    31    1
    35    31    32    1
