@<TRIPOS>MOLECULE
25039_ChemDiv_0627-0420
 33 37 0 0 0
SMALL
GASTEIGER
Energy = 0

@<TRIPOS>ATOM
      1 N          -0.6040   -0.0960    0.0000 N.ar    1  LIG1       -0.2250
      2 C          -0.1880   -1.0380    0.0000 C.ar    1  LIG1        0.1623
      3 N          -0.9170   -1.6670    0.0000 N.ar    1  LIG1       -0.2251
      4 C          -1.7920   -1.1750    0.0000 C.ar    1  LIG1        0.1007
      5 C          -1.5670   -0.2130    0.0000 C.ar    1  LIG1        0.1019
      6 C          -2.2880    0.4630    0.0000 C.ar    1  LIG1        0.0373
      7 C          -3.2290    0.1540    0.0000 C.ar    1  LIG1        0.0753
      8 N          -4.0000    0.7960    0.0000 N.am    1  LIG1       -0.1754
      9 C          -4.9250    0.5330    0.0000 C.2     1  LIG1        0.2690
     10 O          -5.1540   -0.4290    0.0000 O.2     1  LIG1       -0.2680
     11 C          -5.6500    1.2040    0.0000 C.ar    1  LIG1        0.0554
     12 C          -5.4330    2.1670    0.0000 C.ar    1  LIG1        0.0046
     13 C          -6.1460    2.8830    0.0000 C.ar    1  LIG1        0.0001
     14 C          -7.1080    2.6040    0.0000 C.ar    1  LIG1        0.0000
     15 C          -7.3540    1.6080    0.0000 C.ar    1  LIG1        0.0001
     16 C          -6.6210    0.9080    0.0000 C.ar    1  LIG1        0.0046
     17 C          -3.4790   -0.7580    0.0000 C.ar    1  LIG1        0.0183
     18 C          -2.7380   -1.4750    0.0000 C.ar    1  LIG1        0.0220
     19 C           0.7630   -1.3040    0.0000 C.ar    1  LIG1        0.0359
     20 C           1.0540   -2.2500    0.0000 C.ar    1  LIG1        0.0044
     21 C           2.0040   -2.5080    0.0000 C.ar    1  LIG1        0.0167
     22 C           2.7040   -1.8080    0.0000 C.ar    1  LIG1        0.0737
     23 N           3.7040   -2.0330    0.0000 N.am    1  LIG1       -0.1754
     24 C           4.4170   -1.3330    0.0000 C.2     1  LIG1        0.2690
     25 O           4.1540   -0.3790    0.0000 O.2     1  LIG1       -0.2680
     26 C           5.3830   -1.6130    0.0000 C.ar    1  LIG1        0.0554
     27 C           6.1170   -0.9130    0.0000 C.ar    1  LIG1        0.0046
     28 C           7.1000   -1.1960    0.0000 C.ar    1  LIG1        0.0001
     29 C           7.3540   -2.1750    0.0000 C.ar    1  LIG1        0.0000
     30 C           6.6080   -2.8790    0.0000 C.ar    1  LIG1        0.0001
     31 C           5.6460   -2.5750    0.0000 C.ar    1  LIG1        0.0046
     32 C           2.4790   -0.8500    0.0000 C.ar    1  LIG1        0.0167
     33 C           1.4630   -0.5880    0.0000 C.ar    1  LIG1        0.0044
@<TRIPOS>BOND
     1     1     2   ar
     2     1     5   ar
     3     2     3   ar
     4     2    19    1
     5     3     4   ar
     6     4     5   ar
     7     4    18   ar
     8     5     6   ar
     9     6     7   ar
    10     7     8    1
    11     7    17   ar
    12     8     9   am
    13     9    10    2
    14     9    11    1
    15    11    12   ar
    16    11    16   ar
    17    12    13   ar
    18    13    14   ar
    19    14    15   ar
    20    15    16   ar
    21    17    18   ar
    22    19    20   ar
    23    19    33   ar
    24    20    21   ar
    25    21    22   ar
    26    22    23    1
    27    22    32   ar
    28    23    24   am
    29    24    25    2
    30    24    26    1
    31    26    27   ar
    32    26    31   ar
    33    27    28   ar
    34    28    29   ar
    35    29    30   ar
    36    30    31   ar
    37    32    33   ar
