@<TRIPOS>MOLECULE
25031_ChemDiv_0263-0416
 17 19 0 0 0
SMALL
GASTEIGER
Energy = 0

@<TRIPOS>ATOM
      1 N          -0.9540    0.3130    0.0000 N.ar    1  LIG1       -0.2242
      2 C          -0.3880   -0.5080    0.0000 C.ar    1  LIG1        0.1623
      3 N          -0.9540   -1.3210    0.0000 N.ar    1  LIG1       -0.2251
      4 C          -1.8960   -1.0000    0.0000 C.ar    1  LIG1        0.1014
      5 C          -1.8960    0.0000    0.0000 C.ar    1  LIG1        0.1111
      6 C          -2.7540    0.5130    0.0000 C.ar    1  LIG1        0.0768
      7 CL         -2.7540    1.5170    0.0000 Cl      1  LIG1       -0.0806
      8 C          -3.6130    0.0330    0.0000 C.ar    1  LIG1        0.0130
      9 C          -3.6130   -1.0330    0.0000 C.ar    1  LIG1        0.0025
     10 C          -2.7540   -1.5130    0.0000 C.ar    1  LIG1        0.0207
     11 C           0.6130   -0.4290    0.0000 C.ar    1  LIG1        0.0359
     12 C           1.0670    0.4540    0.0000 C.ar    1  LIG1        0.0044
     13 C           2.0380    0.5130    0.0000 C.ar    1  LIG1        0.0182
     14 C           2.6000   -0.3170    0.0000 C.ar    1  LIG1        0.0891
     15 N           3.6080   -0.3170    0.0000 N.pl3   1  LIG1       -0.1281
     16 C           2.1500   -1.2250    0.0000 C.ar    1  LIG1        0.0182
     17 C           1.1830   -1.2880    0.0000 C.ar    1  LIG1        0.0044
@<TRIPOS>BOND
     1     1     2   ar
     2     1     5   ar
     3     2     3   ar
     4     2    11    1
     5     3     4   ar
     6     4     5   ar
     7     4    10   ar
     8     5     6   ar
     9     6     7    1
    10     6     8   ar
    11     8     9   ar
    12     9    10   ar
    13    11    12   ar
    14    11    17   ar
    15    12    13   ar
    16    13    14   ar
    17    14    15    1
    18    14    16   ar
    19    16    17   ar
