@<TRIPOS>MOLECULE
25033_ChemDiv_0375-0590
 18 20 0 0 0
SMALL
GASTEIGER
Energy = 0

@<TRIPOS>ATOM
      1 N          -0.4750    0.2960    0.0000 N.ar    1  LIG1       -0.2242
      2 C           0.0880   -0.4580    0.0000 C.ar    1  LIG1        0.1623
      3 N          -0.4750   -1.3000    0.0000 N.ar    1  LIG1       -0.2250
      4 C          -1.4330   -0.9960    0.0000 C.ar    1  LIG1        0.1023
      5 C          -1.4330    0.0170    0.0000 C.ar    1  LIG1        0.1111
      6 C          -2.3000    0.4920    0.0000 C.ar    1  LIG1        0.0776
      7 C          -3.1710    0.0170    0.0000 C.ar    1  LIG1        0.0244
      8 C          -3.1710   -0.9960    0.0000 C.ar    1  LIG1        0.0601
      9 C          -2.3000   -1.5040    0.0000 C.ar    1  LIG1        0.0321
     10 CL         -4.0500   -1.5040    0.0000 Cl      1  LIG1       -0.0822
     11 CL         -2.3000    1.5080    0.0000 Cl      1  LIG1       -0.0806
     12 C           1.0630   -0.4040    0.0000 C.ar    1  LIG1        0.0359
     13 C           1.5170    0.4630    0.0000 C.ar    1  LIG1        0.0044
     14 C           2.5290    0.5500    0.0000 C.ar    1  LIG1        0.0182
     15 C           3.0630   -0.3170    0.0000 C.ar    1  LIG1        0.0891
     16 N           4.0460   -0.3170    0.0000 N.pl3   1  LIG1       -0.1281
     17 C           2.5880   -1.2250    0.0000 C.ar    1  LIG1        0.0182
     18 C           1.6040   -1.2500    0.0000 C.ar    1  LIG1        0.0044
@<TRIPOS>BOND
     1     1     2   ar
     2     1     5   ar
     3     2     3   ar
     4     2    12    1
     5     3     4   ar
     6     4     5   ar
     7     4     9   ar
     8     5     6   ar
     9     6     7   ar
    10     6    11    1
    11     7     8   ar
    12     8     9   ar
    13     8    10    1
    14    12    13   ar
    15    12    18   ar
    16    13    14   ar
    17    14    15   ar
    18    15    16    1
    19    15    17   ar
    20    17    18   ar
