@<TRIPOS>MOLECULE
25043_ChemDiv_D058-0263
 21 23 0 0 0
SMALL
GASTEIGER
Energy = 0

@<TRIPOS>ATOM
      1 N          -2.1080    1.1040    0.0000 N.ar    1  LIG1       -0.2004
      2 C          -2.9540    0.7750    0.0000 C.ar    1  LIG1        0.1866
      3 C          -2.9080   -0.3000    0.0000 C.ar    1  LIG1        0.1538
      4 N          -2.0420   -0.5710    0.0000 N.ar    1  LIG1       -0.2151
      5 C          -1.4750    0.2750    0.0000 C.ar    1  LIG1        0.1917
      6 S          -0.4710    0.2880    0.0000 S.3     1  LIG1       -0.0717
      7 C           0.3920   -0.1960    0.0000 C.3     1  LIG1        0.1124
      8 C           1.2540    0.3040    0.0000 C.3     1  LIG1        0.2176
      9 O           2.1170   -0.1960    0.0000 O.3     1  LIG1       -0.4722
     10 C           2.9750    0.3040    0.0000 C.ar    1  LIG1        0.1658
     11 C           3.8380   -0.1960    0.0000 C.ar    1  LIG1        0.1738
     12 F           3.8380   -1.1920    0.0000 F       1  LIG1       -0.2010
     13 C           4.7000    0.3040    0.0000 C.ar    1  LIG1        0.0328
     14 C           4.6960    1.3040    0.0000 C.ar    1  LIG1        0.0025
     15 C           3.8250    1.8000    0.0000 C.ar    1  LIG1        0.0033
     16 C           2.9710    1.3040    0.0000 C.ar    1  LIG1        0.0392
     17 C          -3.7210   -0.8290    0.0000 C.ar    1  LIG1        0.1919
     18 N          -4.6630   -0.3460    0.0000 N.ar    1  LIG1       -0.2040
     19 C          -4.7040    0.7130    0.0000 C.ar    1  LIG1        0.2016
     20 N          -3.8420    1.2580    0.0000 N.ar    1  LIG1       -0.2031
     21 N          -3.6750   -1.7960    0.0000 N.pl3   1  LIG1       -0.1054
@<TRIPOS>BOND
     1     1     2   ar
     2     1     5   ar
     3     2     3   ar
     4     2    20   ar
     5     3     4   ar
     6     3    17   ar
     7     4     5   ar
     8     5     6    1
     9     6     7    1
    10     7     8    1
    11     8     9    1
    12     9    10    1
    13    10    11   ar
    14    10    16   ar
    15    11    12    1
    16    11    13   ar
    17    13    14   ar
    18    14    15   ar
    19    15    16   ar
    20    17    18   ar
    21    17    21    1
    22    18    19   ar
    23    19    20   ar
