@<TRIPOS>MOLECULE
25046_ChemDiv_8011-8867
 31 33 0 0 0
SMALL
GASTEIGER
Energy = 0

@<TRIPOS>ATOM
      1 C           1.2750    1.2960    0.0000 C.3     1  LIG1        0.1890
      2 C           1.2750   -0.1330    0.0000 C.3     1  LIG1        0.0798
      3 C           0.1080    0.4880    0.0000 C.3     1  LIG1        0.0510
      4 C          -0.7670    0.4880    0.0000 C.ar    1  LIG1       -0.0178
      5 C          -1.2330   -0.3380    0.0000 C.ar    1  LIG1        0.0358
      6 C          -2.1540   -0.3380    0.0000 C.ar    1  LIG1        0.1721
      7 C          -2.6500    0.4710    0.0000 C.ar    1  LIG1        0.1724
      8 C          -2.2210    1.3130    0.0000 C.ar    1  LIG1        0.0397
      9 C          -1.2670    1.3130    0.0000 C.ar    1  LIG1       -0.0009
     10 O          -3.5080    0.4710    0.0000 O.3     1  LIG1       -0.4684
     11 C          -3.9960    1.3380    0.0000 C.3     1  LIG1        0.2526
     12 O          -2.6250   -1.1460    0.0000 O.3     1  LIG1       -0.4684
     13 C          -3.5960   -1.1460    0.0000 C.3     1  LIG1        0.2526
     14 C           1.2750   -1.0000    0.0000 C.2     1  LIG1        0.1736
     15 O           2.1380   -1.4960    0.0000 O.2     1  LIG1       -0.2913
     16 C           0.4750   -1.4710    0.0000 C.ar    1  LIG1        0.0347
     17 C          -0.3210   -1.0210    0.0000 C.ar    1  LIG1        0.0028
     18 C          -1.1130   -1.4880    0.0000 C.ar    1  LIG1        0.0001
     19 C          -1.1130   -2.4080    0.0000 C.ar    1  LIG1        0.0000
     20 C          -0.3330   -2.8750    0.0000 C.ar    1  LIG1        0.0001
     21 C           0.4670   -2.4080    0.0000 C.ar    1  LIG1        0.0028
     22 C           2.1380   -0.6250    0.0000 C.3     1  LIG1        0.0087
     23 C           2.9460   -0.1330    0.0000 C.3     1  LIG1        0.0005
     24 C           2.1630    1.8500    0.0000 C.2     1  LIG1        0.3271
     25 O           2.1630    2.8790    0.0000 O.2     1  LIG1       -0.2495
     26 O           3.0710    1.2670    0.0000 O.3     1  LIG1       -0.4440
     27 C           3.9920    1.8500    0.0000 C.3     1  LIG1        0.2556
     28 C           0.3290    1.9080    0.0000 C.2     1  LIG1        0.3271
     29 O           0.3290    2.8540    0.0000 O.2     1  LIG1       -0.2495
     30 O          -0.5420    1.4130    0.0000 O.3     1  LIG1       -0.4440
     31 C          -1.3460    1.9170    0.0000 C.3     1  LIG1        0.2556
@<TRIPOS>BOND
     1     1     2    1
     2     1     3    1
     3     1    24    1
     4     1    28    1
     5     2     3    1
     6     2    14    1
     7     2    22    1
     8     3     4    1
     9     4     5   ar
    10     4     9   ar
    11     5     6   ar
    12     6     7   ar
    13     6    12    1
    14     7     8   ar
    15     7    10    1
    16     8     9   ar
    17    10    11    1
    18    12    13    1
    19    14    15    2
    20    14    16    1
    21    16    17   ar
    22    16    21   ar
    23    17    18   ar
    24    18    19   ar
    25    19    20   ar
    26    20    21   ar
    27    22    23    1
    28    24    25    2
    29    24    26    1
    30    26    27    1
    31    28    29    2
    32    28    30    1
    33    30    31    1
