@<TRIPOS>MOLECULE
25042_ChemDiv_8011-1742
 28 30 0 0 0
SMALL
GASTEIGER
Energy = 0

@<TRIPOS>ATOM
      1 C          -0.1630    0.7000    0.0000 C.3     1  LIG1        0.1890
      2 C          -0.2790   -0.3420    0.0000 C.3     1  LIG1        0.0798
      3 C          -1.1130    0.2880    0.0000 C.3     1  LIG1        0.0509
      4 C          -2.1420    0.2880    0.0000 C.ar    1  LIG1       -0.0210
      5 C          -2.6630    1.1710    0.0000 C.ar    1  LIG1       -0.0042
      6 C          -3.7040    1.1710    0.0000 C.ar    1  LIG1       -0.0003
      7 C          -4.2250    0.2880    0.0000 C.ar    1  LIG1       -0.0000
      8 C          -3.7040   -0.6330    0.0000 C.ar    1  LIG1       -0.0003
      9 C          -2.6630   -0.6330    0.0000 C.ar    1  LIG1       -0.0042
     10 C           0.1540   -1.2670    0.0000 C.2     1  LIG1        0.1736
     11 C           1.1670   -1.3830    0.0000 C.ar    1  LIG1        0.0347
     12 C           1.7880   -0.5500    0.0000 C.ar    1  LIG1        0.0025
     13 C           2.8000   -0.6540    0.0000 C.ar    1  LIG1       -0.0042
     14 C           3.2330   -1.6130    0.0000 C.ar    1  LIG1       -0.0218
     15 C           2.6080   -2.4500    0.0000 C.ar    1  LIG1       -0.0042
     16 C           1.5960   -2.3290    0.0000 C.ar    1  LIG1        0.0025
     17 C           4.2210   -1.7210    0.0000 C.3     1  LIG1        0.0310
     18 O          -0.4710   -2.1000    0.0000 O.2     1  LIG1       -0.2913
     19 C          -1.1630   -0.8880    0.0000 C.3     1  LIG1        0.0087
     20 C          -0.9250   -1.5670    0.0000 C.3     1  LIG1        0.0005
     21 C          -0.1080    1.7380    0.0000 C.2     1  LIG1        0.3271
     22 O           0.4710    2.0420    0.0000 O.2     1  LIG1       -0.2495
     23 O          -0.9750    2.3000    0.0000 O.3     1  LIG1       -0.4440
     24 C          -1.9040    1.8040    0.0000 C.3     1  LIG1        0.2556
     25 C           0.7960    1.0710    0.0000 C.2     1  LIG1        0.3271
     26 O           1.3790    0.7380    0.0000 O.2     1  LIG1       -0.2495
     27 O           0.9750    2.0960    0.0000 O.3     1  LIG1       -0.4440
     28 C           1.9330    2.4540    0.0000 C.3     1  LIG1        0.2556
@<TRIPOS>BOND
     1     1     2    1
     2     1     3    1
     3     1    21    1
     4     1    25    1
     5     2     3    1
     6     2    10    1
     7     2    19    1
     8     3     4    1
     9     4     5   ar
    10     4     9   ar
    11     5     6   ar
    12     6     7   ar
    13     7     8   ar
    14     8     9   ar
    15    10    11    1
    16    10    18    2
    17    11    12   ar
    18    11    16   ar
    19    12    13   ar
    20    13    14   ar
    21    14    15   ar
    22    14    17    1
    23    15    16   ar
    24    19    20    1
    25    21    22    2
    26    21    23    1
    27    23    24    1
    28    25    26    2
    29    25    27    1
    30    27    28    1
