@<TRIPOS>MOLECULE
25041_ChemDiv_D058-0218
 36 40 0 0 0
SMALL
GASTEIGER
Energy = 0

@<TRIPOS>ATOM
      1 N          -2.0210   -0.8380    0.0000 N.ar    1  LIG1       -0.2879
      2 C          -1.4170   -1.6920    0.0000 C.ar    1  LIG1        0.1730
      3 N          -2.0210   -2.5040    0.0000 N.ar    1  LIG1       -0.2165
      4 C          -2.8670   -2.2080    0.0000 C.ar    1  LIG1        0.1521
      5 C          -2.8710   -1.1210    0.0000 C.ar    1  LIG1        0.1678
      6 N          -3.7420   -0.6080    0.0000 N.ar    1  LIG1       -0.2048
      7 C          -4.6170   -1.1210    0.0000 C.ar    1  LIG1        0.2016
      8 N          -4.6330   -2.1750    0.0000 N.ar    1  LIG1       -0.2040
      9 C          -3.7040   -2.7000    0.0000 C.ar    1  LIG1        0.1919
     10 N          -3.6960   -3.6580    0.0000 N.pl3   1  LIG1       -0.1054
     11 S          -0.4130   -1.6960    0.0000 S.3     1  LIG1       -0.0675
     12 C           0.0750   -2.5670    0.0000 C.3     1  LIG1        0.1500
     13 C           1.0710   -2.5830    0.0000 C.2     1  LIG1        0.2372
     14 N           1.5830   -1.7210    0.0000 N.am    1  LIG1       -0.2753
     15 C           2.5830   -1.7380    0.0000 C.3     1  LIG1        0.1148
     16 C           3.0960   -0.8670    0.0000 C.3     1  LIG1        0.1123
     17 N           2.6130    0.0000    0.0000 N.pl3   1  LIG1       -0.3041
     18 C           1.6000    0.0080    0.0000 C.3     1  LIG1        0.1123
     19 C           1.0880   -0.8500    0.0000 C.3     1  LIG1        0.1148
     20 C           3.1210    0.8580    0.0000 C.ar    1  LIG1        0.0479
     21 C           2.6250    1.7290    0.0000 C.ar    1  LIG1        0.0145
     22 C           3.1330    2.5920    0.0000 C.ar    1  LIG1        0.0013
     23 C           4.1380    2.5750    0.0000 C.ar    1  LIG1        0.0001
     24 C           4.6290    1.7170    0.0000 C.ar    1  LIG1        0.0013
     25 C           4.1210    0.8460    0.0000 C.ar    1  LIG1        0.0145
     26 O           1.5670   -3.4460    0.0000 O.2     1  LIG1       -0.2739
     27 C          -2.0210    0.1630    0.0000 C.3     1  LIG1        0.1566
     28 C          -1.1500    0.6630    0.0000 C.3     1  LIG1        0.2298
     29 O          -1.1500    1.6710    0.0000 O.3     1  LIG1       -0.4737
     30 C          -0.2880    2.1670    0.0000 C.ar    1  LIG1        0.1346
     31 C          -0.2920    3.1540    0.0000 C.ar    1  LIG1        0.0121
     32 C          -1.1630    3.6460    0.0000 C.3     1  LIG1        0.0342
     33 C           0.5580    3.6630    0.0000 C.ar    1  LIG1       -0.0013
     34 C           1.4330    3.1630    0.0000 C.ar    1  LIG1       -0.0001
     35 C           1.4330    2.1670    0.0000 C.ar    1  LIG1        0.0031
     36 C           0.5750    1.6710    0.0000 C.ar    1  LIG1        0.0366
@<TRIPOS>BOND
     1     1     2   ar
     2     1     5   ar
     3     1    27    1
     4     2     3   ar
     5     2    11    1
     6     3     4   ar
     7     4     5   ar
     8     4     9   ar
     9     5     6   ar
    10     6     7   ar
    11     7     8   ar
    12     8     9   ar
    13     9    10    1
    14    11    12    1
    15    12    13    1
    16    13    14   am
    17    13    26    2
    18    14    15    1
    19    14    19    1
    20    15    16    1
    21    16    17    1
    22    17    18    1
    23    17    20    1
    24    18    19    1
    25    20    21   ar
    26    20    25   ar
    27    21    22   ar
    28    22    23   ar
    29    23    24   ar
    30    24    25   ar
    31    27    28    1
    32    28    29    1
    33    29    30    1
    34    30    31   ar
    35    30    36   ar
    36    31    32    1
    37    31    33   ar
    38    33    34   ar
    39    34    35   ar
    40    35    36   ar
