@<TRIPOS>MOLECULE
25047_ChemDiv_0278-0028
 16 17 0 0 0
SMALL
GASTEIGER
Energy = 0

@<TRIPOS>ATOM
      1 C           0.8710   -0.6040    0.0000 C.ar    1  LIG1        0.0430
      2 C           0.6080   -1.5920    0.0000 C.2     1  LIG1        0.1981
      3 C          -0.3580   -1.8290    0.0000 C.3     1  LIG1        0.1978
      4 N          -1.0670   -1.1170    0.0000 N.ar    1  LIG1       -0.2221
      5 N          -0.9960   -0.1330    0.0000 N.ar    1  LIG1       -0.1447
      6 C          -1.9380    0.2210    0.0000 C.ar    1  LIG1        0.2210
      7 N          -2.5500   -0.5290    0.0000 N.ar    1  LIG1       -0.2007
      8 C          -2.0290   -1.3830    0.0000 C.ar    1  LIG1        0.1976
      9 O           1.3170   -2.2960    0.0000 O.2     1  LIG1       -0.2892
     10 C           1.8380   -0.3420    0.0000 C.ar    1  LIG1        0.0379
     11 C           2.0920    0.6210    0.0000 C.ar    1  LIG1        0.0135
     12 C           1.3920    1.3290    0.0000 C.ar    1  LIG1        0.0351
     13 C           0.4000    1.0460    0.0000 C.ar    1  LIG1        0.0068
     14 C           0.1630    0.1000    0.0000 C.ar    1  LIG1        0.0039
     15 BR          1.6460    2.3000    0.0000 Br      1  LIG1       -0.0490
     16 BR          2.5460   -1.0790    0.0000 Br      1  LIG1       -0.0489
@<TRIPOS>BOND
     1     1     2    1
     2     1    10   ar
     3     1    14   ar
     4     2     3    1
     5     2     9    2
     6     3     4    1
     7     4     5   ar
     8     4     8   ar
     9     5     6   ar
    10     6     7   ar
    11     7     8   ar
    12    10    11   ar
    13    10    16    1
    14    11    12   ar
    15    12    13   ar
    16    12    15    1
    17    13    14   ar
