@<TRIPOS>MOLECULE
25051_ChemDiv_5509-0020
 17 18 0 0 0
SMALL
GASTEIGER
Energy = 0

@<TRIPOS>ATOM
      1 N           0.4330    1.4920    0.0000 N.ar    1  LIG1       -0.2245
      2 C           0.4330    0.4750    0.0000 C.3     1  LIG1        0.1681
      3 C           1.3040   -0.0500    0.0000 C.2     1  LIG1        0.1952
      4 O           2.1750    0.4420    0.0000 O.2     1  LIG1       -0.2893
      5 C           1.3040   -1.0540    0.0000 C.ar    1  LIG1        0.0366
      6 C           0.4330   -1.5500    0.0000 C.ar    1  LIG1        0.0029
      7 C           0.4330   -2.5750    0.0000 C.ar    1  LIG1        0.0001
      8 C           1.2920   -3.0540    0.0000 C.ar    1  LIG1        0.0000
      9 C           2.1670   -2.5170    0.0000 C.ar    1  LIG1        0.0001
     10 C           2.1750   -1.5500    0.0000 C.ar    1  LIG1        0.0029
     11 C          -0.4380   -0.0170    0.0000 C.3     1  LIG1        0.0324
     12 C          -1.3000    0.4580    0.0000 C.3     1  LIG1        0.0025
     13 C          -2.1790    0.0210    0.0000 C.3     1  LIG1        0.0001
     14 N          -0.4380    2.0130    0.0000 N.ar    1  LIG1       -0.1448
     15 C          -0.1790    2.9830    0.0000 C.ar    1  LIG1        0.2210
     16 N           0.7830    3.0580    0.0000 N.ar    1  LIG1       -0.2007
     17 C           1.2000    2.1380    0.0000 C.ar    1  LIG1        0.1976
@<TRIPOS>BOND
     1     1     2    1
     2     1    14   ar
     3     1    17   ar
     4     2     3    1
     5     2    11    1
     6     3     4    2
     7     3     5    1
     8     5     6   ar
     9     5    10   ar
    10     6     7   ar
    11     7     8   ar
    12     8     9   ar
    13     9    10   ar
    14    11    12    1
    15    12    13    1
    16    14    15   ar
    17    15    16   ar
    18    16    17   ar
