@<TRIPOS>MOLECULE
25052_ChemDiv_K908-0014
 29 30 0 0 0
SMALL
GASTEIGER
Energy = 0

@<TRIPOS>ATOM
      1 C          -1.5710    0.1040    0.0000 C.3     1  LIG1        0.1323
      2 C          -0.7290   -0.3830    0.0000 C.3     1  LIG1        0.0529
      3 C          -0.7290   -1.3670    0.0000 C.3     1  LIG1        0.1609
      4 C          -1.5710   -1.8500    0.0000 C.2     1  LIG1        0.1637
      5 C          -2.4080   -1.3670    0.0000 C.3     1  LIG1        0.0960
      6 C          -2.4080   -0.3830    0.0000 C.3     1  LIG1        0.1439
      7 O          -3.2540    0.1040    0.0000 O.3     1  LIG1       -0.2246
      8 C          -3.3500   -0.6420    0.0000 C.3     1  LIG1        0.0340
      9 O          -1.5710   -2.8250    0.0000 O.2     1  LIG1       -0.2954
     10 C           0.1250   -1.8580    0.0000 C.2     1  LIG1        0.3239
     11 O           0.9670   -1.3710    0.0000 O.2     1  LIG1       -0.2496
     12 O           0.1210   -2.8380    0.0000 O.3     1  LIG1       -0.4482
     13 C           0.9630   -3.3250    0.0000 C.3     1  LIG1        0.2086
     14 C           0.9630   -4.3040    0.0000 C.3     1  LIG1        0.0513
     15 C           0.8290    0.4250    0.0000 C.ar    1  LIG1       -0.0207
     16 C           1.6580   -0.0710    0.0000 C.ar    1  LIG1       -0.0011
     17 C           2.5080    0.4170    0.0000 C.ar    1  LIG1        0.0366
     18 C           2.5080    1.3880    0.0000 C.ar    1  LIG1        0.1385
     19 C           1.6580    1.8750    0.0000 C.ar    1  LIG1        0.0366
     20 C           0.8170    1.3880    0.0000 C.ar    1  LIG1       -0.0011
     21 O           3.3460    1.8750    0.0000 O.3     1  LIG1       -0.4755
     22 C           3.3460    2.8580    0.0000 C.3     1  LIG1        0.2054
     23 C           2.4960    3.3330    0.0000 C.3     1  LIG1        0.0473
     24 C           2.4960    4.3040    0.0000 C.3     1  LIG1        0.0040
     25 C          -1.5710    1.0750    0.0000 C.2     1  LIG1        0.3192
     26 O          -2.4130    1.5630    0.0000 O.2     1  LIG1       -0.2500
     27 O          -0.7290    1.5630    0.0000 O.3     1  LIG1       -0.4484
     28 C          -0.7290    2.5330    0.0000 C.3     1  LIG1        0.2086
     29 C           0.1130    3.0210    0.0000 C.3     1  LIG1        0.0513
@<TRIPOS>BOND
     1     1     2    1
     2     1     6    1
     3     1    25    1
     4     2     3    1
     5     2    15    1
     6     3     4    1
     7     3    10    1
     8     4     5    1
     9     4     9    2
    10     5     6    1
    11     6     7    1
    12     6     8    1
    13    10    11    2
    14    10    12    1
    15    12    13    1
    16    13    14    1
    17    15    16   ar
    18    15    20   ar
    19    16    17   ar
    20    17    18   ar
    21    18    19   ar
    22    18    21    1
    23    19    20   ar
    24    21    22    1
    25    22    23    1
    26    23    24    1
    27    25    26    2
    28    25    27    1
    29    27    28    1
    30    28    29    1
