@<TRIPOS>MOLECULE
25050_ChemDiv_8014-2033
 34 35 0 0 0
SMALL
GASTEIGER
Energy = 0

@<TRIPOS>ATOM
      1 C          -1.7330    0.2500    0.0000 C.3     1  LIG1        0.1323
      2 C          -0.8710    0.7460    0.0000 C.3     1  LIG1        0.0529
      3 C          -0.8710    1.7500    0.0000 C.3     1  LIG1        0.1609
      4 C          -1.7330    2.2500    0.0000 C.2     1  LIG1        0.1637
      5 C          -2.6000    1.7500    0.0000 C.3     1  LIG1        0.0960
      6 C          -2.6000    0.7460    0.0000 C.3     1  LIG1        0.1439
      7 O          -3.5830    1.3290    0.0000 O.3     1  LIG1       -0.2246
      8 C          -2.6000   -0.2000    0.0000 C.3     1  LIG1        0.0340
      9 O          -1.7330    3.2380    0.0000 O.2     1  LIG1       -0.2954
     10 C          -0.0080    2.2500    0.0000 C.2     1  LIG1        0.3239
     11 O          -0.0080    3.2380    0.0000 O.3     1  LIG1       -0.4482
     12 C           0.8540    3.7380    0.0000 C.3     1  LIG1        0.2083
     13 C           1.7210    3.2380    0.0000 C.3     1  LIG1        0.0439
     14 C           2.5830    3.7380    0.0000 C.3     1  LIG1        0.0038
     15 C           1.7210    2.2500    0.0000 C.3     1  LIG1        0.0038
     16 O           0.8540    1.7500    0.0000 O.2     1  LIG1       -0.2496
     17 C          -0.0080    0.2500    0.0000 C.ar    1  LIG1       -0.0208
     18 C           0.8540    0.7460    0.0000 C.ar    1  LIG1       -0.0030
     19 C           1.7210    0.2500    0.0000 C.ar    1  LIG1        0.0142
     20 C           1.7210   -0.7420    0.0000 C.ar    1  LIG1        0.0478
     21 N           2.5830   -1.2540    0.0000 N.pl3   1  LIG1       -0.3075
     22 C           3.4460   -0.7420    0.0000 C.3     1  LIG1        0.0908
     23 C           4.3210   -1.2540    0.0000 C.3     1  LIG1        0.0232
     24 C           2.5830   -2.2460    0.0000 C.3     1  LIG1        0.0908
     25 C           3.4460   -2.7420    0.0000 C.3     1  LIG1        0.0232
     26 C           0.8540   -1.2540    0.0000 C.ar    1  LIG1        0.0142
     27 C          -0.0080   -0.7420    0.0000 C.ar    1  LIG1       -0.0030
     28 C          -1.7330   -0.7420    0.0000 C.2     1  LIG1        0.3192
     29 O          -2.6000   -1.2540    0.0000 O.3     1  LIG1       -0.4484
     30 C          -2.6000   -2.2460    0.0000 C.3     1  LIG1        0.2083
     31 C          -3.4630   -2.7420    0.0000 C.3     1  LIG1        0.0439
     32 C          -4.3250   -2.2460    0.0000 C.3     1  LIG1        0.0038
     33 C          -3.4630   -3.7330    0.0000 C.3     1  LIG1        0.0038
     34 O          -0.8710   -1.2540    0.0000 O.2     1  LIG1       -0.2500
@<TRIPOS>BOND
     1     1     2    1
     2     1     6    1
     3     1    28    1
     4     2     3    1
     5     2    17    1
     6     3     4    1
     7     3    10    1
     8     4     5    1
     9     4     9    2
    10     5     6    1
    11     6     7    1
    12     6     8    1
    13    10    11    1
    14    10    16    2
    15    11    12    1
    16    12    13    1
    17    13    14    1
    18    13    15    1
    19    17    18   ar
    20    17    27   ar
    21    18    19   ar
    22    19    20   ar
    23    20    21    1
    24    20    26   ar
    25    21    22    1
    26    21    24    1
    27    22    23    1
    28    24    25    1
    29    26    27   ar
    30    28    29    1
    31    28    34    2
    32    29    30    1
    33    30    31    1
    34    31    32    1
    35    31    33    1
