@<TRIPOS>MOLECULE
25056_ChemDiv_0361-0044
 18 20 0 0 0
SMALL
GASTEIGER
Energy = 0

@<TRIPOS>ATOM
      1 N           0.3290   -0.0460    0.0000 N.ar    1  LIG1       -0.1908
      2 C          -0.5210    0.4670    0.0000 C.ar    1  LIG1        0.2033
      3 N          -0.3000    1.4500    0.0000 N.ar    1  LIG1       -0.0560
      4 O           0.6830    1.5420    0.0000 O.2     1  LIG1       -0.3370
      5 C           1.0670    0.6250    0.0000 C.ar    1  LIG1        0.2361
      6 C           2.0420    0.4330    0.0000 C.3     1  LIG1        0.0793
      7 C           2.3630   -0.5130    0.0000 C.3     1  LIG1        0.0093
      8 C           3.3500   -0.7040    0.0000 C.3     1  LIG1        0.0005
      9 C           4.0130    0.0380    0.0000 C.3     1  LIG1        0.0000
     10 C           3.6920    0.9790    0.0000 C.3     1  LIG1        0.0005
     11 C           2.7130    1.1750    0.0000 C.3     1  LIG1        0.0093
     12 C          -1.3750   -0.0250    0.0000 C.ar    1  LIG1        0.0392
     13 C          -2.2500    0.4670    0.0000 C.ar    1  LIG1        0.0040
     14 C          -3.1170   -0.0250    0.0000 C.ar    1  LIG1        0.0115
     15 C          -3.1170   -1.0380    0.0000 C.ar    1  LIG1        0.0577
     16 C          -2.2500   -1.5380    0.0000 C.ar    1  LIG1        0.0115
     17 C          -1.3750   -1.0380    0.0000 C.ar    1  LIG1        0.0040
     18 CL         -4.0170   -1.5130    0.0000 Cl      1  LIG1       -0.0822
@<TRIPOS>BOND
     1     1     2   ar
     2     1     5   ar
     3     2     3   ar
     4     2    12    1
     5     3     4   ar
     6     4     5   ar
     7     5     6    1
     8     6     7    1
     9     6    11    1
    10     7     8    1
    11     8     9    1
    12     9    10    1
    13    10    11    1
    14    12    13   ar
    15    12    17   ar
    16    13    14   ar
    17    14    15   ar
    18    15    16   ar
    19    15    18    1
    20    16    17   ar
