@<TRIPOS>MOLECULE
25054_ChemDiv_K908-0023
 29 30 0 0 0
SMALL
GASTEIGER
Energy = 0

@<TRIPOS>ATOM
      1 C          -2.3250    0.6750    0.0000 C.3     1  LIG1        0.1323
      2 C          -1.4210    0.2290    0.0000 C.3     1  LIG1        0.0529
      3 C          -1.4750   -0.7960    0.0000 C.3     1  LIG1        0.1609
      4 C          -2.3250   -1.2880    0.0000 C.2     1  LIG1        0.1637
      5 C          -3.1710   -0.7960    0.0000 C.3     1  LIG1        0.0960
      6 C          -3.1710    0.1880    0.0000 C.3     1  LIG1        0.1439
      7 O          -4.0250    0.6750    0.0000 O.3     1  LIG1       -0.2246
      8 C          -4.1250   -0.0670    0.0000 C.3     1  LIG1        0.0340
      9 O          -2.3250   -2.2710    0.0000 O.2     1  LIG1       -0.2954
     10 C          -0.6130   -1.3040    0.0000 C.2     1  LIG1        0.3239
     11 O           0.1330   -0.9920    0.0000 O.2     1  LIG1       -0.2496
     12 O          -0.6170   -2.2880    0.0000 O.3     1  LIG1       -0.4482
     13 C           0.2290   -2.7750    0.0000 C.3     1  LIG1        0.2086
     14 C           0.2290   -3.7580    0.0000 C.3     1  LIG1        0.0513
     15 C          -0.1210    0.9750    0.0000 C.ar    1  LIG1       -0.0208
     16 C          -0.1380    1.9580    0.0000 C.ar    1  LIG1       -0.0029
     17 C           0.7130    2.4500    0.0000 C.ar    1  LIG1        0.0163
     18 C           1.5710    1.9580    0.0000 C.ar    1  LIG1        0.0733
     19 N           2.4210    2.4500    0.0000 N.am    1  LIG1       -0.1792
     20 C           3.2710    1.9580    0.0000 C.2     1  LIG1        0.2461
     21 O           4.1210    2.4500    0.0000 O.2     1  LIG1       -0.2730
     22 C           3.2710    0.9750    0.0000 C.3     1  LIG1        0.0968
     23 C           1.5750    0.9750    0.0000 C.ar    1  LIG1        0.0163
     24 C           0.7210    0.4830    0.0000 C.ar    1  LIG1       -0.0029
     25 C          -2.3250    1.6580    0.0000 C.2     1  LIG1        0.3192
     26 O          -3.1790    2.1500    0.0000 O.2     1  LIG1       -0.2500
     27 O          -1.4750    2.1500    0.0000 O.3     1  LIG1       -0.4484
     28 C          -1.4750    3.1380    0.0000 C.3     1  LIG1        0.2086
     29 C          -2.3540    3.7630    0.0000 C.3     1  LIG1        0.0513
@<TRIPOS>BOND
     1     1     2    1
     2     1     6    1
     3     1    25    1
     4     2     3    1
     5     2    15    1
     6     3     4    1
     7     3    10    1
     8     4     5    1
     9     4     9    2
    10     5     6    1
    11     6     7    1
    12     6     8    1
    13    10    11    2
    14    10    12    1
    15    12    13    1
    16    13    14    1
    17    15    16   ar
    18    15    24   ar
    19    16    17   ar
    20    17    18   ar
    21    18    19    1
    22    18    23   ar
    23    19    20   am
    24    20    21    2
    25    20    22    1
    26    23    24   ar
    27    25    26    2
    28    25    27    1
    29    27    28    1
    30    28    29    1
