@<TRIPOS>MOLECULE
25069_ChemDiv_2372-2068
 29 31 0 0 0
SMALL
GASTEIGER
Energy = 0

@<TRIPOS>ATOM
      1 C           0.1580    0.1290    0.0000 C.ar    1  LIG1        0.1623
      2 N          -0.2330    1.0290    0.0000 N.ar    1  LIG1       -0.2251
      3 C          -1.2210    0.9210    0.0000 C.ar    1  LIG1        0.1007
      4 C          -1.4500   -0.0040    0.0000 C.ar    1  LIG1        0.1019
      5 N          -0.5670   -0.5290    0.0000 N.ar    1  LIG1       -0.2250
      6 C          -2.4130   -0.3290    0.0000 C.ar    1  LIG1        0.0373
      7 C          -3.1790    0.3710    0.0000 C.ar    1  LIG1        0.0750
      8 N          -4.1420    0.1290    0.0000 N.am    1  LIG1       -0.1792
      9 C          -4.8500    0.8540    0.0000 C.2     1  LIG1        0.2446
     10 C          -5.8130    0.6380    0.0000 C.3     1  LIG1        0.0709
     11 C          -6.7670    0.4130    0.0000 C.3     1  LIG1        0.0091
     12 C          -5.5880   -0.3290    0.0000 C.3     1  LIG1        0.0091
     13 C          -6.0420    1.5960    0.0000 C.3     1  LIG1        0.0091
     14 O          -4.5790    1.8210    0.0000 O.2     1  LIG1       -0.2730
     15 C          -2.9670    1.3170    0.0000 C.ar    1  LIG1        0.0182
     16 C          -1.9790    1.6250    0.0000 C.ar    1  LIG1        0.0220
     17 C           1.1000   -0.1170    0.0000 C.ar    1  LIG1        0.0359
     18 C           1.3500   -1.0750    0.0000 C.ar    1  LIG1        0.0044
     19 C           2.3710   -1.3420    0.0000 C.ar    1  LIG1        0.0167
     20 C           3.0920   -0.7290    0.0000 C.ar    1  LIG1        0.0734
     21 N           4.0670   -0.9880    0.0000 N.am    1  LIG1       -0.1792
     22 C           5.0290   -0.5130    0.0000 C.2     1  LIG1        0.2446
     23 C           5.8920   -0.9460    0.0000 C.3     1  LIG1        0.0709
     24 C           6.3500   -0.0670    0.0000 C.3     1  LIG1        0.0091
     25 C           5.4630   -1.8170    0.0000 C.3     1  LIG1        0.0091
     26 C           6.7670   -1.3830    0.0000 C.3     1  LIG1        0.0091
     27 O           5.0290    0.4380    0.0000 O.2     1  LIG1       -0.2730
     28 C           2.8790    0.2790    0.0000 C.ar    1  LIG1        0.0167
     29 C           1.8710    0.5710    0.0000 C.ar    1  LIG1        0.0044
@<TRIPOS>BOND
     1     1     2   ar
     2     1     5   ar
     3     1    17    1
     4     2     3   ar
     5     3     4   ar
     6     3    16   ar
     7     4     5   ar
     8     4     6   ar
     9     6     7   ar
    10     7     8    1
    11     7    15   ar
    12     8     9   am
    13     9    10    1
    14     9    14    2
    15    10    11    1
    16    10    12    1
    17    10    13    1
    18    15    16   ar
    19    17    18   ar
    20    17    29   ar
    21    18    19   ar
    22    19    20   ar
    23    20    21    1
    24    20    28   ar
    25    21    22   am
    26    22    23    1
    27    22    27    2
    28    23    24    1
    29    23    25    1
    30    23    26    1
    31    28    29   ar
