@<TRIPOS>MOLECULE
25065_ChemDiv_1782-0448
 25 28 0 0 0
SMALL
GASTEIGER
Energy = 0

@<TRIPOS>ATOM
      1 C          -2.1130   -0.2500    0.0000 C.ar    1  LIG1        0.1623
      2 N          -2.6750    0.5580    0.0000 N.ar    1  LIG1       -0.2251
      3 C          -3.6460    0.2380    0.0000 C.ar    1  LIG1        0.1006
      4 C          -3.6460   -0.7540    0.0000 C.ar    1  LIG1        0.1006
      5 N          -2.6750   -1.0880    0.0000 N.ar    1  LIG1       -0.2251
      6 C          -4.5080   -1.2710    0.0000 C.ar    1  LIG1        0.0207
      7 C          -5.3670   -0.7540    0.0000 C.ar    1  LIG1        0.0016
      8 C          -5.3670    0.2380    0.0000 C.ar    1  LIG1        0.0016
      9 C          -4.5080    0.7540    0.0000 C.ar    1  LIG1        0.0207
     10 C          -1.1210   -0.1960    0.0000 C.ar    1  LIG1        0.0359
     11 C          -0.6830    0.6920    0.0000 C.ar    1  LIG1        0.0044
     12 C           0.3130    0.7750    0.0000 C.ar    1  LIG1        0.0167
     13 C           0.8790   -0.0580    0.0000 C.ar    1  LIG1        0.0736
     14 N           1.8790   -0.0330    0.0000 N.am    1  LIG1       -0.1742
     15 C           2.4170   -0.8920    0.0000 C.2     1  LIG1        0.3033
     16 C           3.4130   -0.8670    0.0000 C.3     1  LIG1        0.2271
     17 N           3.8830    0.0080    0.0000 N.4     1  LIG1        0.3885
     18 C           3.3710    0.8670    0.0000 C.3     1  LIG1        0.1720
     19 C           3.8580    1.7420    0.0000 C.3     1  LIG1        0.2048
     20 O           4.8540    1.7670    0.0000 O.3     1  LIG1       -0.3411
     21 C           5.3630    0.9130    0.0000 C.3     1  LIG1        0.2048
     22 C           4.8710    0.0210    0.0000 C.3     1  LIG1        0.1720
     23 O           1.9080   -1.7630    0.0000 O.2     1  LIG1       -0.2665
     24 C           0.4460   -0.9250    0.0000 C.ar    1  LIG1        0.0167
     25 C          -0.5460   -1.0040    0.0000 C.ar    1  LIG1        0.0044
@<TRIPOS>BOND
     1     1     2   ar
     2     1     5   ar
     3     1    10    1
     4     2     3   ar
     5     3     4   ar
     6     3     9   ar
     7     4     5   ar
     8     4     6   ar
     9     6     7   ar
    10     7     8   ar
    11     8     9   ar
    12    10    11   ar
    13    10    25   ar
    14    11    12   ar
    15    12    13   ar
    16    13    14    1
    17    13    24   ar
    18    14    15   am
    19    15    16    1
    20    15    23    2
    21    16    17    1
    22    17    18    1
    23    17    22    1
    24    18    19    1
    25    19    20    1
    26    20    21    1
    27    21    22    1
    28    24    25   ar
