@<TRIPOS>MOLECULE
25063_ChemDiv_1550-0809
 25 28 0 0 0
SMALL
GASTEIGER
Energy = 0

@<TRIPOS>ATOM
      1 C          -1.8580   -1.6460    0.0000 C.ar    1  LIG1        0.1623
      2 N          -2.4580   -2.4630    0.0000 N.ar    1  LIG1       -0.2251
      3 C          -3.4080   -2.1540    0.0000 C.ar    1  LIG1        0.1006
      4 C          -3.4080   -1.1540    0.0000 C.ar    1  LIG1        0.1006
      5 N          -2.4580   -0.8380    0.0000 N.ar    1  LIG1       -0.2251
      6 C          -4.2790   -0.6460    0.0000 C.ar    1  LIG1        0.0207
      7 C          -5.1420   -1.1540    0.0000 C.ar    1  LIG1        0.0016
      8 C          -5.1420   -2.1540    0.0000 C.ar    1  LIG1        0.0016
      9 C          -4.2790   -2.6630    0.0000 C.ar    1  LIG1        0.0207
     10 C          -0.8580   -1.6460    0.0000 C.ar    1  LIG1        0.0371
     11 C          -0.3670   -0.7790    0.0000 C.ar    1  LIG1        0.0197
     12 C           0.6330   -0.7790    0.0000 C.ar    1  LIG1        0.0738
     13 N           1.1380    0.0880    0.0000 N.am    1  LIG1       -0.1754
     14 C           2.1380    0.0880    0.0000 C.2     1  LIG1        0.2690
     15 C           2.6330    0.9500    0.0000 C.ar    1  LIG1        0.0562
     16 C           3.6330    0.9500    0.0000 C.ar    1  LIG1        0.0160
     17 C           4.1380    1.8170    0.0000 C.ar    1  LIG1        0.0578
     18 CL          5.1380    1.8170    0.0000 Cl      1  LIG1       -0.0822
     19 C           3.6330    2.6670    0.0000 C.ar    1  LIG1        0.0114
     20 C           2.6330    2.6630    0.0000 C.ar    1  LIG1        0.0010
     21 C           2.1380    1.8170    0.0000 C.ar    1  LIG1        0.0046
     22 O           2.6330   -0.7790    0.0000 O.2     1  LIG1       -0.2680
     23 C           1.1380   -1.6460    0.0000 C.ar    1  LIG1        0.0166
     24 C           0.6330   -2.5130    0.0000 C.ar    1  LIG1        0.0014
     25 C          -0.3670   -2.5130    0.0000 C.ar    1  LIG1        0.0031
@<TRIPOS>BOND
     1     1     2   ar
     2     1     5   ar
     3     1    10    1
     4     2     3   ar
     5     3     4   ar
     6     3     9   ar
     7     4     5   ar
     8     4     6   ar
     9     6     7   ar
    10     7     8   ar
    11     8     9   ar
    12    10    11   ar
    13    10    25   ar
    14    11    12   ar
    15    12    13    1
    16    12    23   ar
    17    13    14   am
    18    14    15    1
    19    14    22    2
    20    15    16   ar
    21    15    21   ar
    22    16    17   ar
    23    17    18    1
    24    17    19   ar
    25    19    20   ar
    26    20    21   ar
    27    23    24   ar
    28    24    25   ar
