@<TRIPOS>MOLECULE
25067_ChemDiv_1928-1525
 21 23 0 0 0
SMALL
GASTEIGER
Energy = 0

@<TRIPOS>ATOM
      1 C           1.5080    0.0000    0.0000 C.ar    1  LIG1        0.1619
      2 N           0.8880    0.8500    0.0000 N.ar    1  LIG1       -0.2250
      3 C          -0.0630    0.4540    0.0000 C.ar    1  LIG1        0.1019
      4 C          -0.0630   -0.5380    0.0000 C.ar    1  LIG1        0.1007
      5 N           0.8880   -0.8130    0.0000 N.ar    1  LIG1       -0.2251
      6 C          -0.9920   -1.0380    0.0000 C.ar    1  LIG1        0.0220
      7 C          -1.8920   -0.5710    0.0000 C.ar    1  LIG1        0.0182
      8 C          -1.8920    0.4290    0.0000 C.ar    1  LIG1        0.0750
      9 C          -1.0170    0.9380    0.0000 C.ar    1  LIG1        0.0373
     10 N          -2.7540    0.9130    0.0000 N.am    1  LIG1       -0.1791
     11 C          -3.5960    0.3960    0.0000 C.2     1  LIG1        0.2461
     12 O          -3.6130   -0.6210    0.0000 O.2     1  LIG1       -0.2730
     13 C          -4.4080    0.8670    0.0000 C.3     1  LIG1        0.0968
     14 C           2.5000    0.0000    0.0000 C.ar    1  LIG1        0.0315
     15 C           2.9040   -0.8750    0.0000 C.ar    1  LIG1       -0.0189
     16 C           3.8790   -0.8750    0.0000 C.ar    1  LIG1       -0.0045
     17 C           4.4040    0.0000    0.0000 C.ar    1  LIG1       -0.0046
     18 C           3.9040    0.8500    0.0000 C.ar    1  LIG1       -0.0218
     19 C           2.9330    0.8500    0.0000 C.ar    1  LIG1       -0.0015
     20 C           4.3880    1.7080    0.0000 C.3     1  LIG1        0.0310
     21 C           2.3500   -1.7040    0.0000 C.3     1  LIG1        0.0311
@<TRIPOS>BOND
     1     1     2   ar
     2     1     5   ar
     3     1    14    1
     4     2     3   ar
     5     3     4   ar
     6     3     9   ar
     7     4     5   ar
     8     4     6   ar
     9     6     7   ar
    10     7     8   ar
    11     8     9   ar
    12     8    10    1
    13    10    11   am
    14    11    12    2
    15    11    13    1
    16    14    15   ar
    17    14    19   ar
    18    15    16   ar
    19    15    21    1
    20    16    17   ar
    21    17    18   ar
    22    18    19   ar
    23    18    20    1
