@<TRIPOS>MOLECULE
25071_ChemDiv_2387-1669
 29 34 0 0 0
SMALL
GASTEIGER
Energy = 0

@<TRIPOS>ATOM
      1 C          -2.1500    0.1210    0.0000 C.ar    1  LIG1        0.1654
      2 N          -1.7670    1.0250    0.0000 N.ar    1  LIG1       -0.2250
      3 C          -2.4880    1.7250    0.0000 C.ar    1  LIG1        0.1006
      4 C          -3.3880    1.2290    0.0000 C.ar    1  LIG1        0.1006
      5 N          -3.1540    0.2330    0.0000 N.ar    1  LIG1       -0.2250
      6 C          -4.2460    1.7330    0.0000 C.ar    1  LIG1        0.0207
      7 C          -4.2210    2.7630    0.0000 C.ar    1  LIG1        0.0016
      8 C          -3.3250    3.2460    0.0000 C.ar    1  LIG1        0.0016
      9 C          -2.4790    2.7130    0.0000 C.ar    1  LIG1        0.0207
     10 C          -1.6420   -0.7250    0.0000 C.ar    1  LIG1        0.0760
     11 C          -2.1460   -1.6000    0.0000 C.ar    1  LIG1        0.1987
     12 C          -1.6170   -2.4290    0.0000 C.ar    1  LIG1        0.0435
     13 C          -0.5960   -2.4500    0.0000 C.ar    1  LIG1        0.0199
     14 C          -0.1290   -1.5790    0.0000 C.ar    1  LIG1        0.0737
     15 N           0.8960   -1.5790    0.0000 N.am    1  LIG1       -0.1792
     16 C           1.4500   -2.4000    0.0000 C.2     1  LIG1        0.2446
     17 C           2.5000   -2.4000    0.0000 C.3     1  LIG1        0.0708
     18 C           3.4830   -2.7420    0.0000 C.3     1  LIG1        0.0087
     19 C           4.2420   -2.4000    0.0000 C.3     1  LIG1        0.0005
     20 C           4.2420   -1.4420    0.0000 C.3     1  LIG1        0.0000
     21 C           3.4830   -0.9460    0.0000 C.3     1  LIG1        0.0005
     22 C           2.5000   -1.4420    0.0000 C.3     1  LIG1        0.0087
     23 C           2.8040   -1.7210    0.0000 C.3     1  LIG1        0.0000
     24 C           2.8040   -2.8830    0.0000 C.3     1  LIG1        0.0005
     25 C           1.8580   -3.1750    0.0000 C.3     1  LIG1        0.0087
     26 C           3.6250   -3.2080    0.0000 C.3     1  LIG1        0.0000
     27 O           0.9420   -3.2420    0.0000 O.2     1  LIG1       -0.2730
     28 C          -0.6170   -0.7250    0.0000 C.ar    1  LIG1        0.0228
     29 O          -3.1420   -1.6000    0.0000 O.3     1  LIG1       -0.2865
@<TRIPOS>BOND
     1     1     2   ar
     2     1     5   ar
     3     1    10    1
     4     2     3   ar
     5     3     4   ar
     6     3     9   ar
     7     4     5   ar
     8     4     6   ar
     9     6     7   ar
    10     7     8   ar
    11     8     9   ar
    12    10    11   ar
    13    10    28   ar
    14    11    12   ar
    15    11    29    1
    16    12    13   ar
    17    13    14   ar
    18    14    15    1
    19    14    28   ar
    20    15    16   am
    21    16    17    1
    22    16    27    2
    23    17    18    1
    24    17    22    1
    25    17    25    1
    26    18    19    1
    27    19    20    1
    28    19    26    1
    29    20    21    1
    30    21    22    1
    31    21    23    1
    32    23    24    1
    33    24    25    1
    34    24    26    1
