@<TRIPOS>MOLECULE
25078_ChemDiv_C289-0639
 23 24 0 0 0
SMALL
GASTEIGER
Energy = 0

@<TRIPOS>ATOM
      1 N           2.3040   -0.0460    0.0000 N.ar    1  LIG1       -0.1907
      2 C           2.5210    0.9330    0.0000 C.ar    1  LIG1        0.2033
      3 N           1.6460    1.4290    0.0000 N.ar    1  LIG1       -0.0560
      4 O           0.9130    0.7630    0.0000 O.2     1  LIG1       -0.3370
      5 C           1.3130   -0.1420    0.0000 C.ar    1  LIG1        0.2371
      6 C           0.8170   -1.0170    0.0000 C.3     1  LIG1        0.0976
      7 C          -0.1830   -1.0170    0.0000 C.3     1  LIG1        0.0966
      8 C          -0.6830   -1.8790    0.0000 C.2     1  LIG1        0.2419
      9 O          -0.1830   -2.7420    0.0000 O.2     1  LIG1       -0.2733
     10 N          -1.6830   -1.8790    0.0000 N.am    1  LIG1       -0.2053
     11 C          -2.1790   -1.0170    0.0000 C.3     1  LIG1        0.1177
     12 C          -3.1830   -1.0170    0.0000 C.3     1  LIG1        0.0555
     13 C          -3.6790   -0.1420    0.0000 C.3     1  LIG1        0.1440
     14 O          -4.6830   -0.1420    0.0000 O.3     1  LIG1       -0.3537
     15 C          -5.1790    0.7210    0.0000 C.3     1  LIG1        0.1422
     16 C          -6.1750    0.7210    0.0000 C.3     1  LIG1        0.0346
     17 C           3.4290    1.3460    0.0000 C.ar    1  LIG1        0.0391
     18 C           4.2380    0.7500    0.0000 C.ar    1  LIG1        0.0028
     19 C           5.1540    1.1630    0.0000 C.ar    1  LIG1       -0.0042
     20 C           5.2580    2.1540    0.0000 C.ar    1  LIG1       -0.0218
     21 C           4.4500    2.7460    0.0000 C.ar    1  LIG1       -0.0042
     22 C           3.5330    2.3380    0.0000 C.ar    1  LIG1        0.0028
     23 C           6.1750    2.5630    0.0000 C.3     1  LIG1        0.0310
@<TRIPOS>BOND
     1     1     2   ar
     2     1     5   ar
     3     2     3   ar
     4     2    17    1
     5     3     4   ar
     6     4     5   ar
     7     5     6    1
     8     6     7    1
     9     7     8    1
    10     8     9    2
    11     8    10   am
    12    10    11    1
    13    11    12    1
    14    12    13    1
    15    13    14    1
    16    14    15    1
    17    15    16    1
    18    17    18   ar
    19    17    22   ar
    20    18    19   ar
    21    19    20   ar
    22    20    21   ar
    23    20    23    1
    24    21    22   ar
