@<TRIPOS>MOLECULE
25074_ChemDiv_C066-3626
 17 18 0 0 0
SMALL
GASTEIGER
Energy = 0

@<TRIPOS>ATOM
      1 N           0.0130    0.1080    0.0000 N.ar    1  LIG1       -0.1906
      2 C          -0.9830    0.2040    0.0000 C.ar    1  LIG1        0.2092
      3 N          -1.3750   -0.7080    0.0000 N.ar    1  LIG1       -0.0558
      4 O          -0.6380   -1.3710    0.0000 O.2     1  LIG1       -0.3370
      5 C           0.2250   -0.8750    0.0000 C.ar    1  LIG1        0.2369
      6 C           1.1460   -1.2670    0.0000 C.3     1  LIG1        0.0939
      7 C           1.2580   -2.2630    0.0000 C.3     1  LIG1        0.0515
      8 C           2.1710   -2.6670    0.0000 C.2     1  LIG1        0.0508
      9 O           2.9880   -2.0790    0.0000 O.co2   1  LIG1       -0.5492
     10 O           2.2880   -3.6630    0.0000 O.co2   1  LIG1       -0.5492
     11 C          -1.4790    1.0630    0.0000 C.ar    1  LIG1        0.1089
     12 C          -0.9830    1.9330    0.0000 C.ar    1  LIG1        0.2933
     13 N          -1.4960    2.8000    0.0000 N.ar    1  LIG1       -0.1533
     14 C          -2.4920    2.7920    0.0000 C.ar    1  LIG1        0.2903
     15 C          -2.9880    1.9170    0.0000 C.ar    1  LIG1        0.0759
     16 C          -2.4750    1.0580    0.0000 C.ar    1  LIG1        0.0156
     17 C          -0.9880    3.6670    0.0000 C.3     1  LIG1        0.4085
@<TRIPOS>BOND
     1     1     2   ar
     2     1     5   ar
     3     2     3   ar
     4     2    11    1
     5     3     4   ar
     6     4     5   ar
     7     5     6    1
     8     6     7    1
     9     7     8    1
    10     8     9   ar
    11     8    10   ar
    12    11    12   ar
    13    11    16   ar
    14    12    13   ar
    15    13    14   ar
    16    13    17    1
    17    14    15   ar
    18    15    16   ar
