@<TRIPOS>MOLECULE
25079_ChemDiv_0658-0264
 22 25 0 0 0
SMALL
GASTEIGER
Energy = 0

@<TRIPOS>ATOM
      1 C           0.3880   -1.6500    0.0000 C.ar    1  LIG1       -0.0003
      2 C           0.3000   -0.6630    0.0000 C.ar    1  LIG1       -0.0040
      3 C          -0.6330   -0.2540    0.0000 C.ar    1  LIG1       -0.0003
      4 C          -1.4460   -0.8500    0.0000 C.ar    1  LIG1       -0.0000
      5 C          -1.3170   -1.8420    0.0000 C.ar    1  LIG1       -0.0000
      6 C          -0.4170   -2.2420    0.0000 C.ar    1  LIG1       -0.0000
      7 C          -0.2880   -3.2380    0.0000 C.ar    1  LIG1       -0.0000
      8 C           0.6080   -3.6380    0.0000 C.ar    1  LIG1       -0.0000
      9 C           1.4420   -3.0460    0.0000 C.ar    1  LIG1       -0.0000
     10 C           1.3170   -2.0580    0.0000 C.ar    1  LIG1       -0.0000
     11 C           2.1170   -1.4710    0.0000 C.ar    1  LIG1       -0.0003
     12 C           2.0000   -0.4830    0.0000 C.ar    1  LIG1       -0.0043
     13 C           1.1040   -0.0750    0.0000 C.ar    1  LIG1       -0.0222
     14 C           1.0330    0.9460    0.0000 C.3     1  LIG1        0.0267
     15 C           0.1420    1.3750    0.0000 C.3     1  LIG1        0.0106
     16 C           0.0790    2.3750    0.0000 C.3     1  LIG1        0.0421
     17 C          -0.8250    2.8420    0.0000 C.2     1  LIG1        0.0503
     18 O          -1.6580    2.2790    0.0000 O.co2   1  LIG1       -0.5492
     19 O          -0.8830    3.8210    0.0000 O.co2   1  LIG1       -0.5492
     20 C          -1.1330   -3.8170    0.0000 C.ar    1  LIG1       -0.0000
     21 C          -2.0250   -3.4250    0.0000 C.ar    1  LIG1        0.0000
     22 C          -2.1210   -2.4250    0.0000 C.ar    1  LIG1       -0.0000
@<TRIPOS>BOND
     1     1     2   ar
     2     1     6   ar
     3     1    10   ar
     4     2     3   ar
     5     2    13   ar
     6     3     4   ar
     7     4     5   ar
     8     5     6   ar
     9     5    22   ar
    10     6     7   ar
    11     7     8   ar
    12     7    20   ar
    13     8     9   ar
    14     9    10   ar
    15    10    11   ar
    16    11    12   ar
    17    12    13   ar
    18    13    14    1
    19    14    15    1
    20    15    16    1
    21    16    17    1
    22    17    18   ar
    23    17    19   ar
    24    20    21   ar
    25    21    22   ar
