@<TRIPOS>MOLECULE
25077_ChemDiv_0303-0007
 22 24 0 0 0
SMALL
GASTEIGER
Energy = 0

@<TRIPOS>ATOM
      1 C          -0.4960    0.5040    0.0000 C.3     1  LIG1        0.0453
      2 C          -0.4960   -0.5000    0.0000 C.3     1  LIG1        0.0333
      3 C           0.4960   -0.5000    0.0000 C.3     1  LIG1        0.0453
      4 C           0.4960    0.5040    0.0000 C.3     1  LIG1        0.0333
      5 C           1.1880    1.2170    0.0000 C.ar    1  LIG1       -0.0218
      6 C           0.9080    2.1830    0.0000 C.ar    1  LIG1       -0.0043
      7 C           1.6000    2.9040    0.0000 C.ar    1  LIG1       -0.0003
      8 C           2.5750    2.6790    0.0000 C.ar    1  LIG1       -0.0000
      9 C           2.8580    1.7080    0.0000 C.ar    1  LIG1       -0.0003
     10 C           2.1630    0.9920    0.0000 C.ar    1  LIG1       -0.0043
     11 C           1.1880   -1.2080    0.0000 C.2     1  LIG1        0.0506
     12 O           2.1540   -1.0000    0.0000 O.co2   1  LIG1       -0.5492
     13 O           0.9500   -2.1830    0.0000 O.co2   1  LIG1       -0.5492
     14 C          -1.1880   -1.2080    0.0000 C.ar    1  LIG1       -0.0218
     15 C          -0.9130   -2.1790    0.0000 C.ar    1  LIG1       -0.0043
     16 C          -1.6040   -2.9000    0.0000 C.ar    1  LIG1       -0.0003
     17 C          -2.5790   -2.6710    0.0000 C.ar    1  LIG1       -0.0000
     18 C          -2.8630   -1.7080    0.0000 C.ar    1  LIG1       -0.0003
     19 C          -2.1630   -0.9880    0.0000 C.ar    1  LIG1       -0.0043
     20 C          -1.1880    1.2170    0.0000 C.2     1  LIG1        0.0506
     21 O          -2.1630    1.0040    0.0000 O.co2   1  LIG1       -0.5492
     22 O          -0.9540    2.2040    0.0000 O.co2   1  LIG1       -0.5492
@<TRIPOS>BOND
     1     1     2    1
     2     1     4    1
     3     1    20    1
     4     2     3    1
     5     2    14    1
     6     3     4    1
     7     3    11    1
     8     4     5    1
     9     5     6   ar
    10     5    10   ar
    11     6     7   ar
    12     7     8   ar
    13     8     9   ar
    14     9    10   ar
    15    11    12   ar
    16    11    13   ar
    17    14    15   ar
    18    14    19   ar
    19    15    16   ar
    20    16    17   ar
    21    17    18   ar
    22    18    19   ar
    23    20    21   ar
    24    20    22   ar
