@<TRIPOS>MOLECULE
25075_ChemDiv_C272-0016
 25 27 0 0 0
SMALL
GASTEIGER
Energy = 0

@<TRIPOS>ATOM
      1 N           0.8920    1.8080    0.0000 N.ar    1  LIG1       -0.1156
      2 C          -0.0920    1.9080    0.0000 C.ar    1  LIG1        0.3999
      3 N          -0.3040    2.8920    0.0000 N.ar    1  LIG1       -0.1763
      4 N           0.5580    3.3880    0.0000 N.ar    1  LIG1       -0.0921
      5 C           1.3080    2.7080    0.0000 C.ar    1  LIG1        0.4204
      6 C          -1.1710    3.3880    0.0000 C.3     1  LIG1        0.2023
      7 C          -2.0330    2.8920    0.0000 C.2     1  LIG1        0.1978
      8 C          -2.0330    1.8920    0.0000 C.ar    1  LIG1        0.0368
      9 C          -1.1670    1.3920    0.0000 C.ar    1  LIG1        0.0034
     10 C          -1.1670    0.3830    0.0000 C.ar    1  LIG1        0.0068
     11 C          -2.0330   -0.1130    0.0000 C.ar    1  LIG1        0.0346
     12 C          -2.8960    0.3830    0.0000 C.ar    1  LIG1        0.0068
     13 C          -2.8960    1.3920    0.0000 C.ar    1  LIG1        0.0034
     14 BR         -2.0330   -1.1130    0.0000 Br      1  LIG1       -0.0490
     15 O          -2.9040    3.3880    0.0000 O.2     1  LIG1       -0.2892
     16 C           1.3880    0.9380    0.0000 C.3     1  LIG1        0.3949
     17 C           0.8920    0.0790    0.0000 C.2     1  LIG1        0.2511
     18 C           1.3880   -0.7830    0.0000 C.ar    1  LIG1        0.0417
     19 C           0.8920   -1.6460    0.0000 C.ar    1  LIG1        0.0036
     20 C           1.3880   -2.5170    0.0000 C.ar    1  LIG1        0.0068
     21 C           2.3880   -2.5170    0.0000 C.ar    1  LIG1        0.0346
     22 C           2.8880   -1.6460    0.0000 C.ar    1  LIG1        0.0068
     23 C           2.3880   -0.7830    0.0000 C.ar    1  LIG1        0.0036
     24 BR          2.9000   -3.3830    0.0000 Br      1  LIG1       -0.0490
     25 O          -0.1080    0.0790    0.0000 O.2     1  LIG1       -0.2840
@<TRIPOS>BOND
     1     1     2   ar
     2     1     5   ar
     3     1    16    1
     4     2     3   ar
     5     3     4   ar
     6     3     6    1
     7     4     5   ar
     8     6     7    1
     9     7     8    1
    10     7    15    2
    11     8     9   ar
    12     8    13   ar
    13     9    10   ar
    14    10    11   ar
    15    11    12   ar
    16    11    14    1
    17    12    13   ar
    18    16    17    1
    19    17    18    1
    20    17    25    2
    21    18    19   ar
    22    18    23   ar
    23    19    20   ar
    24    20    21   ar
    25    21    22   ar
    26    21    24    1
    27    22    23   ar
