@<TRIPOS>MOLECULE
25076_ChemDiv_C289-0637
 27 30 0 0 0
SMALL
GASTEIGER
Energy = 0

@<TRIPOS>ATOM
      1 N           2.3500    0.7580    0.0000 N.ar    1  LIG1       -0.1907
      2 C           2.5670    1.7380    0.0000 C.ar    1  LIG1        0.2033
      3 N           1.6920    2.2330    0.0000 N.ar    1  LIG1       -0.0560
      4 O           0.9580    1.5670    0.0000 O.2     1  LIG1       -0.3370
      5 C           1.3580    0.6580    0.0000 C.ar    1  LIG1        0.2371
      6 C           0.8630   -0.2130    0.0000 C.3     1  LIG1        0.0976
      7 C          -0.1420   -0.2130    0.0000 C.3     1  LIG1        0.0966
      8 C          -0.6380   -1.0750    0.0000 C.2     1  LIG1        0.2422
      9 N          -1.6420   -1.0750    0.0000 N.am    1  LIG1       -0.2005
     10 C          -2.1380   -1.9380    0.0000 C.3     1  LIG1        0.1416
     11 C          -3.1420   -1.9380    0.0000 C.ar    1  LIG1        0.0027
     12 C          -3.6380   -2.8040    0.0000 C.ar    1  LIG1        0.0376
     13 C          -4.6420   -2.8040    0.0000 C.ar    1  LIG1        0.1762
     14 C          -5.1380   -1.9380    0.0000 C.ar    1  LIG1        0.1764
     15 O          -6.1130   -2.1460    0.0000 O.3     1  LIG1       -0.4346
     16 C          -6.2210   -3.1460    0.0000 C.3     1  LIG1        0.4294
     17 O          -5.3080   -3.5460    0.0000 O.3     1  LIG1       -0.4346
     18 C          -4.6420   -1.0750    0.0000 C.ar    1  LIG1        0.0399
     19 C          -3.6380   -1.0750    0.0000 C.ar    1  LIG1        0.0008
     20 O          -0.1420   -1.9380    0.0000 O.2     1  LIG1       -0.2733
     21 C           3.4710    2.1500    0.0000 C.ar    1  LIG1        0.0391
     22 C           4.2790    1.5540    0.0000 C.ar    1  LIG1        0.0028
     23 C           5.1960    1.9670    0.0000 C.ar    1  LIG1       -0.0042
     24 C           5.3040    2.9580    0.0000 C.ar    1  LIG1       -0.0218
     25 C           4.4960    3.5500    0.0000 C.ar    1  LIG1       -0.0042
     26 C           3.5790    3.1420    0.0000 C.ar    1  LIG1        0.0028
     27 C           6.2210    3.3670    0.0000 C.3     1  LIG1        0.0310
@<TRIPOS>BOND
     1     1     2   ar
     2     1     5   ar
     3     2     3   ar
     4     2    21    1
     5     3     4   ar
     6     4     5   ar
     7     5     6    1
     8     6     7    1
     9     7     8    1
    10     8     9   am
    11     8    20    2
    12     9    10    1
    13    10    11    1
    14    11    12   ar
    15    11    19   ar
    16    12    13   ar
    17    13    14   ar
    18    13    17    1
    19    14    15    1
    20    14    18   ar
    21    15    16    1
    22    16    17    1
    23    18    19   ar
    24    21    22   ar
    25    21    26   ar
    26    22    23   ar
    27    23    24   ar
    28    24    25   ar
    29    24    27    1
    30    25    26   ar
