@<TRIPOS>MOLECULE
25086_ChemDiv_C320-0196
 33 37 0 0 0
SMALL
GASTEIGER
Energy = 0

@<TRIPOS>ATOM
      1 N           0.8880   -5.5790    0.0000 N.ar    1  LIG1       -0.3272
      2 C           0.9250   -4.5790    0.0000 C.ar    1  LIG1        0.0600
      3 C           0.0000   -4.2250    0.0000 C.ar    1  LIG1        0.0185
      4 C          -0.6290   -5.0040    0.0000 C.ar    1  LIG1        0.0172
      5 C          -0.0790   -5.8420    0.0000 C.ar    1  LIG1        0.0599
      6 C          -0.5130   -6.7420    0.0000 C.ar    1  LIG1        0.0172
      7 C          -1.5080   -6.8080    0.0000 C.ar    1  LIG1        0.0015
      8 C          -2.0710   -5.9630    0.0000 C.ar    1  LIG1        0.0001
      9 C          -1.6250   -5.0710    0.0000 C.ar    1  LIG1        0.0015
     10 C          -0.1630   -3.2380    0.0000 C.ar    1  LIG1        0.0181
     11 C           0.6040   -2.5920    0.0000 C.ar    1  LIG1        0.0735
     12 N           0.4710   -1.5960    0.0000 N.am    1  LIG1       -0.1792
     13 C          -0.4630   -1.2250    0.0000 C.2     1  LIG1        0.2461
     14 O          -1.2420   -1.8460    0.0000 O.2     1  LIG1       -0.2730
     15 C          -0.6000   -0.2250    0.0000 C.3     1  LIG1        0.0970
     16 C          -1.5380    0.1380    0.0000 C.3     1  LIG1        0.0977
     17 C          -1.6750    1.1330    0.0000 C.ar    1  LIG1        0.2371
     18 N          -1.0460    1.9080    0.0000 N.ar    1  LIG1       -0.1907
     19 C          -1.5750    2.7420    0.0000 C.ar    1  LIG1        0.2033
     20 N          -2.5420    2.5000    0.0000 N.ar    1  LIG1       -0.0560
     21 O          -2.6080    1.5080    0.0000 O.2     1  LIG1       -0.3370
     22 C          -1.3080    3.6920    0.0000 C.ar    1  LIG1        0.0393
     23 C          -1.9920    4.4170    0.0000 C.ar    1  LIG1        0.0063
     24 C          -1.7210    5.3710    0.0000 C.ar    1  LIG1        0.0370
     25 C          -0.7540    5.6040    0.0000 C.ar    1  LIG1        0.1387
     26 C          -0.0630    4.8880    0.0000 C.ar    1  LIG1        0.0370
     27 C          -0.3460    3.9250    0.0000 C.ar    1  LIG1        0.0063
     28 O          -0.4790    6.5580    0.0000 O.3     1  LIG1       -0.4714
     29 C           0.4880    6.8080    0.0000 C.3     1  LIG1        0.2525
     30 C           1.5380   -2.9580    0.0000 C.ar    1  LIG1        0.0181
     31 C           1.7080   -3.9420    0.0000 C.ar    1  LIG1        0.0185
     32 C           1.6750   -6.2130    0.0000 C.3     1  LIG1        0.1061
     33 C           2.6040   -5.8460    0.0000 C.3     1  LIG1        0.0265
@<TRIPOS>BOND
     1     1     2   ar
     2     1     5   ar
     3     1    32    1
     4     2     3   ar
     5     2    31   ar
     6     3     4   ar
     7     3    10   ar
     8     4     5   ar
     9     4     9   ar
    10     5     6   ar
    11     6     7   ar
    12     7     8   ar
    13     8     9   ar
    14    10    11   ar
    15    11    12    1
    16    11    30   ar
    17    12    13   am
    18    13    14    2
    19    13    15    1
    20    15    16    1
    21    16    17    1
    22    17    18   ar
    23    17    21   ar
    24    18    19   ar
    25    19    20   ar
    26    19    22    1
    27    20    21   ar
    28    22    23   ar
    29    22    27   ar
    30    23    24   ar
    31    24    25   ar
    32    25    26   ar
    33    25    28    1
    34    26    27   ar
    35    28    29    1
    36    30    31   ar
    37    32    33    1
