@<TRIPOS>MOLECULE
25080_ChemDiv_C289-0655
 28 31 0 0 0
SMALL
GASTEIGER
Energy = 0

@<TRIPOS>ATOM
      1 N           2.5540   -0.0460    0.0000 N.ar    1  LIG1       -0.1907
      2 C           2.7710    0.9380    0.0000 C.ar    1  LIG1        0.2033
      3 N           1.8960    1.4330    0.0000 N.ar    1  LIG1       -0.0560
      4 O           1.1630    0.7630    0.0000 O.2     1  LIG1       -0.3370
      5 C           1.5630   -0.1420    0.0000 C.ar    1  LIG1        0.2371
      6 C           1.0670   -1.0170    0.0000 C.3     1  LIG1        0.0976
      7 C           0.0630   -1.0170    0.0000 C.3     1  LIG1        0.0951
      8 C          -0.4330   -1.8830    0.0000 C.2     1  LIG1        0.2261
      9 N          -1.4380   -1.8830    0.0000 N.am    1  LIG1       -0.2791
     10 C          -1.9330   -1.0170    0.0000 C.3     1  LIG1        0.0993
     11 C          -2.9380   -1.0170    0.0000 C.3     1  LIG1        0.0782
     12 C          -3.4330   -1.8830    0.0000 C.3     1  LIG1        0.0903
     13 N          -4.4380   -1.8830    0.0000 N.4     1  LIG1        0.3730
     14 C          -4.9330   -2.7460    0.0000 C.3     1  LIG1        0.1383
     15 C          -5.9380   -2.7460    0.0000 C.3     1  LIG1        0.0629
     16 C          -6.4290   -1.8830    0.0000 C.3     1  LIG1        0.0123
     17 C          -5.9380   -1.0170    0.0000 C.3     1  LIG1        0.0629
     18 C          -4.9330   -1.0170    0.0000 C.3     1  LIG1        0.1383
     19 C          -2.9380   -2.7460    0.0000 C.3     1  LIG1        0.0782
     20 C          -1.9330   -2.7460    0.0000 C.3     1  LIG1        0.0993
     21 O           0.0630   -2.7460    0.0000 O.2     1  LIG1       -0.2749
     22 C           3.6790    1.3460    0.0000 C.ar    1  LIG1        0.0391
     23 C           3.7880    2.3380    0.0000 C.ar    1  LIG1        0.0028
     24 C           4.7040    2.7500    0.0000 C.ar    1  LIG1       -0.0042
     25 C           5.5130    2.1540    0.0000 C.ar    1  LIG1       -0.0218
     26 C           5.4040    1.1630    0.0000 C.ar    1  LIG1       -0.0042
     27 C           4.4880    0.7540    0.0000 C.ar    1  LIG1        0.0028
     28 C           6.4290    2.5670    0.0000 C.3     1  LIG1        0.0310
@<TRIPOS>BOND
     1     1     2   ar
     2     1     5   ar
     3     2     3   ar
     4     2    22    1
     5     3     4   ar
     6     4     5   ar
     7     5     6    1
     8     6     7    1
     9     7     8    1
    10     8     9   am
    11     8    21    2
    12     9    10    1
    13     9    20    1
    14    10    11    1
    15    11    12    1
    16    12    13    1
    17    12    19    1
    18    13    14    1
    19    13    18    1
    20    14    15    1
    21    15    16    1
    22    16    17    1
    23    17    18    1
    24    19    20    1
    25    22    23   ar
    26    22    27   ar
    27    23    24   ar
    28    24    25   ar
    29    25    26   ar
    30    25    28    1
    31    26    27   ar
