@<TRIPOS>MOLECULE
25081_ChemDiv_6105-1228
 13 14 0 0 0
SMALL
GASTEIGER
Energy = 0

@<TRIPOS>ATOM
      1 C          -0.2290   -1.6750    0.0000 C.3     1  LIG1        0.0409
      2 C          -0.6250   -0.7500    0.0000 C.3     1  LIG1        0.0279
      3 C          -1.2210   -1.5630    0.0000 C.3     1  LIG1        0.0106
      4 C          -0.6250    0.2420    0.0000 C.ar    1  LIG1       -0.0221
      5 C           0.2330    0.7500    0.0000 C.ar    1  LIG1       -0.0038
      6 C           0.2330    1.7630    0.0000 C.ar    1  LIG1        0.0064
      7 C          -0.6250    2.2540    0.0000 C.ar    1  LIG1        0.0345
      8 C          -1.4920    1.7630    0.0000 C.ar    1  LIG1        0.0064
      9 C          -1.4920    0.7500    0.0000 C.ar    1  LIG1       -0.0038
     10 BR         -0.6250    3.2630    0.0000 Br      1  LIG1       -0.0490
     11 C           0.5630   -2.2630    0.0000 C.2     1  LIG1        0.0503
     12 O           1.4880   -1.8790    0.0000 O.co2   1  LIG1       -0.5492
     13 O           0.4880   -3.2580    0.0000 O.co2   1  LIG1       -0.5492
@<TRIPOS>BOND
     1     1     2    1
     2     1     3    1
     3     1    11    1
     4     2     3    1
     5     2     4    1
     6     4     5   ar
     7     4     9   ar
     8     5     6   ar
     9     6     7   ar
    10     7     8   ar
    11     7    10    1
    12     8     9   ar
    13    11    12   ar
    14    11    13   ar
