@<TRIPOS>MOLECULE
25084_ChemDiv_C320-0008
 25 27 0 0 0
SMALL
GASTEIGER
Energy = 0

@<TRIPOS>ATOM
      1 N           0.7210    0.2750    0.0000 N.ar    1  LIG1       -0.1907
      2 C           1.7040    0.0670    0.0000 C.ar    1  LIG1        0.2033
      3 N           2.2040    0.9330    0.0000 N.ar    1  LIG1       -0.0560
      4 O           1.5250    1.6750    0.0000 O.2     1  LIG1       -0.3370
      5 C           0.6210    1.2750    0.0000 C.ar    1  LIG1        0.2371
      6 C          -0.2540    1.7750    0.0000 C.3     1  LIG1        0.0977
      7 C          -0.2540    2.7750    0.0000 C.3     1  LIG1        0.0970
      8 C          -1.1130    3.2750    0.0000 C.2     1  LIG1        0.2461
      9 N          -1.9710    2.7750    0.0000 N.am    1  LIG1       -0.1792
     10 C          -1.9710    1.7750    0.0000 C.ar    1  LIG1        0.0742
     11 C          -2.8420    1.2750    0.0000 C.ar    1  LIG1        0.0280
     12 C          -2.8420    0.2750    0.0000 C.ar    1  LIG1        0.0590
     13 CL         -3.7130   -0.2250    0.0000 Cl      1  LIG1       -0.0822
     14 C          -1.9710   -0.2250    0.0000 C.ar    1  LIG1        0.0115
     15 C          -1.1130    0.2750    0.0000 C.ar    1  LIG1        0.0022
     16 C          -1.1130    1.2750    0.0000 C.ar    1  LIG1        0.0167
     17 O          -1.1130    4.2710    0.0000 O.2     1  LIG1       -0.2730
     18 C           2.2040   -0.8040    0.0000 C.ar    1  LIG1        0.0393
     19 C           3.2040   -0.8040    0.0000 C.ar    1  LIG1        0.0063
     20 C           3.7040   -1.6580    0.0000 C.ar    1  LIG1        0.0370
     21 C           3.2040   -2.5250    0.0000 C.ar    1  LIG1        0.1387
     22 C           2.2040   -2.5250    0.0000 C.ar    1  LIG1        0.0370
     23 C           1.7040   -1.6580    0.0000 C.ar    1  LIG1        0.0063
     24 O           3.7080   -3.4040    0.0000 O.3     1  LIG1       -0.4714
     25 C           3.2130   -4.2710    0.0000 C.3     1  LIG1        0.2525
@<TRIPOS>BOND
     1     1     2   ar
     2     1     5   ar
     3     2     3   ar
     4     2    18    1
     5     3     4   ar
     6     4     5   ar
     7     5     6    1
     8     6     7    1
     9     7     8    1
    10     8     9   am
    11     8    17    2
    12     9    10    1
    13    10    11   ar
    14    10    16   ar
    15    11    12   ar
    16    12    13    1
    17    12    14   ar
    18    14    15   ar
    19    15    16   ar
    20    18    19   ar
    21    18    23   ar
    22    19    20   ar
    23    20    21   ar
    24    21    22   ar
    25    21    24    1
    26    22    23   ar
    27    24    25    1
