@<TRIPOS>MOLECULE
25088_ChemDiv_D004-0026
 22 24 0 0 0
SMALL
GASTEIGER
Energy = 0

@<TRIPOS>ATOM
      1 N           0.2170   -0.5830    0.0000 N.ar    1  LIG1       -0.1907
      2 C           1.1880   -0.3830    0.0000 C.ar    1  LIG1        0.2033
      3 N           1.2960    0.5920    0.0000 N.ar    1  LIG1       -0.0560
      4 O           0.3830    0.9960    0.0000 O.2     1  LIG1       -0.3370
      5 C          -0.2710    0.2830    0.0000 C.ar    1  LIG1        0.2366
      6 C          -1.2750    0.4210    0.0000 C.3     1  LIG1        0.0884
      7 C          -1.6630    1.3460    0.0000 C.3     1  LIG1        0.0140
      8 C          -2.6540    1.4830    0.0000 C.3     1  LIG1        0.0422
      9 C          -3.0330    2.4130    0.0000 C.2     1  LIG1        0.0503
     10 O          -4.0330    2.5500    0.0000 O.co2   1  LIG1       -0.5492
     11 O          -2.4290    3.2130    0.0000 O.co2   1  LIG1       -0.5492
     12 C          -1.9710    2.3000    0.0000 C.3     1  LIG1        0.0008
     13 C          -1.1630    2.8920    0.0000 C.3     1  LIG1        0.0000
     14 C          -0.3500    2.3000    0.0000 C.3     1  LIG1        0.0000
     15 C          -0.6630    1.3460    0.0000 C.3     1  LIG1        0.0008
     16 C           1.8960   -1.1000    0.0000 C.ar    1  LIG1        0.0392
     17 C           1.6290   -2.0670    0.0000 C.ar    1  LIG1        0.0040
     18 C           2.3380   -2.7670    0.0000 C.ar    1  LIG1        0.0115
     19 C           3.3170   -2.5040    0.0000 C.ar    1  LIG1        0.0577
     20 C           3.5710   -1.5540    0.0000 C.ar    1  LIG1        0.0115
     21 C           2.8580   -0.8420    0.0000 C.ar    1  LIG1        0.0040
     22 CL          4.0290   -3.2080    0.0000 Cl      1  LIG1       -0.0822
@<TRIPOS>BOND
     1     1     2   ar
     2     1     5   ar
     3     2     3   ar
     4     2    16    1
     5     3     4   ar
     6     4     5   ar
     7     5     6    1
     8     6     7    1
     9     7     8    1
    10     7    12    1
    11     7    15    1
    12     8     9    1
    13     9    10   ar
    14     9    11   ar
    15    12    13    1
    16    13    14    1
    17    14    15    1
    18    16    17   ar
    19    16    21   ar
    20    17    18   ar
    21    18    19   ar
    22    19    20   ar
    23    19    22    1
    24    20    21   ar
