@<TRIPOS>MOLECULE
25083_ChemDiv_8013-0928
 14 15 0 0 0
SMALL
GASTEIGER
Energy = 0

@<TRIPOS>ATOM
      1 C           0.8580   -0.2880    0.0000 C.3     1  LIG1        0.0508
      2 C           1.7170    0.2080    0.0000 C.2     1  LIG1        0.0534
      3 O           1.7170    1.2040    0.0000 O.co2   1  LIG1       -0.5489
      4 O           2.5750   -0.2710    0.0000 O.co2   1  LIG1       -0.5489
      5 C           0.0000    0.2080    0.0000 C.ar    1  LIG1       -0.0171
      6 C          -0.8580   -0.2880    0.0000 C.ar    1  LIG1        0.0075
      7 C          -1.7210    0.2080    0.0000 C.ar    1  LIG1        0.0574
      8 CL         -2.5790   -0.2880    0.0000 Cl      1  LIG1       -0.0823
      9 C          -1.7210    1.2040    0.0000 C.ar    1  LIG1        0.0114
     10 C          -0.8580    1.6830    0.0000 C.ar    1  LIG1        0.0006
     11 C           0.0000    1.1880    0.0000 C.ar    1  LIG1       -0.0039
     12 C           1.6210   -1.0000    0.0000 C.3     1  LIG1        0.0093
     13 C           0.8750   -1.6790    0.0000 C.3     1  LIG1        0.0014
     14 C           0.1080   -0.9830    0.0000 C.3     1  LIG1        0.0093
@<TRIPOS>BOND
     1     1     2    1
     2     1     5    1
     3     1    12    1
     4     1    14    1
     5     2     3   ar
     6     2     4   ar
     7     5     6   ar
     8     5    11   ar
     9     6     7   ar
    10     7     8    1
    11     7     9   ar
    12     9    10   ar
    13    10    11   ar
    14    12    13    1
    15    13    14    1
