@<TRIPOS>MOLECULE
25089_ChemDiv_2652-0753
 21 23 0 0 0
SMALL
GASTEIGER
Energy = 0

@<TRIPOS>ATOM
      1 C           0.0540    1.2130    0.0000 C.ar    1  LIG1        0.1635
      2 N          -0.5540    0.4750    0.0000 N.ar    1  LIG1       -0.2250
      3 C          -1.4580    0.8420    0.0000 C.ar    1  LIG1        0.1006
      4 C          -1.3790    1.8580    0.0000 C.ar    1  LIG1        0.1006
      5 N          -0.4290    2.0670    0.0000 N.ar    1  LIG1       -0.2250
      6 C          -2.1920    2.3830    0.0000 C.ar    1  LIG1        0.0207
      7 C          -3.0710    2.0040    0.0000 C.ar    1  LIG1        0.0016
      8 C          -3.1500    1.0000    0.0000 C.ar    1  LIG1        0.0016
      9 C          -2.3500    0.4040    0.0000 C.ar    1  LIG1        0.0207
     10 C           1.0330    1.2130    0.0000 C.ar    1  LIG1        0.0511
     11 C           1.5000    0.3670    0.0000 C.ar    1  LIG1        0.0763
     12 N           1.0080   -0.4790    0.0000 N.am    1  LIG1       -0.1791
     13 C           1.5000   -1.3170    0.0000 C.2     1  LIG1        0.2451
     14 O           1.0880   -2.1960    0.0000 O.2     1  LIG1       -0.2730
     15 C           2.4580   -1.3500    0.0000 C.3     1  LIG1        0.0786
     16 C           3.0960   -2.3790    0.0000 C.3     1  LIG1        0.0096
     17 C           3.1460   -0.3630    0.0000 C.3     1  LIG1        0.0096
     18 C           2.4880    0.3670    0.0000 C.ar    1  LIG1        0.0167
     19 C           2.9790    1.2130    0.0000 C.ar    1  LIG1        0.0013
     20 C           2.5130    2.0670    0.0000 C.ar    1  LIG1        0.0002
     21 C           1.5080    2.0670    0.0000 C.ar    1  LIG1        0.0043
@<TRIPOS>BOND
     1     1     2   ar
     2     1     5   ar
     3     1    10    1
     4     2     3   ar
     5     3     4   ar
     6     3     9   ar
     7     4     5   ar
     8     4     6   ar
     9     6     7   ar
    10     7     8   ar
    11     8     9   ar
    12    10    11   ar
    13    10    21   ar
    14    11    12    1
    15    11    18   ar
    16    12    13   am
    17    13    14    2
    18    13    15    1
    19    15    16    1
    20    15    17    1
    21    18    19   ar
    22    19    20   ar
    23    20    21   ar
