@<TRIPOS>MOLECULE
25094_ChemDiv_N060-0132
 22 25 0 0 0
SMALL
GASTEIGER
Energy = 0

@<TRIPOS>ATOM
      1 C          -0.1460    0.0170    0.0000 C.3     1  LIG1        0.0825
      2 C          -0.1460   -1.0040    0.0000 C.ar    1  LIG1        0.0231
      3 C          -1.1040   -1.3000    0.0000 C.ar    1  LIG1        0.1683
      4 O          -1.6830   -0.4880    0.0000 O.3     1  LIG1       -0.4757
      5 C          -1.1040    0.3170    0.0000 C.3     1  LIG1        0.1764
      6 C          -1.3250    1.2920    0.0000 C.3     1  LIG1        0.0816
      7 C          -0.5830    1.9670    0.0000 C.3     1  LIG1        0.1773
      8 C           0.3750    1.6710    0.0000 C.2     1  LIG1        0.0021
      9 C           0.5960    0.6920    0.0000 C.2     1  LIG1       -0.0210
     10 O          -0.8080    2.9580    0.0000 O.3     1  LIG1       -0.2182
     11 C          -1.3250   -2.2790    0.0000 C.ar    1  LIG1        0.1721
     12 C          -0.5830   -2.9540    0.0000 C.ar    1  LIG1        0.0399
     13 C           0.4830   -2.6250    0.0000 C.ar    1  LIG1        0.0044
     14 C           0.6420   -1.6170    0.0000 C.ar    1  LIG1        0.0323
     15 C           1.6290   -1.3960    0.0000 C.3     1  LIG1        0.1363
     16 N           2.0580   -0.5880    0.0000 N.4     1  LIG1        0.3094
     17 C           1.6170    0.3170    0.0000 C.3     1  LIG1        0.1101
     18 C           0.7040    0.4130    0.0000 C.3     1  LIG1        0.0727
     19 C           2.9670   -0.9080    0.0000 C.3     1  LIG1        0.1711
     20 C           3.0170   -0.1380    0.0000 C.3     1  LIG1        0.1711
     21 O          -2.2830   -2.5750    0.0000 O.3     1  LIG1       -0.4684
     22 C          -3.0210   -1.9000    0.0000 C.3     1  LIG1        0.2526
@<TRIPOS>BOND
     1     1     2    1
     2     1     5    1
     3     1     9    1
     4     1    18    1
     5     2     3   ar
     6     2    14   ar
     7     3     4    1
     8     3    11   ar
     9     4     5    1
    10     5     6    1
    11     6     7    1
    12     7     8    1
    13     7    10    1
    14     8     9    2
    15    11    12   ar
    16    11    21    1
    17    12    13   ar
    18    13    14   ar
    19    14    15    1
    20    15    16    1
    21    16    17    1
    22    16    19    1
    23    16    20    1
    24    17    18    1
    25    21    22    1
