@<TRIPOS>MOLECULE
25093_ChemDiv_3157-0356
 28 31 0 0 0
SMALL
GASTEIGER
Energy = 0

@<TRIPOS>ATOM
      1 C          -3.6710   -0.7170    0.0000 C.ar    1  LIG1        0.1623
      2 N          -4.5580   -0.3000    0.0000 N.ar    1  LIG1       -0.2251
      3 C          -5.2420   -1.0500    0.0000 C.ar    1  LIG1        0.1006
      4 C          -4.7380   -1.9170    0.0000 C.ar    1  LIG1        0.1006
      5 N          -3.7750   -1.7000    0.0000 N.ar    1  LIG1       -0.2251
      6 C          -5.2420   -2.7830    0.0000 C.ar    1  LIG1        0.0207
      7 C          -6.2380   -2.7830    0.0000 C.ar    1  LIG1        0.0016
      8 C          -6.7330   -1.9170    0.0000 C.ar    1  LIG1        0.0016
      9 C          -6.2380   -1.0500    0.0000 C.ar    1  LIG1        0.0207
     10 C          -2.8040   -0.2080    0.0000 C.ar    1  LIG1        0.0359
     11 C          -1.9380   -0.7170    0.0000 C.ar    1  LIG1        0.0044
     12 C          -1.0710   -0.2080    0.0000 C.ar    1  LIG1        0.0167
     13 C          -1.0710    0.7880    0.0000 C.ar    1  LIG1        0.0735
     14 N          -0.2000    1.2880    0.0000 N.am    1  LIG1       -0.1761
     15 C           0.6670    0.7880    0.0000 C.2     1  LIG1        0.2901
     16 O           0.6670   -0.2130    0.0000 O.2     1  LIG1       -0.2689
     17 C           1.5330    1.2880    0.0000 C.3     1  LIG1        0.2915
     18 O           2.4000    0.7880    0.0000 O.3     1  LIG1       -0.4656
     19 C           3.2670    1.2880    0.0000 C.ar    1  LIG1        0.1395
     20 C           3.2670    2.2880    0.0000 C.ar    1  LIG1        0.0400
     21 C           4.1330    2.7880    0.0000 C.ar    1  LIG1        0.0400
     22 C           5.0000    2.2750    0.0000 C.ar    1  LIG1        0.1389
     23 C           5.0000    1.2750    0.0000 C.ar    1  LIG1        0.0400
     24 C           4.1330    0.7880    0.0000 C.ar    1  LIG1        0.0400
     25 O           5.8670    2.7880    0.0000 O.3     1  LIG1       -0.4714
     26 C           6.7330    2.2750    0.0000 C.3     1  LIG1        0.2525
     27 C          -1.9380    1.2880    0.0000 C.ar    1  LIG1        0.0167
     28 C          -2.8040    0.7920    0.0000 C.ar    1  LIG1        0.0044
@<TRIPOS>BOND
     1     1     2   ar
     2     1     5   ar
     3     1    10    1
     4     2     3   ar
     5     3     4   ar
     6     3     9   ar
     7     4     5   ar
     8     4     6   ar
     9     6     7   ar
    10     7     8   ar
    11     8     9   ar
    12    10    11   ar
    13    10    28   ar
    14    11    12   ar
    15    12    13   ar
    16    13    14    1
    17    13    27   ar
    18    14    15   am
    19    15    16    2
    20    15    17    1
    21    17    18    1
    22    18    19    1
    23    19    20   ar
    24    19    24   ar
    25    20    21   ar
    26    21    22   ar
    27    22    23   ar
    28    22    25    1
    29    23    24   ar
    30    25    26    1
    31    27    28   ar
