@<TRIPOS>MOLECULE
25092_ChemDiv_0407-0064
 21 24 0 0 0
SMALL
GASTEIGER
Energy = 0

@<TRIPOS>ATOM
      1 C           0.9710    0.7290    0.0000 C.3     1  LIG1        0.0825
      2 C           0.1290    0.2210    0.0000 C.ar    1  LIG1        0.0231
      3 C          -0.6210    0.9210    0.0000 C.ar    1  LIG1        0.1683
      4 O          -0.2080    1.8130    0.0000 O.3     1  LIG1       -0.4757
      5 C           0.7830    1.6920    0.0000 C.3     1  LIG1        0.1764
      6 C           1.5290    2.3420    0.0000 C.3     1  LIG1        0.0816
      7 C           2.4460    2.0290    0.0000 C.3     1  LIG1        0.1773
      8 C           2.6630    1.0920    0.0000 C.2     1  LIG1        0.0021
      9 C           1.9130    0.4130    0.0000 C.2     1  LIG1       -0.0210
     10 O           3.2170    2.7040    0.0000 O.3     1  LIG1       -0.2182
     11 C          -1.5580    0.6330    0.0000 C.ar    1  LIG1        0.1721
     12 C          -1.7750   -0.3580    0.0000 C.ar    1  LIG1        0.0399
     13 C          -1.0540   -1.0330    0.0000 C.ar    1  LIG1        0.0044
     14 C          -0.0880   -0.7460    0.0000 C.ar    1  LIG1        0.0339
     15 C           0.5420   -1.5170    0.0000 C.3     1  LIG1        0.1663
     16 N           1.5500   -1.7790    0.0000 N.4     1  LIG1        0.3854
     17 C           2.0130   -0.9580    0.0000 C.3     1  LIG1        0.1401
     18 C           1.8750   -0.0460    0.0000 C.3     1  LIG1        0.0744
     19 C           2.0130   -2.7000    0.0000 C.3     1  LIG1        0.2027
     20 O          -2.2830    1.3040    0.0000 O.3     1  LIG1       -0.4684
     21 C          -3.2210    1.0130    0.0000 C.3     1  LIG1        0.2526
@<TRIPOS>BOND
     1     1     2    1
     2     1     5    1
     3     1     9    1
     4     1    18    1
     5     2     3   ar
     6     2    14   ar
     7     3     4    1
     8     3    11   ar
     9     4     5    1
    10     5     6    1
    11     6     7    1
    12     7     8    1
    13     7    10    1
    14     8     9    2
    15    11    12   ar
    16    11    20    1
    17    12    13   ar
    18    13    14   ar
    19    14    15    1
    20    15    16    1
    21    16    17    1
    22    16    19    1
    23    17    18    1
    24    20    21    1
