@<TRIPOS>MOLECULE
25106_ChemDiv_D069-0303
 28 30 0 0 0
SMALL
GASTEIGER
Energy = 0

@<TRIPOS>ATOM
      1 N          -1.2580    0.7750    0.0000 N.ar    1  LIG1       -0.1907
      2 C          -1.3630   -0.2170    0.0000 C.ar    1  LIG1        0.2035
      3 N          -0.4460   -0.6250    0.0000 N.ar    1  LIG1       -0.0560
      4 O           0.2250    0.1170    0.0000 O.2     1  LIG1       -0.3370
      5 C          -0.2750    0.9830    0.0000 C.ar    1  LIG1        0.2371
      6 C           0.1290    1.8960    0.0000 C.3     1  LIG1        0.0976
      7 C           1.1290    2.0000    0.0000 C.3     1  LIG1        0.0966
      8 C           1.5330    2.9210    0.0000 C.2     1  LIG1        0.2423
      9 N           2.5290    3.0210    0.0000 N.am    1  LIG1       -0.1972
     10 C           3.1170    2.2170    0.0000 C.3     1  LIG1        0.1791
     11 C           4.1130    2.3250    0.0000 C.ar    1  LIG1        0.1449
     12 O           4.6170    3.1830    0.0000 O.2     1  LIG1       -0.4529
     13 C           5.5830    2.9750    0.0000 C.ar    1  LIG1        0.1792
     14 C           5.6920    1.9830    0.0000 C.ar    1  LIG1        0.0435
     15 C           4.7790    1.5830    0.0000 C.ar    1  LIG1        0.0380
     16 O           0.9420    3.7290    0.0000 O.2     1  LIG1       -0.2733
     17 C          -2.2330   -0.7210    0.0000 C.ar    1  LIG1        0.0453
     18 C          -3.1000   -0.2170    0.0000 C.ar    1  LIG1        0.0434
     19 C          -3.9670   -0.7210    0.0000 C.ar    1  LIG1        0.1755
     20 C          -3.9670   -1.7130    0.0000 C.ar    1  LIG1        0.2061
     21 C          -3.1000   -2.2210    0.0000 C.ar    1  LIG1        0.1755
     22 C          -2.2330   -1.7130    0.0000 C.ar    1  LIG1        0.0434
     23 O          -3.1000   -3.2210    0.0000 O.3     1  LIG1       -0.4683
     24 C          -3.9670   -3.7250    0.0000 C.3     1  LIG1        0.2526
     25 O          -4.8330   -2.2210    0.0000 O.3     1  LIG1       -0.4654
     26 C          -4.8330   -3.2210    0.0000 C.3     1  LIG1        0.2528
     27 O          -4.8330   -0.2170    0.0000 O.3     1  LIG1       -0.4683
     28 C          -5.6960   -0.7210    0.0000 C.3     1  LIG1        0.2526
@<TRIPOS>BOND
     1     1     2   ar
     2     1     5   ar
     3     2     3   ar
     4     2    17    1
     5     3     4   ar
     6     4     5   ar
     7     5     6    1
     8     6     7    1
     9     7     8    1
    10     8     9   am
    11     8    16    2
    12     9    10    1
    13    10    11    1
    14    11    12   ar
    15    11    15   ar
    16    12    13   ar
    17    13    14   ar
    18    14    15   ar
    19    17    18   ar
    20    17    22   ar
    21    18    19   ar
    22    19    20   ar
    23    19    27    1
    24    20    21   ar
    25    20    25    1
    26    21    22   ar
    27    21    23    1
    28    23    24    1
    29    25    26    1
    30    27    28    1
