@<TRIPOS>MOLECULE
25100_ChemDiv_0413-0255
 24 25 0 0 0
SMALL
GASTEIGER
Energy = 0

@<TRIPOS>ATOM
      1 N           2.2580   -1.2250    0.0000 N.ar    1  LIG1       -0.3254
      2 C           2.8460   -0.4290    0.0000 C.ar    1  LIG1        0.0337
      3 C           2.2580    0.4000    0.0000 C.ar    1  LIG1       -0.0088
      4 C           1.2960    0.1000    0.0000 C.ar    1  LIG1        0.0131
      5 C           1.2960   -0.9170    0.0000 C.ar    1  LIG1        0.0595
      6 C           0.4330   -1.4250    0.0000 C.ar    1  LIG1        0.0174
      7 C          -0.4380   -0.9170    0.0000 C.ar    1  LIG1        0.0079
      8 C          -0.4380    0.1000    0.0000 C.ar    1  LIG1        0.0757
      9 C           0.4330    0.5880    0.0000 C.ar    1  LIG1        0.0076
     10 C          -1.3000    0.6080    0.0000 C.2     1  LIG1        0.3414
     11 O          -2.1670    0.1250    0.0000 O.2     1  LIG1       -0.2449
     12 O          -1.2790    1.6040    0.0000 O.3     1  LIG1       -0.4389
     13 C          -2.1080    2.1130    0.0000 C.3     1  LIG1        0.2709
     14 C          -2.1080    3.0960    0.0000 C.3     1  LIG1        0.1874
     15 N          -2.9790    3.5790    0.0000 N.4     1  LIG1        0.3897
     16 C          -3.8420    3.0960    0.0000 C.3     1  LIG1        0.2027
     17 C          -2.9790    4.6000    0.0000 C.3     1  LIG1        0.2027
     18 C           2.5920    1.3500    0.0000 C.3     1  LIG1        0.0322
     19 C           3.8380   -0.4290    0.0000 C.3     1  LIG1        0.0497
     20 C           2.5920   -2.1880    0.0000 C.3     1  LIG1        0.1687
     21 C           1.9290   -2.9250    0.0000 C.3     1  LIG1        0.1641
     22 N           2.2330   -3.8580    0.0000 N.4     1  LIG1        0.3882
     23 C           3.2000   -4.0670    0.0000 C.3     1  LIG1        0.2026
     24 C           1.5500   -4.6000    0.0000 C.3     1  LIG1        0.2026
@<TRIPOS>BOND
     1     1     2   ar
     2     1     5   ar
     3     1    20    1
     4     2     3   ar
     5     2    19    1
     6     3     4   ar
     7     3    18    1
     8     4     5   ar
     9     4     9   ar
    10     5     6   ar
    11     6     7   ar
    12     7     8   ar
    13     8     9   ar
    14     8    10    1
    15    10    11    2
    16    10    12    1
    17    12    13    1
    18    13    14    1
    19    14    15    1
    20    15    16    1
    21    15    17    1
    22    20    21    1
    23    21    22    1
    24    22    23    1
    25    22    24    1
