@<TRIPOS>MOLECULE
25101_ChemDiv_3769-2011
 28 33 0 0 0
SMALL
GASTEIGER
Energy = 0

@<TRIPOS>ATOM
      1 C          -2.6380    0.7630    0.0000 C.2     1  LIG1        0.3767
      2 N          -1.7630    1.2630    0.0000 N.2     1  LIG1       -0.0346
      3 C          -1.0080    0.6750    0.0000 C.2     1  LIG1        0.2192
      4 C          -1.4000   -0.2540    0.0000 C.2     1  LIG1        0.2322
      5 N          -2.4170   -0.1830    0.0000 N.2     1  LIG1       -0.0308
      6 C          -0.7750   -1.1080    0.0000 C.2     1  LIG1        0.0512
      7 C           0.2960   -0.9750    0.0000 C.2     1  LIG1        0.0166
      8 C           0.6920   -0.1130    0.0000 C.2     1  LIG1        0.0596
      9 N           1.7000   -0.0670    0.0000 N.am    1  LIG1       -0.1831
     10 C           2.2080   -0.9250    0.0000 C.2     1  LIG1        0.2443
     11 C           3.2580   -0.9250    0.0000 C.3     1  LIG1        0.0708
     12 C           3.6670   -1.9540    0.0000 C.3     1  LIG1        0.0087
     13 C           4.5500   -1.9540    0.0000 C.3     1  LIG1        0.0005
     14 C           4.9000   -0.9250    0.0000 C.3     1  LIG1        0.0000
     15 C           4.5290   -0.0880    0.0000 C.3     1  LIG1        0.0005
     16 C           3.7460   -0.1130    0.0000 C.3     1  LIG1        0.0087
     17 C           5.3380   -0.7500    0.0000 C.3     1  LIG1        0.0000
     18 C           5.0080   -1.7210    0.0000 C.3     1  LIG1        0.0005
     19 C           4.0000   -1.7210    0.0000 C.3     1  LIG1        0.0087
     20 C           5.3460   -2.6040    0.0000 C.3     1  LIG1        0.0000
     21 O           1.8290   -1.7920    0.0000 O.2     1  LIG1       -0.2730
     22 C           0.0710    0.7330    0.0000 C.3     1  LIG1        0.1208
     23 C          -3.5750    1.2040    0.0000 C.ar    1  LIG1        0.1075
     24 C          -4.3380    0.6540    0.0000 C.ar    1  LIG1        0.1065
     25 N          -5.2540    1.1040    0.0000 N.ar    1  LIG1       -0.2421
     26 C          -5.3500    2.0080    0.0000 C.ar    1  LIG1        0.0989
     27 C          -4.4920    2.6080    0.0000 C.ar    1  LIG1        0.0209
     28 C          -3.5750    2.2040    0.0000 C.ar    1  LIG1        0.0109
@<TRIPOS>BOND
     1     1     2    1
     2     1     5    2
     3     1    23    1
     4     2     3    2
     5     3     4    1
     6     3    22    1
     7     4     5    1
     8     4     6    2
     9     6     7    1
    10     7     8    2
    11     8     9    1
    12     8    22    1
    13     9    10   am
    14    10    11    1
    15    10    21    2
    16    11    12    1
    17    11    16    1
    18    11    19    1
    19    12    13    1
    20    13    14    1
    21    13    20    1
    22    14    15    1
    23    15    16    1
    24    15    17    1
    25    17    18    1
    26    18    19    1
    27    18    20    1
    28    23    24   ar
    29    23    28   ar
    30    24    25   ar
    31    25    26   ar
    32    26    27   ar
    33    27    28   ar
