@<TRIPOS>MOLECULE
25104_ChemDiv_0908-0056
 15 16 0 0 0
SMALL
GASTEIGER
Energy = 0

@<TRIPOS>ATOM
      1 C           0.0330    0.9580    0.0000 C.3     1  LIG1        0.1202
      2 C           0.8170    1.5830    0.0000 C.2     1  LIG1        0.2466
      3 N           1.6500    1.0420    0.0000 N.am    1  LIG1       -0.2047
      4 C           1.3830    0.0880    0.0000 C.3     1  LIG1        0.1203
      5 C           0.4000    0.0210    0.0000 C.3     1  LIG1        0.0579
      6 C          -0.0920   -0.8500    0.0000 C.ar    1  LIG1       -0.0199
      7 C          -1.0960   -0.8330    0.0000 C.ar    1  LIG1       -0.0042
      8 C          -1.5920   -1.7210    0.0000 C.ar    1  LIG1       -0.0003
      9 C          -1.0960   -2.5790    0.0000 C.ar    1  LIG1       -0.0000
     10 C          -0.0920   -2.5790    0.0000 C.ar    1  LIG1       -0.0003
     11 C           0.4000   -1.7210    0.0000 C.ar    1  LIG1       -0.0042
     12 O           0.7790    2.5830    0.0000 O.2     1  LIG1       -0.2729
     13 C          -0.9500    1.2290    0.0000 C.2     1  LIG1        0.0591
     14 O          -1.6540    0.5040    0.0000 O.co2   1  LIG1       -0.5487
     15 O          -1.2000    2.1830    0.0000 O.co2   1  LIG1       -0.5487
@<TRIPOS>BOND
     1     1     2    1
     2     1     5    1
     3     1    13    1
     4     2     3   am
     5     2    12    2
     6     3     4    1
     7     4     5    1
     8     5     6    1
     9     6     7   ar
    10     6    11   ar
    11     7     8   ar
    12     8     9   ar
    13     9    10   ar
    14    10    11   ar
    15    13    14   ar
    16    13    15   ar
