@<TRIPOS>MOLECULE
25102_ChemDiv_0413-0319
 20 22 0 0 0
SMALL
GASTEIGER
Energy = 0

@<TRIPOS>ATOM
      1 N           0.6750   -0.2420    0.0000 N.am    1  LIG1       -0.2260
      2 C           0.7000   -1.2540    0.0000 C.2     1  LIG1        0.2562
      3 C          -0.1830   -1.7790    0.0000 C.ar    1  LIG1        0.0731
      4 C          -0.1830   -2.7830    0.0000 C.ar    1  LIG1        0.1034
      5 N          -1.0540   -3.2710    0.0000 N.ar    1  LIG1       -0.2422
      6 C          -1.9210   -2.7830    0.0000 C.ar    1  LIG1        0.0989
      7 C          -1.9210   -1.7790    0.0000 C.ar    1  LIG1        0.0208
      8 C          -1.0540   -1.2880    0.0000 C.ar    1  LIG1        0.0077
      9 O           1.5710   -1.7500    0.0000 O.2     1  LIG1       -0.2694
     10 C           1.4670    0.3250    0.0000 C.2     1  LIG1        0.2320
     11 C           1.1750    1.2710    0.0000 C.3     1  LIG1        0.0918
     12 C           0.1670    1.2710    0.0000 C.3     1  LIG1        0.0517
     13 C          -0.1290    0.3250    0.0000 C.3     1  LIG1        0.1060
     14 C          -0.7000    1.7880    0.0000 C.ar    1  LIG1       -0.0203
     15 C          -1.5750    1.2920    0.0000 C.ar    1  LIG1       -0.0042
     16 C          -2.4380    1.7880    0.0000 C.ar    1  LIG1       -0.0003
     17 C          -2.4380    2.7790    0.0000 C.ar    1  LIG1       -0.0000
     18 C          -1.5750    3.2750    0.0000 C.ar    1  LIG1       -0.0003
     19 C          -0.7000    2.7790    0.0000 C.ar    1  LIG1       -0.0042
     20 O           2.4330   -0.0290    0.0000 O.2     1  LIG1       -0.2744
@<TRIPOS>BOND
     1     1     2   am
     2     1    10   am
     3     1    13    1
     4     2     3    1
     5     2     9    2
     6     3     4   ar
     7     3     8   ar
     8     4     5   ar
     9     5     6   ar
    10     6     7   ar
    11     7     8   ar
    12    10    11    1
    13    10    20    2
    14    11    12    1
    15    12    13    1
    16    12    14    1
    17    14    15   ar
    18    14    19   ar
    19    15    16   ar
    20    16    17   ar
    21    17    18   ar
    22    18    19   ar
