@<TRIPOS>MOLECULE
25108_ChemDiv_D237-0226
 28 30 0 0 0
SMALL
GASTEIGER
Energy = 0

@<TRIPOS>ATOM
      1 C          -1.2080   -1.9750    0.0000 C.ar    1  LIG1        0.2062
      2 N          -1.1210   -0.9750    0.0000 N.ar    1  LIG1       -0.1906
      3 C          -0.1460   -0.7500    0.0000 C.ar    1  LIG1        0.2366
      4 O           0.3710   -1.6080    0.0000 O.2     1  LIG1       -0.3370
      5 N          -0.2880   -2.3630    0.0000 N.ar    1  LIG1       -0.0559
      6 C           0.2420    0.1710    0.0000 C.3     1  LIG1        0.0885
      7 C          -0.3580    0.9710    0.0000 C.3     1  LIG1        0.0194
      8 C           0.0330    1.8920    0.0000 C.3     1  LIG1        0.0877
      9 C          -0.5710    2.6880    0.0000 C.2     1  LIG1        0.2456
     10 N          -0.1790    3.6080    0.0000 N.am    1  LIG1       -0.1795
     11 C           0.8080    3.7420    0.0000 C.ar    1  LIG1        0.0694
     12 C           1.1880    4.6630    0.0000 C.ar    1  LIG1       -0.0068
     13 C           2.1880    4.7920    0.0000 C.ar    1  LIG1       -0.0072
     14 C           2.7960    4.0000    0.0000 C.ar    1  LIG1       -0.0221
     15 C           2.4080    3.0830    0.0000 C.ar    1  LIG1       -0.0029
     16 C           1.4170    2.9500    0.0000 C.ar    1  LIG1        0.0160
     17 C           3.7880    4.1250    0.0000 C.3     1  LIG1        0.0310
     18 C           0.5790    5.4540    0.0000 C.3     1  LIG1        0.0324
     19 O          -1.5670    2.5630    0.0000 O.2     1  LIG1       -0.2730
     20 C          -2.0670   -2.4880    0.0000 C.ar    1  LIG1        0.0730
     21 C          -2.0460   -3.4830    0.0000 C.ar    1  LIG1        0.1415
     22 O          -1.1710   -3.9670    0.0000 O.3     1  LIG1       -0.4754
     23 C          -1.1540   -4.9670    0.0000 C.3     1  LIG1        0.2055
     24 C          -0.2790   -5.4540    0.0000 C.3     1  LIG1        0.0512
     25 C          -2.9040   -4.0040    0.0000 C.ar    1  LIG1        0.0370
     26 C          -3.7750   -3.5170    0.0000 C.ar    1  LIG1        0.0031
     27 C          -3.7920   -2.5210    0.0000 C.ar    1  LIG1        0.0003
     28 C          -2.9420   -2.0040    0.0000 C.ar    1  LIG1        0.0062
@<TRIPOS>BOND
     1     1     2   ar
     2     1     5   ar
     3     1    20    1
     4     2     3   ar
     5     3     4   ar
     6     3     6    1
     7     4     5   ar
     8     6     7    1
     9     7     8    1
    10     8     9    1
    11     9    10   am
    12     9    19    2
    13    10    11    1
    14    11    12   ar
    15    11    16   ar
    16    12    13   ar
    17    12    18    1
    18    13    14   ar
    19    14    15   ar
    20    14    17    1
    21    15    16   ar
    22    20    21   ar
    23    20    28   ar
    24    21    22    1
    25    21    25   ar
    26    22    23    1
    27    23    24    1
    28    25    26   ar
    29    26    27   ar
    30    27    28   ar
