@<TRIPOS>MOLECULE
25103_ChemDiv_3820-0983
 21 23 0 0 0
SMALL
GASTEIGER
Energy = 0

@<TRIPOS>ATOM
      1 C          -1.0710    0.9380    0.0000 C.ar    1  LIG1        0.1620
      2 N          -1.6460    0.1170    0.0000 N.ar    1  LIG1       -0.2251
      3 C          -2.5880    0.4290    0.0000 C.ar    1  LIG1        0.1006
      4 C          -2.5880    1.4250    0.0000 C.ar    1  LIG1        0.1006
      5 N          -1.6460    1.7170    0.0000 N.ar    1  LIG1       -0.2251
      6 C          -3.4540    1.9250    0.0000 C.ar    1  LIG1        0.0207
      7 C          -4.3330    1.4250    0.0000 C.ar    1  LIG1        0.0016
      8 C          -4.3330    0.4290    0.0000 C.ar    1  LIG1        0.0016
      9 C          -3.4540   -0.0750    0.0000 C.ar    1  LIG1        0.0207
     10 C          -0.0750    0.8960    0.0000 C.ar    1  LIG1        0.0331
     11 C           0.4040    0.0130    0.0000 C.ar    1  LIG1       -0.0036
     12 C           1.4000   -0.0250    0.0000 C.ar    1  LIG1        0.0695
     13 N           1.8710   -0.9420    0.0000 N.am    1  LIG1       -0.1795
     14 C           2.8670   -0.9960    0.0000 C.2     1  LIG1        0.2455
     15 O           3.4040   -0.1460    0.0000 O.2     1  LIG1       -0.2730
     16 C           3.3330   -1.8670    0.0000 C.3     1  LIG1        0.0872
     17 C           4.3290   -1.9210    0.0000 C.3     1  LIG1        0.0101
     18 C           1.9420    0.8250    0.0000 C.ar    1  LIG1        0.0163
     19 C           1.4540    1.6830    0.0000 C.ar    1  LIG1        0.0014
     20 C           0.4750    1.7330    0.0000 C.ar    1  LIG1        0.0028
     21 C          -0.1630   -0.8540    0.0000 C.3     1  LIG1        0.0325
@<TRIPOS>BOND
     1     1     2   ar
     2     1     5   ar
     3     1    10    1
     4     2     3   ar
     5     3     4   ar
     6     3     9   ar
     7     4     5   ar
     8     4     6   ar
     9     6     7   ar
    10     7     8   ar
    11     8     9   ar
    12    10    11   ar
    13    10    20   ar
    14    11    12   ar
    15    11    21    1
    16    12    13    1
    17    12    18   ar
    18    13    14   am
    19    14    15    2
    20    14    16    1
    21    16    17    1
    22    18    19   ar
    23    19    20   ar
