@<TRIPOS>MOLECULE
25124_ChemDiv_3527-0162
 20 21 0 0 0
SMALL
GASTEIGER
Energy = 0

@<TRIPOS>ATOM
      1 C          -0.2000   -0.7880    0.0000 C.3     1  LIG1        0.2025
      2 C          -0.5080    0.1290    0.0000 C.3     1  LIG1        0.0652
      3 C          -1.4790    0.1290    0.0000 C.3     1  LIG1        0.0938
      4 C          -1.7790   -0.7880    0.0000 C.2     1  LIG1        0.2425
      5 N          -0.9960   -1.3630    0.0000 N.am    1  LIG1       -0.1922
      6 O          -2.7000   -1.0880    0.0000 O.2     1  LIG1       -0.2733
      7 C           0.0580    0.9210    0.0000 C.ar    1  LIG1       -0.0195
      8 C           1.0290    0.8130    0.0000 C.ar    1  LIG1       -0.0042
      9 C           1.5960    1.6080    0.0000 C.ar    1  LIG1       -0.0003
     10 C           1.2080    2.4750    0.0000 C.ar    1  LIG1       -0.0000
     11 C           0.2330    2.5790    0.0000 C.ar    1  LIG1       -0.0003
     12 C          -0.3290    1.8130    0.0000 C.ar    1  LIG1       -0.0042
     13 C           0.6670   -1.6830    0.0000 C.2     1  LIG1        0.0788
     14 O           0.2790   -2.5750    0.0000 O.co2   1  LIG1       -0.5469
     15 O           1.8710   -1.6830    0.0000 O.co2   1  LIG1       -0.5469
     16 C           0.7880   -0.4380    0.0000 C.2     1  LIG1        0.3402
     17 O           0.9920    0.5170    0.0000 O.2     1  LIG1       -0.2478
     18 O           1.5250   -1.1500    0.0000 O.3     1  LIG1       -0.4471
     19 C           2.4540   -0.8920    0.0000 C.3     1  LIG1        0.2086
     20 C           2.6960    0.0380    0.0000 C.3     1  LIG1        0.0513
@<TRIPOS>BOND
     1     1     2    1
     2     1     5    1
     3     1    13    1
     4     1    16    1
     5     2     3    1
     6     2     7    1
     7     3     4    1
     8     4     5   am
     9     4     6    2
    10     7     8   ar
    11     7    12   ar
    12     8     9   ar
    13     9    10   ar
    14    10    11   ar
    15    11    12   ar
    16    13    14   ar
    17    13    15   ar
    18    16    17    2
    19    16    18    1
    20    18    19    1
    21    19    20    1
