@<TRIPOS>MOLECULE
25120_ChemDiv_7815-0256
 20 22 0 0 0
SMALL
GASTEIGER
Energy = 0

@<TRIPOS>ATOM
      1 C          -1.1580    1.5630    0.0000 C.ar    1  LIG1        0.0326
      2 C          -0.1670    1.6670    0.0000 C.ar    1  LIG1        0.0773
      3 N           0.2330    0.7580    0.0000 N.ar    1  LIG1       -0.3218
      4 C          -0.5080    0.0920    0.0000 C.ar    1  LIG1        0.0602
      5 C          -1.3710    0.5920    0.0000 C.ar    1  LIG1        0.0183
      6 C          -2.2330    0.0830    0.0000 C.ar    1  LIG1        0.0015
      7 C          -2.2330   -0.9170    0.0000 C.ar    1  LIG1        0.0001
      8 C          -1.3710   -1.4170    0.0000 C.ar    1  LIG1        0.0015
      9 C          -0.5000   -0.9170    0.0000 C.ar    1  LIG1        0.0172
     10 C           1.2170    0.5460    0.0000 C.3     1  LIG1        0.1328
     11 C           1.5210   -0.4080    0.0000 C.ar    1  LIG1        0.0004
     12 C           2.5000   -0.6040    0.0000 C.ar    1  LIG1       -0.0015
     13 C           2.8080   -1.5580    0.0000 C.ar    1  LIG1        0.0111
     14 C           2.1330   -2.3000    0.0000 C.ar    1  LIG1        0.0577
     15 CL          2.4420   -3.2540    0.0000 Cl      1  LIG1       -0.0822
     16 C           1.1540   -2.0960    0.0000 C.ar    1  LIG1        0.0111
     17 C           0.8540   -1.1420    0.0000 C.ar    1  LIG1       -0.0015
     18 C          -1.8250    2.3040    0.0000 C.2     1  LIG1        0.0743
     19 O          -1.5250    3.2580    0.0000 O.co2   1  LIG1       -0.5445
     20 O          -2.8130    2.0960    0.0000 O.co2   1  LIG1       -0.5445
@<TRIPOS>BOND
     1     1     2   ar
     2     1     5   ar
     3     1    18    1
     4     2     3   ar
     5     3     4   ar
     6     3    10    1
     7     4     5   ar
     8     4     9   ar
     9     5     6   ar
    10     6     7   ar
    11     7     8   ar
    12     8     9   ar
    13    10    11    1
    14    11    12   ar
    15    11    17   ar
    16    12    13   ar
    17    13    14   ar
    18    14    15    1
    19    14    16   ar
    20    16    17   ar
    21    18    19   ar
    22    18    20   ar
