@<TRIPOS>MOLECULE
25126_ChemDiv_4029-0109
 13 14 0 0 0
SMALL
GASTEIGER
Energy = 0

@<TRIPOS>ATOM
      1 C           0.0330   -0.4960    0.0000 C.3     1  LIG1        0.0477
      2 C          -0.9630   -0.4960    0.0000 C.3     1  LIG1        0.0925
      3 C          -1.2630   -1.4330    0.0000 C.2     1  LIG1        0.2418
      4 N          -0.4540   -2.0250    0.0000 N.am    1  LIG1       -0.2051
      5 C           0.3460   -1.4330    0.0000 C.3     1  LIG1        0.1195
      6 O          -2.2080   -1.7420    0.0000 O.2     1  LIG1       -0.2733
      7 C           0.6250    0.3170    0.0000 C.ar    1  LIG1       -0.0207
      8 C           0.2290    1.2290    0.0000 C.ar    1  LIG1       -0.0042
      9 C           0.8080    2.0290    0.0000 C.ar    1  LIG1       -0.0003
     10 C           1.7960    1.9210    0.0000 C.ar    1  LIG1       -0.0000
     11 C           2.2040    1.0250    0.0000 C.ar    1  LIG1       -0.0003
     12 C           1.6210    0.2130    0.0000 C.ar    1  LIG1       -0.0042
     13 C           1.0750   -0.7830    0.0000 C.3     1  LIG1        0.0066
@<TRIPOS>BOND
     1     1     2    1
     2     1     5    1
     3     1     7    1
     4     1    13    1
     5     2     3    1
     6     3     4   am
     7     3     6    2
     8     4     5    1
     9     7     8   ar
    10     7    12   ar
    11     8     9   ar
    12     9    10   ar
    13    10    11   ar
    14    11    12   ar
