@<TRIPOS>MOLECULE
25128_ChemDiv_4029-0111
 15 16 0 0 0
SMALL
GASTEIGER
Energy = 0

@<TRIPOS>ATOM
      1 N          -0.4580   -1.2830    0.0000 N.am    1  LIG1       -0.2296
      2 C          -1.2710   -0.7000    0.0000 C.2     1  LIG1        0.2317
      3 C          -0.9710    0.2540    0.0000 C.3     1  LIG1        0.0917
      4 C           0.0330    0.2540    0.0000 C.3     1  LIG1        0.0517
      5 C           0.3460   -0.7000    0.0000 C.3     1  LIG1        0.1056
      6 C           0.6330    1.0710    0.0000 C.ar    1  LIG1       -0.0203
      7 C           0.2290    1.9960    0.0000 C.ar    1  LIG1       -0.0042
      8 C           0.8170    2.7830    0.0000 C.ar    1  LIG1       -0.0003
      9 C           1.8080    2.6790    0.0000 C.ar    1  LIG1       -0.0000
     10 C           2.2210    1.7790    0.0000 C.ar    1  LIG1       -0.0003
     11 C           1.6380    0.9710    0.0000 C.ar    1  LIG1       -0.0042
     12 O          -2.2250   -1.0040    0.0000 O.2     1  LIG1       -0.2745
     13 C          -0.4580   -2.2880    0.0000 C.2     1  LIG1        0.2318
     14 O           0.4040   -2.7790    0.0000 O.2     1  LIG1       -0.2745
     15 C          -1.3290   -2.7790    0.0000 C.3     1  LIG1        0.0953
@<TRIPOS>BOND
     1     1     2   am
     2     1     5    1
     3     1    13   am
     4     2     3    1
     5     2    12    2
     6     3     4    1
     7     4     5    1
     8     4     6    1
     9     6     7   ar
    10     6    11   ar
    11     7     8   ar
    12     8     9   ar
    13     9    10   ar
    14    10    11   ar
    15    13    14    2
    16    13    15    1
