@<TRIPOS>MOLECULE
25121_ChemDiv_4432-2231
 41 45 0 0 0
SMALL
GASTEIGER
Energy = 0

@<TRIPOS>ATOM
      1 N          -0.1750    2.7710    0.0000 N.ar    1  LIG1       -0.2250
      2 C           0.3750    1.9210    0.0000 C.ar    1  LIG1        0.1623
      3 N          -0.1750    1.1670    0.0000 N.ar    1  LIG1       -0.2251
      4 C          -1.1580    1.4580    0.0000 C.ar    1  LIG1        0.1007
      5 C          -1.1580    2.4880    0.0000 C.ar    1  LIG1        0.1019
      6 C          -2.0460    2.9830    0.0000 C.ar    1  LIG1        0.0373
      7 C          -2.8960    2.4880    0.0000 C.ar    1  LIG1        0.0753
      8 N          -3.7380    3.0210    0.0000 N.am    1  LIG1       -0.1754
      9 C          -4.5960    2.5580    0.0000 C.2     1  LIG1        0.2690
     10 C          -4.5960    1.5920    0.0000 C.ar    1  LIG1        0.0555
     11 C          -5.4920    1.0710    0.0000 C.ar    1  LIG1        0.0059
     12 C          -5.5210    0.1130    0.0000 C.ar    1  LIG1        0.0167
     13 C          -4.6420   -0.4210    0.0000 C.ar    1  LIG1        0.0734
     14 N          -4.6420   -1.3830    0.0000 N.am    1  LIG1       -0.1792
     15 C          -3.8170   -1.8790    0.0000 C.2     1  LIG1        0.2461
     16 O          -2.8960   -1.4830    0.0000 O.2     1  LIG1       -0.2730
     17 C          -3.8460   -2.7960    0.0000 C.3     1  LIG1        0.0968
     18 C          -3.7920    0.0790    0.0000 C.ar    1  LIG1        0.0167
     19 C          -3.7750    1.0630    0.0000 C.ar    1  LIG1        0.0059
     20 O          -5.4750    3.0920    0.0000 O.2     1  LIG1       -0.2680
     21 C          -2.8960    1.4170    0.0000 C.ar    1  LIG1        0.0183
     22 C          -2.0460    0.9540    0.0000 C.ar    1  LIG1        0.0220
     23 C           1.3580    1.8830    0.0000 C.ar    1  LIG1        0.0359
     24 C           2.0750    2.5580    0.0000 C.ar    1  LIG1        0.0044
     25 C           3.0170    2.3130    0.0000 C.ar    1  LIG1        0.0167
     26 C           3.3080    1.3250    0.0000 C.ar    1  LIG1        0.0737
     27 N           4.3380    1.0330    0.0000 N.am    1  LIG1       -0.1754
     28 C           4.5830    0.0500    0.0000 C.2     1  LIG1        0.2690
     29 C           3.8670   -0.6330    0.0000 C.ar    1  LIG1        0.0555
     30 C           2.9250   -0.3210    0.0000 C.ar    1  LIG1        0.0059
     31 C           2.1670   -1.0130    0.0000 C.ar    1  LIG1        0.0167
     32 C           2.4210   -1.9880    0.0000 C.ar    1  LIG1        0.0734
     33 N           1.6500   -2.7130    0.0000 N.am    1  LIG1       -0.1792
     34 C           0.7210   -2.3670    0.0000 C.2     1  LIG1        0.2461
     35 O          -0.0500   -3.0880    0.0000 O.2     1  LIG1       -0.2730
     36 C           0.5080   -1.3830    0.0000 C.3     1  LIG1        0.0968
     37 C           3.3540   -2.2880    0.0000 C.ar    1  LIG1        0.0167
     38 C           4.0790   -1.5960    0.0000 C.ar    1  LIG1        0.0059
     39 O           5.5170   -0.2040    0.0000 O.2     1  LIG1       -0.2680
     40 C           2.5920    0.6460    0.0000 C.ar    1  LIG1        0.0167
     41 C           1.6080    0.9000    0.0000 C.ar    1  LIG1        0.0044
@<TRIPOS>BOND
     1     1     2   ar
     2     1     5   ar
     3     2     3   ar
     4     2    23    1
     5     3     4   ar
     6     4     5   ar
     7     4    22   ar
     8     5     6   ar
     9     6     7   ar
    10     7     8    1
    11     7    21   ar
    12     8     9   am
    13     9    10    1
    14     9    20    2
    15    10    11   ar
    16    10    19   ar
    17    11    12   ar
    18    12    13   ar
    19    13    14    1
    20    13    18   ar
    21    14    15   am
    22    15    16    2
    23    15    17    1
    24    18    19   ar
    25    21    22   ar
    26    23    24   ar
    27    23    41   ar
    28    24    25   ar
    29    25    26   ar
    30    26    27    1
    31    26    40   ar
    32    27    28   am
    33    28    29    1
    34    28    39    2
    35    29    30   ar
    36    29    38   ar
    37    30    31   ar
    38    31    32   ar
    39    32    33    1
    40    32    37   ar
    41    33    34   am
    42    34    35    2
    43    34    36    1
    44    37    38   ar
    45    40    41   ar
