@<TRIPOS>MOLECULE
25122_ChemDiv_1546-0059
 18 20 0 0 0
SMALL
GASTEIGER
Energy = 0

@<TRIPOS>ATOM
      1 N           1.0040   -0.3960    0.0000 N.4     1  LIG1        0.3751
      2 C           0.0500   -0.0830    0.0000 C.3     1  LIG1        0.1428
      3 C          -0.5460   -0.8920    0.0000 C.3     1  LIG1        0.0852
      4 C           0.0500   -1.7130    0.0000 C.3     1  LIG1        0.0730
      5 C           1.0040   -1.3880    0.0000 C.3     1  LIG1        0.1389
      6 C          -1.5380   -0.8920    0.0000 C.ar    1  LIG1       -0.0166
      7 C          -2.0210   -1.7630    0.0000 C.ar    1  LIG1       -0.0041
      8 C          -3.0130   -1.7630    0.0000 C.ar    1  LIG1       -0.0003
      9 C          -3.5380   -0.8920    0.0000 C.ar    1  LIG1       -0.0000
     10 C          -3.0130   -0.0170    0.0000 C.ar    1  LIG1       -0.0003
     11 C          -2.0210   -0.0170    0.0000 C.ar    1  LIG1       -0.0041
     12 C           1.8130    0.1960    0.0000 C.3     1  LIG1        0.1176
     13 C           1.7040    1.1880    0.0000 C.3     1  LIG1        0.2024
     14 O           0.8040    1.5880    0.0000 O.3     1  LIG1       -0.2170
     15 C           2.5130    1.7670    0.0000 C.3     1  LIG1        0.0389
     16 C           3.4210    1.3540    0.0000 C.3     1  LIG1        0.0030
     17 C           3.5330    0.3630    0.0000 C.3     1  LIG1        0.0061
     18 C           2.7210   -0.2170    0.0000 C.3     1  LIG1        0.0594
@<TRIPOS>BOND
     1     1     2    1
     2     1     5    1
     3     1    12    1
     4     2     3    1
     5     3     4    1
     6     3     6    1
     7     4     5    1
     8     6     7   ar
     9     6    11   ar
    10     7     8   ar
    11     8     9   ar
    12     9    10   ar
    13    10    11   ar
    14    12    13    1
    15    12    18    1
    16    13    14    1
    17    13    15    1
    18    15    16    1
    19    16    17    1
    20    17    18    1
