@<TRIPOS>MOLECULE
25138_ChemDiv_0369-0016
 29 31 0 0 0
SMALL
GASTEIGER
Energy = 0

@<TRIPOS>ATOM
      1 S           2.0920    1.2380    0.0000 S.O2    1  LIG1       -0.0568
      2 N           2.0920    2.2250    0.0000 N.pl3   1  LIG1       -0.5168
      3 C           1.2250    2.7210    0.0000 C.ar    1  LIG1        0.0281
      4 C           0.3630    2.2250    0.0000 C.ar    1  LIG1        0.2201
      5 N          -0.5130    2.7210    0.0000 N.ar    1  LIG1       -0.2088
      6 C          -0.5130    3.7250    0.0000 C.ar    1  LIG1        0.1226
      7 C           0.3630    4.2290    0.0000 C.ar    1  LIG1        0.1175
      8 N           1.2250    3.7250    0.0000 N.ar    1  LIG1       -0.2612
      9 O           0.3380    1.3000    0.0000 O.3     1  LIG1       -0.4564
     10 C          -0.6920    0.8330    0.0000 C.3     1  LIG1        0.2542
     11 C           2.0920    0.2380    0.0000 C.ar    1  LIG1        0.0894
     12 C           2.9420   -0.2460    0.0000 C.ar    1  LIG1        0.0182
     13 C           2.9420   -1.2460    0.0000 C.ar    1  LIG1        0.0179
     14 C           2.0920   -1.7460    0.0000 C.ar    1  LIG1        0.0738
     15 N           2.0920   -2.7540    0.0000 N.am    1  LIG1       -0.1754
     16 C           1.2250   -3.2420    0.0000 C.2     1  LIG1        0.2690
     17 C           0.3500   -2.7540    0.0000 C.ar    1  LIG1        0.0556
     18 C           0.3500   -1.7250    0.0000 C.ar    1  LIG1        0.0077
     19 C          -0.5130   -1.2420    0.0000 C.ar    1  LIG1        0.0370
     20 C          -1.3750   -1.7250    0.0000 C.ar    1  LIG1        0.1387
     21 C          -1.3750   -2.7540    0.0000 C.ar    1  LIG1        0.0370
     22 C          -0.5130   -3.2420    0.0000 C.ar    1  LIG1        0.0077
     23 O          -2.2290   -1.2420    0.0000 O.3     1  LIG1       -0.4714
     24 C          -3.0920   -1.7250    0.0000 C.3     1  LIG1        0.2525
     25 O           1.2250   -4.2290    0.0000 O.2     1  LIG1       -0.2680
     26 C           1.2250   -1.2460    0.0000 C.ar    1  LIG1        0.0179
     27 C           1.2250   -0.2460    0.0000 C.ar    1  LIG1        0.0182
     28 O           3.0880    1.2380    0.0000 O.2     1  LIG1       -0.1841
     29 O           1.0880    1.2380    0.0000 O.2     1  LIG1       -0.1841
@<TRIPOS>BOND
     1     1     2    1
     2     1    11    1
     3     1    28    2
     4     1    29    2
     5     2     3    1
     6     3     4   ar
     7     3     8   ar
     8     4     5   ar
     9     4     9    1
    10     5     6   ar
    11     6     7   ar
    12     7     8   ar
    13     9    10    1
    14    11    12   ar
    15    11    27   ar
    16    12    13   ar
    17    13    14   ar
    18    14    15    1
    19    14    26   ar
    20    15    16   am
    21    16    17    1
    22    16    25    2
    23    17    18   ar
    24    17    22   ar
    25    18    19   ar
    26    19    20   ar
    27    20    21   ar
    28    20    23    1
    29    21    22   ar
    30    23    24    1
    31    26    27   ar
