@<TRIPOS>MOLECULE
25130_ChemDiv_4029-0112
 19 21 0 0 0
SMALL
GASTEIGER
Energy = 0

@<TRIPOS>ATOM
      1 N          -0.4580   -0.5290    0.0000 N.am    1  LIG1       -0.2751
      2 C          -1.2710    0.0540    0.0000 C.2     1  LIG1        0.2263
      3 C          -0.9710    1.0080    0.0000 C.3     1  LIG1        0.0913
      4 C           0.0330    1.0080    0.0000 C.3     1  LIG1        0.0512
      5 C           0.3460    0.0540    0.0000 C.3     1  LIG1        0.0985
      6 C           0.6290    1.8210    0.0000 C.ar    1  LIG1       -0.0204
      7 C           1.6330    1.7210    0.0000 C.ar    1  LIG1       -0.0042
      8 C           2.2210    2.5250    0.0000 C.ar    1  LIG1       -0.0003
      9 C           1.8080    3.4250    0.0000 C.ar    1  LIG1       -0.0000
     10 C           0.8130    3.5330    0.0000 C.ar    1  LIG1       -0.0003
     11 C           0.2290    2.7290    0.0000 C.ar    1  LIG1       -0.0042
     12 O          -2.2250   -0.2500    0.0000 O.2     1  LIG1       -0.2748
     13 C          -0.4580   -1.5330    0.0000 C.3     1  LIG1        0.1201
     14 C           0.4000   -2.0420    0.0000 C.ar    1  LIG1       -0.0023
     15 C           0.4000   -3.0420    0.0000 C.ar    1  LIG1       -0.0026
     16 C           1.2710   -3.5290    0.0000 C.ar    1  LIG1       -0.0003
     17 C           2.1420   -3.0420    0.0000 C.ar    1  LIG1       -0.0000
     18 C           2.1420   -2.0420    0.0000 C.ar    1  LIG1       -0.0003
     19 C           1.2710   -1.5330    0.0000 C.ar    1  LIG1       -0.0026
@<TRIPOS>BOND
     1     1     2   am
     2     1     5    1
     3     1    13    1
     4     2     3    1
     5     2    12    2
     6     3     4    1
     7     4     5    1
     8     4     6    1
     9     6     7   ar
    10     6    11   ar
    11     7     8   ar
    12     8     9   ar
    13     9    10   ar
    14    10    11   ar
    15    13    14    1
    16    14    15   ar
    17    14    19   ar
    18    15    16   ar
    19    16    17   ar
    20    17    18   ar
    21    18    19   ar
