@<TRIPOS>MOLECULE
25135_ChemDiv_3586-0177
 18 20 0 0 0
SMALL
GASTEIGER
Energy = 0

@<TRIPOS>ATOM
      1 O           0.6500    1.3920    0.0000 O.3     1  LIG1       -0.4400
      2 C           0.0790    2.2170    0.0000 C.2     1  LIG1        0.3415
      3 C          -0.9080    1.9710    0.0000 C.ar    1  LIG1        0.0754
      4 C          -0.9080    0.9000    0.0000 C.ar    1  LIG1        0.0278
      5 C           0.0790    0.6500    0.0000 C.3     1  LIG1        0.2140
      6 C           0.3210   -0.3210    0.0000 C.ar    1  LIG1        0.0224
      7 C           1.3080   -0.4880    0.0000 C.ar    1  LIG1        0.0106
      8 C           1.6330   -1.4710    0.0000 C.ar    1  LIG1        0.0535
      9 C           0.9830   -2.2130    0.0000 C.ar    1  LIG1       -0.0113
     10 C           0.0790   -2.0420    0.0000 C.ar    1  LIG1       -0.0036
     11 C          -0.2460   -1.0580    0.0000 C.ar    1  LIG1       -0.0007
     12 C           1.3080   -3.1880    0.0000 C.3     1  LIG1        0.0319
     13 CL          2.6170   -1.6330    0.0000 Cl      1  LIG1       -0.0826
     14 C          -1.7250    0.4170    0.0000 C.ar    1  LIG1       -0.0003
     15 C          -2.6210    0.9000    0.0000 C.ar    1  LIG1       -0.0002
     16 C          -2.6210    1.9710    0.0000 C.ar    1  LIG1        0.0002
     17 C          -1.7250    2.4580    0.0000 C.ar    1  LIG1        0.0062
     18 O           0.3210    3.1920    0.0000 O.2     1  LIG1       -0.2449
@<TRIPOS>BOND
     1     1     2    1
     2     1     5    1
     3     2     3    1
     4     2    18    2
     5     3     4   ar
     6     3    17   ar
     7     4     5    1
     8     4    14   ar
     9     5     6    1
    10     6     7   ar
    11     6    11   ar
    12     7     8   ar
    13     8     9   ar
    14     8    13    1
    15     9    10   ar
    16     9    12    1
    17    10    11   ar
    18    14    15   ar
    19    15    16   ar
    20    16    17   ar
