@<TRIPOS>MOLECULE
25136_ChemDiv_5918-0993
 24 26 0 0 0
SMALL
GASTEIGER
Energy = 0

@<TRIPOS>ATOM
      1 N          -0.3500    1.2210    0.0000 N.am    1  LIG1       -0.2693
      2 C          -0.6540    2.1580    0.0000 C.2     1  LIG1        0.2264
      3 C          -1.6460    2.1710    0.0000 C.3     1  LIG1        0.0913
      4 C          -1.9580    1.2380    0.0000 C.3     1  LIG1        0.0512
      5 C          -1.1420    0.6380    0.0000 C.3     1  LIG1        0.0987
      6 C          -2.9040    0.9170    0.0000 C.ar    1  LIG1       -0.0204
      7 C          -3.1130   -0.0540    0.0000 C.ar    1  LIG1       -0.0042
      8 C          -4.0710   -0.3580    0.0000 C.ar    1  LIG1       -0.0003
      9 C          -4.8130    0.3130    0.0000 C.ar    1  LIG1       -0.0000
     10 C          -4.6040    1.2960    0.0000 C.ar    1  LIG1       -0.0003
     11 C          -3.6460    1.6000    0.0000 C.ar    1  LIG1       -0.0042
     12 O          -0.0500    2.9750    0.0000 O.2     1  LIG1       -0.2748
     13 C           0.6040    0.9130    0.0000 C.3     1  LIG1        0.2040
     14 C           0.8040   -0.0750    0.0000 C.2     1  LIG1        0.3378
     15 O           1.7540   -0.3920    0.0000 O.3     1  LIG1       -0.4422
     16 C           1.9580   -1.3750    0.0000 C.3     1  LIG1        0.2373
     17 C           2.9080   -1.6790    0.0000 C.ar    1  LIG1        0.0487
     18 C           3.6540   -1.0080    0.0000 C.ar    1  LIG1        0.1396
     19 F           3.4460   -0.0380    0.0000 F       1  LIG1       -0.2044
     20 C           4.6000   -1.3290    0.0000 C.ar    1  LIG1        0.0294
     21 C           4.8080   -2.3040    0.0000 C.ar    1  LIG1        0.0023
     22 C           4.0630   -2.9710    0.0000 C.ar    1  LIG1       -0.0001
     23 C           3.1130   -2.6630    0.0000 C.ar    1  LIG1        0.0016
     24 O           0.0540   -0.7420    0.0000 O.2     1  LIG1       -0.2482
@<TRIPOS>BOND
     1     1     2   am
     2     1     5    1
     3     1    13    1
     4     2     3    1
     5     2    12    2
     6     3     4    1
     7     4     5    1
     8     4     6    1
     9     6     7   ar
    10     6    11   ar
    11     7     8   ar
    12     8     9   ar
    13     9    10   ar
    14    10    11   ar
    15    13    14    1
    16    14    15    1
    17    14    24    2
    18    15    16    1
    19    16    17    1
    20    17    18   ar
    21    17    23   ar
    22    18    19    1
    23    18    20   ar
    24    20    21   ar
    25    21    22   ar
    26    22    23   ar
