@<TRIPOS>MOLECULE
25132_ChemDiv_4364-0169
 17 18 0 0 0
SMALL
GASTEIGER
Energy = 0

@<TRIPOS>ATOM
      1 C           0.1170   -0.4500    0.0000 C.3     1  LIG1        0.1978
      2 N          -0.6830   -1.0330    0.0000 N.am    1  LIG1       -0.1954
      3 C          -1.5040   -0.4500    0.0000 C.2     1  LIG1        0.2422
      4 C          -1.1960    0.5040    0.0000 C.3     1  LIG1        0.0935
      5 C          -0.1880    0.5040    0.0000 C.3     1  LIG1        0.0623
      6 C           0.4000    1.3210    0.0000 C.ar    1  LIG1       -0.0198
      7 C           1.3880    1.2080    0.0000 C.ar    1  LIG1       -0.0042
      8 C           1.9880    2.0250    0.0000 C.ar    1  LIG1       -0.0003
      9 C           1.5710    2.9250    0.0000 C.ar    1  LIG1       -0.0000
     10 C           0.5830    3.0250    0.0000 C.ar    1  LIG1       -0.0003
     11 C          -0.0170    2.2420    0.0000 C.ar    1  LIG1       -0.0042
     12 O          -2.4460   -0.7500    0.0000 O.2     1  LIG1       -0.2733
     13 C           1.0710   -0.7500    0.0000 C.2     1  LIG1        0.3373
     14 O           1.8170   -0.0830    0.0000 O.2     1  LIG1       -0.2482
     15 O           1.2830   -1.7460    0.0000 O.3     1  LIG1       -0.4473
     16 C           2.2330   -2.0540    0.0000 C.3     1  LIG1        0.2086
     17 C           2.4420   -3.0210    0.0000 C.3     1  LIG1        0.0513
@<TRIPOS>BOND
     1     1     2    1
     2     1     5    1
     3     1    13    1
     4     2     3   am
     5     3     4    1
     6     3    12    2
     7     5     4    1
     8     5     6    1
     9     6     7   ar
    10     6    11   ar
    11     7     8   ar
    12     8     9   ar
    13     9    10   ar
    14    10    11   ar
    15    13    14    2
    16    13    15    1
    17    15    16    1
    18    16    17    1
