@<TRIPOS>MOLECULE
25134_ChemDiv_5269-0443
 22 24 0 0 0
SMALL
GASTEIGER
Energy = 0

@<TRIPOS>ATOM
      1 N           0.7460    0.0000    0.0000 N.am    1  LIG1       -0.2762
      2 C          -0.1210   -0.5000    0.0000 C.2     1  LIG1        0.2702
      3 C          -0.9920    0.0000    0.0000 C.3     1  LIG1        0.2896
      4 O          -1.8580   -0.4960    0.0000 O.3     1  LIG1       -0.4656
      5 C          -2.7250    0.0000    0.0000 C.ar    1  LIG1        0.1394
      6 C          -2.7080    1.0000    0.0000 C.ar    1  LIG1        0.0392
      7 C          -3.5750    1.5080    0.0000 C.ar    1  LIG1        0.0327
      8 C          -4.4420    1.0000    0.0000 C.ar    1  LIG1        0.1403
      9 F          -5.3130    1.5000    0.0000 F       1  LIG1       -0.2042
     10 C          -4.4420    0.0000    0.0000 C.ar    1  LIG1        0.0327
     11 C          -3.5750   -0.4960    0.0000 C.ar    1  LIG1        0.0392
     12 O          -0.1210   -1.5040    0.0000 O.2     1  LIG1       -0.2708
     13 C           1.6710   -0.4130    0.0000 C.3     1  LIG1        0.0979
     14 C           2.3380    0.3330    0.0000 C.3     1  LIG1        0.0439
     15 C           1.8290    1.2000    0.0000 C.3     1  LIG1        0.0276
     16 C           0.8500    0.9880    0.0000 C.3     1  LIG1        0.0939
     17 C           3.3210    0.2330    0.0000 C.ar    1  LIG1       -0.0208
     18 C           3.7380   -0.6960    0.0000 C.ar    1  LIG1       -0.0042
     19 C           4.7210   -0.7830    0.0000 C.ar    1  LIG1       -0.0003
     20 C           5.3080    0.0170    0.0000 C.ar    1  LIG1       -0.0000
     21 C           4.9000    0.9330    0.0000 C.ar    1  LIG1       -0.0003
     22 C           3.9040    1.0380    0.0000 C.ar    1  LIG1       -0.0042
@<TRIPOS>BOND
     1     1     2   am
     2     1    13    1
     3     1    16    1
     4     2     3    1
     5     2    12    2
     6     3     4    1
     7     4     5    1
     8     5     6   ar
     9     5    11   ar
    10     6     7   ar
    11     7     8   ar
    12     8     9    1
    13     8    10   ar
    14    10    11   ar
    15    13    14    1
    16    14    15    1
    17    14    17    1
    18    15    16    1
    19    17    18   ar
    20    17    22   ar
    21    18    19   ar
    22    19    20   ar
    23    20    21   ar
    24    21    22   ar
