@<TRIPOS>MOLECULE
25133_ChemDiv_1756-0115
 21 23 0 0 0
SMALL
GASTEIGER
Energy = 0

@<TRIPOS>ATOM
      1 C           0.1000    0.0790    0.0000 C.3     1  LIG1        0.2734
      2 O          -0.5250    0.8170    0.0000 O.3     1  LIG1       -0.4200
      3 C           0.0880    1.6630    0.0000 C.2     1  LIG1        0.3431
      4 C           1.0170    1.3790    0.0000 C.ar    1  LIG1        0.0777
      5 C           1.0170    0.4170    0.0000 C.ar    1  LIG1        0.0514
      6 C           1.9290   -0.1170    0.0000 C.ar    1  LIG1        0.0021
      7 C           2.7960    0.4040    0.0000 C.ar    1  LIG1       -0.0001
      8 C           2.7960    1.3830    0.0000 C.ar    1  LIG1        0.0002
      9 C           1.9210    1.8750    0.0000 C.ar    1  LIG1        0.0063
     10 O          -0.2420    2.6210    0.0000 O.2     1  LIG1       -0.2448
     11 O           0.6500   -0.8080    0.0000 O.3     1  LIG1       -0.3077
     12 C           0.1960   -1.6830    0.0000 C.3     1  LIG1        0.1832
     13 C          -0.7920   -1.7290    0.0000 C.1     1  LIG1       -0.0488
     14 C          -1.2500   -2.6170    0.0000 C.1     1  LIG1       -0.0117
     15 C           0.7330   -2.5250    0.0000 C.3     1  LIG1        0.0468
     16 C          -0.8630   -0.1460    0.0000 C.ar    1  LIG1        0.0452
     17 C          -1.5380    0.5750    0.0000 C.ar    1  LIG1        0.0019
     18 C          -2.5210    0.3460    0.0000 C.ar    1  LIG1       -0.0001
     19 C          -2.8000   -0.6000    0.0000 C.ar    1  LIG1       -0.0000
     20 C          -2.1380   -1.3250    0.0000 C.ar    1  LIG1       -0.0001
     21 C          -1.1420   -1.1040    0.0000 C.ar    1  LIG1        0.0019
@<TRIPOS>BOND
     1     1     2    1
     2     1     5    1
     3     1    11    1
     4     1    16    1
     5     2     3    1
     6     3     4    1
     7     3    10    2
     8     4     5   ar
     9     4     9   ar
    10     5     6   ar
    11     6     7   ar
    12     7     8   ar
    13     8     9   ar
    14    11    12    1
    15    12    13    1
    16    12    15    1
    17    13    14    3
    18    16    17   ar
    19    16    21   ar
    20    17    18   ar
    21    18    19   ar
    22    19    20   ar
    23    20    21   ar
