@<TRIPOS>MOLECULE
25144_ChemDiv_0380-0034
 25 27 0 0 0
SMALL
GASTEIGER
Energy = 0

@<TRIPOS>ATOM
      1 C          -1.4290    0.5670    0.0000 C.ar    1  LIG1        0.1660
      2 N          -2.0210   -0.2630    0.0000 N.ar    1  LIG1       -0.3027
      3 C          -2.9710    0.0380    0.0000 C.ar    1  LIG1        0.0631
      4 C          -2.9710    1.0500    0.0000 C.ar    1  LIG1        0.0382
      5 C          -2.0210    1.3630    0.0000 C.ar    1  LIG1        0.1383
      6 N          -1.5830    2.2710    0.0000 N.ar    1  LIG1       -0.1429
      7 N          -0.5880    2.3710    0.0000 N.ar    1  LIG1       -0.1217
      8 C          -0.0170    1.5580    0.0000 C.ar    1  LIG1        0.2120
      9 N          -0.4380    0.6580    0.0000 N.ar    1  LIG1       -0.2008
     10 S           0.9960    1.6210    0.0000 S.3     1  LIG1       -0.0677
     11 C           1.5460    0.8080    0.0000 C.3     1  LIG1        0.1277
     12 C           2.5630    0.8790    0.0000 C.3     1  LIG1        0.1509
     13 N           3.1170    0.0380    0.0000 N.4     1  LIG1        0.3779
     14 C           2.6960   -0.8420    0.0000 C.3     1  LIG1        0.1388
     15 C           1.7040   -0.9330    0.0000 C.3     1  LIG1        0.0688
     16 C           4.1290    0.1250    0.0000 C.3     1  LIG1        0.1388
     17 C           4.6790   -0.7130    0.0000 C.3     1  LIG1        0.0688
     18 C          -3.8250    1.5580    0.0000 C.ar    1  LIG1        0.0031
     19 C          -4.6830    1.0500    0.0000 C.ar    1  LIG1        0.0001
     20 C          -4.6830    0.0380    0.0000 C.ar    1  LIG1        0.0015
     21 C          -3.8250   -0.4420    0.0000 C.ar    1  LIG1        0.0173
     22 C          -1.6920   -1.2130    0.0000 C.3     1  LIG1        0.1963
     23 C          -0.7000   -1.4170    0.0000 C.2     1  LIG1        0.2838
     24 O          -0.3880   -2.3670    0.0000 O.2     1  LIG1       -0.2695
     25 N          -0.0580   -0.6630    0.0000 N.am    1  LIG1       -0.0861
@<TRIPOS>BOND
     1     1     2   ar
     2     1     5   ar
     3     1     9   ar
     4     2     3   ar
     5     2    22    1
     6     3     4   ar
     7     3    21   ar
     8     4     5   ar
     9     4    18   ar
    10     5     6   ar
    11     6     7   ar
    12     7     8   ar
    13     8     9   ar
    14     8    10    1
    15    10    11    1
    16    11    12    1
    17    12    13    1
    18    13    14    1
    19    13    16    1
    20    14    15    1
    21    16    17    1
    22    18    19   ar
    23    19    20   ar
    24    20    21   ar
    25    22    23    1
    26    23    24    2
    27    23    25   am
