@<TRIPOS>MOLECULE
25152_ChemDiv_2683-0066
 23 26 0 0 0
SMALL
GASTEIGER
Energy = 0

@<TRIPOS>ATOM
      1 C          -1.3460   -0.4420    0.0000 C.ar    1  LIG1        0.1656
      2 C          -1.8420    0.4250    0.0000 C.ar    1  LIG1        0.1383
      3 C          -2.8330    0.2000    0.0000 C.ar    1  LIG1        0.0382
      4 C          -2.9290   -0.7670    0.0000 C.ar    1  LIG1        0.0627
      5 N          -2.0420   -1.1830    0.0000 N.ar    1  LIG1       -0.3094
      6 C          -1.8710   -2.1750    0.0000 C.3     1  LIG1        0.1319
      7 C          -3.8540   -1.1830    0.0000 C.ar    1  LIG1        0.0173
      8 C          -4.6750   -0.5960    0.0000 C.ar    1  LIG1        0.0015
      9 C          -4.5420    0.3460    0.0000 C.ar    1  LIG1        0.0001
     10 C          -3.6540    0.7960    0.0000 C.ar    1  LIG1        0.0031
     11 N          -1.3460    1.2920    0.0000 N.ar    1  LIG1       -0.1429
     12 N          -0.3540    1.2920    0.0000 N.ar    1  LIG1       -0.1217
     13 C           0.1420    0.4250    0.0000 C.ar    1  LIG1        0.2120
     14 N          -0.3540   -0.4420    0.0000 N.ar    1  LIG1       -0.2008
     15 S           1.1580    0.4250    0.0000 S.3     1  LIG1       -0.0677
     16 C           1.6500   -0.4420    0.0000 C.3     1  LIG1        0.1277
     17 C           2.6630   -0.4420    0.0000 C.3     1  LIG1        0.1511
     18 N           3.1580    0.4250    0.0000 N.4     1  LIG1        0.3819
     19 C           4.1750    0.4460    0.0000 C.3     1  LIG1        0.1713
     20 C           4.6710    1.3130    0.0000 C.3     1  LIG1        0.2047
     21 O           4.1750    2.1790    0.0000 O.3     1  LIG1       -0.3411
     22 C           3.1750    2.1630    0.0000 C.3     1  LIG1        0.2047
     23 C           2.6630    1.2750    0.0000 C.3     1  LIG1        0.1713
@<TRIPOS>BOND
     1     1     2   ar
     2     1     5   ar
     3     1    14   ar
     4     2     3   ar
     5     2    11   ar
     6     3     4   ar
     7     3    10   ar
     8     4     5   ar
     9     4     7   ar
    10     5     6    1
    11     7     8   ar
    12     8     9   ar
    13     9    10   ar
    14    11    12   ar
    15    12    13   ar
    16    13    14   ar
    17    13    15    1
    18    15    16    1
    19    16    17    1
    20    17    18    1
    21    18    19    1
    22    18    23    1
    23    19    20    1
    24    20    21    1
    25    21    22    1
    26    22    23    1
