@<TRIPOS>MOLECULE
25150_ChemDiv_1348-1017
 19 21 0 0 0
SMALL
GASTEIGER
Energy = 0

@<TRIPOS>ATOM
      1 C           0.0460   -0.0420    0.0000 C.ar    1  LIG1        0.1623
      2 C          -0.5380    0.7710    0.0000 C.ar    1  LIG1        0.1381
      3 N          -0.1380    1.6880    0.0000 N.ar    1  LIG1       -0.1429
      4 N           0.8580    1.7960    0.0000 N.ar    1  LIG1       -0.1217
      5 C           1.4580    0.9830    0.0000 C.ar    1  LIG1        0.2118
      6 N           1.0420    0.0670    0.0000 N.ar    1  LIG1       -0.2011
      7 S           2.4540    1.0830    0.0000 S.3     1  LIG1       -0.0740
      8 C           3.0380    0.2830    0.0000 C.3     1  LIG1        0.0652
      9 C           2.6330   -0.6420    0.0000 C.3     1  LIG1        0.0112
     10 C           1.6330   -0.7460    0.0000 C.3     1  LIG1        0.0009
     11 C           3.2130   -1.4420    0.0000 C.3     1  LIG1        0.0009
     12 C          -1.4880    0.4670    0.0000 C.ar    1  LIG1        0.0380
     13 C          -1.4880   -0.5460    0.0000 C.ar    1  LIG1        0.0593
     14 N          -0.5380   -0.8460    0.0000 N.ar    1  LIG1       -0.3372
     15 C          -2.3540   -1.0380    0.0000 C.ar    1  LIG1        0.0171
     16 C          -3.2170   -0.5460    0.0000 C.ar    1  LIG1        0.0015
     17 C          -3.2170    0.4670    0.0000 C.ar    1  LIG1        0.0001
     18 C          -2.3540    0.9540    0.0000 C.ar    1  LIG1        0.0031
     19 H          -0.2250   -1.7920    0.0000 H       1  LIG1        0.1674
@<TRIPOS>BOND
     1     1     2   ar
     2     1     6   ar
     3     1    14   ar
     4     2     3   ar
     5     2    12   ar
     6     3     4   ar
     7     4     5   ar
     8     5     6   ar
     9     5     7    1
    10     7     8    1
    11     8     9    1
    12     9    10    1
    13     9    11    1
    14    12    13   ar
    15    12    18   ar
    16    13    14   ar
    17    13    15   ar
    18    14    19    1
    19    15    16   ar
    20    16    17   ar
    21    17    18   ar
