@<TRIPOS>MOLECULE
25156_ChemDiv_C301-1870
 15 16 0 0 0
SMALL
GASTEIGER
Energy = 0

@<TRIPOS>ATOM
      1 CA         -0.1250   -0.9040    0.0000 C.3     1  LIG1        0.1357
      2 N           0.7920   -1.3130    0.0000 N.am    1  LIG1       -0.2011
      3 C           1.4630   -0.5580    0.0000 C.2     1  LIG1        0.2421
      4 C           0.9580    0.3080    0.0000 C.3     1  LIG1        0.0933
      5 C          -0.0250    0.0960    0.0000 C.3     1  LIG1        0.0568
      6 C          -0.7670    0.7540    0.0000 C.ar    1  LIG1       -0.0200
      7 C          -0.5630    1.7380    0.0000 C.ar    1  LIG1       -0.0042
      8 C          -1.3080    2.4040    0.0000 C.ar    1  LIG1       -0.0003
      9 C          -2.2500    2.0920    0.0000 C.ar    1  LIG1       -0.0000
     10 C          -2.4580    1.1080    0.0000 C.ar    1  LIG1       -0.0003
     11 C          -1.7130    0.4460    0.0000 C.ar    1  LIG1       -0.0042
     12 O           2.4540   -0.6630    0.0000 O.2     1  LIG1       -0.2733
     13 C          -0.9880   -1.4000    0.0000 C.2     1  LIG1        0.0705
     14 O          -0.9880   -2.4000    0.0000 O.co2   1  LIG1       -0.5474
     15 OXT        -1.8500   -0.9040    0.0000 O.co2   1  LIG1       -0.5474
@<TRIPOS>BOND
     1     1     2    1
     2     1     5    1
     3     1    13    1
     4     2     3   am
     5     3     4    1
     6     3    12    2
     7     4     5    1
     8     5     6    1
     9     6     7   ar
    10     6    11   ar
    11     7     8   ar
    12     8     9   ar
    13     9    10   ar
    14    10    11   ar
    15    13    14   ar
    16    13    15   ar
