@<TRIPOS>MOLECULE
25154_ChemDiv_5947-0051
 24 28 0 0 0
SMALL
GASTEIGER
Energy = 0

@<TRIPOS>ATOM
      1 N          -0.4130   -0.1960    0.0000 N.am    1  LIG1       -0.2296
      2 C          -0.4130   -1.3330    0.0000 C.2     1  LIG1        0.2304
      3 C           0.4170   -1.8500    0.0000 C.3     1  LIG1        0.0694
      4 C           1.4670   -2.1790    0.0000 C.3     1  LIG1        0.0086
      5 C           1.8960   -3.1460    0.0000 C.3     1  LIG1        0.0005
      6 C           1.1420   -3.8580    0.0000 C.3     1  LIG1        0.0000
      7 C           0.1920   -3.3460    0.0000 C.3     1  LIG1        0.0005
      8 C          -0.1460   -2.5630    0.0000 C.3     1  LIG1        0.0086
      9 C           1.0830   -3.3460    0.0000 C.3     1  LIG1        0.0000
     10 C           1.8380   -2.5920    0.0000 C.3     1  LIG1        0.0005
     11 C           1.4960   -1.7290    0.0000 C.3     1  LIG1        0.0086
     12 C           2.8460   -3.0880    0.0000 C.3     1  LIG1        0.0000
     13 O          -1.3540   -1.8790    0.0000 O.2     1  LIG1       -0.2745
     14 C           0.3290    0.3210    0.0000 C.2     1  LIG1        0.2317
     15 C           0.0500    1.3210    0.0000 C.3     1  LIG1        0.0917
     16 C          -0.8790    1.3210    0.0000 C.3     1  LIG1        0.0517
     17 C          -1.1880    0.3670    0.0000 C.3     1  LIG1        0.1056
     18 C          -1.3540    2.1330    0.0000 C.ar    1  LIG1       -0.0203
     19 C          -0.8420    2.9830    0.0000 C.ar    1  LIG1       -0.0042
     20 C          -1.3540    3.8630    0.0000 C.ar    1  LIG1       -0.0003
     21 C          -2.3040    3.8630    0.0000 C.ar    1  LIG1       -0.0000
     22 C          -2.8500    3.0210    0.0000 C.ar    1  LIG1       -0.0003
     23 C          -2.3460    2.1790    0.0000 C.ar    1  LIG1       -0.0042
     24 O           1.2790   -0.0250    0.0000 O.2     1  LIG1       -0.2745
@<TRIPOS>BOND
     1     1     2   am
     2     1    14   am
     3     1    17    1
     4     2     3    1
     5     2    13    2
     6     3     4    1
     7     3     8    1
     8     3    11    1
     9     4     5    1
    10     5     6    1
    11     5    12    1
    12     6     7    1
    13     7     8    1
    14     7     9    1
    15     9    10    1
    16    10    11    1
    17    10    12    1
    18    14    15    1
    19    14    24    2
    20    15    16    1
    21    16    17    1
    22    16    18    1
    23    18    19   ar
    24    18    23   ar
    25    19    20   ar
    26    20    21   ar
    27    21    22   ar
    28    22    23   ar
