@<TRIPOS>MOLECULE
25163_ChemDiv_8014-9418
 17 19 0 0 0
SMALL
GASTEIGER
Energy = 0

@<TRIPOS>ATOM
      1 N          -1.6580    0.0040    0.0000 N.ar    1  LIG1       -0.3135
      2 C          -0.6580    0.0040    0.0000 C.ar    1  LIG1        0.0632
      3 C          -0.1580   -0.8670    0.0000 C.ar    1  LIG1        0.0170
      4 C           0.8460   -0.8670    0.0000 C.ar    1  LIG1        0.0290
      5 C           1.3460    0.0040    0.0000 C.ar    1  LIG1        0.0753
      6 C           2.3210   -0.2040    0.0000 C.2     1  LIG1        0.3413
      7 O           2.4250   -1.1960    0.0000 O.3     1  LIG1       -0.4404
      8 C           1.5130   -1.6040    0.0000 C.3     1  LIG1        0.2356
      9 O           3.1920    0.2960    0.0000 O.2     1  LIG1       -0.2449
     10 C           0.8460    0.8670    0.0000 C.ar    1  LIG1        0.0077
     11 C          -0.1580    0.8670    0.0000 C.ar    1  LIG1        0.0177
     12 C          -2.2460   -0.8080    0.0000 C.ar    1  LIG1        0.0414
     13 C          -3.1960   -0.4960    0.0000 C.ar    1  LIG1        0.0142
     14 C          -3.1960    0.5000    0.0000 C.ar    1  LIG1        0.0142
     15 C          -2.2460    0.8080    0.0000 C.ar    1  LIG1        0.0414
     16 C          -1.7500    1.6750    0.0000 C.3     1  LIG1        0.0504
     17 C          -1.7460   -1.6710    0.0000 C.3     1  LIG1        0.0504
@<TRIPOS>BOND
     1     1     2    1
     2     1    12   ar
     3     1    15   ar
     4     2     3   ar
     5     2    11   ar
     6     3     4   ar
     7     4     5   ar
     8     4     8    1
     9     5     6    1
    10     5    10   ar
    11     6     7    1
    12     6     9    2
    13     7     8    1
    14    10    11   ar
    15    12    13   ar
    16    12    17    1
    17    13    14   ar
    18    14    15   ar
    19    15    16    1
