@<TRIPOS>MOLECULE
25160_ChemDiv_0413-0330
 23 24 0 0 0
SMALL
GASTEIGER
Energy = 0

@<TRIPOS>ATOM
      1 C          -0.5040    0.8040    0.0000 C.ar    1  LIG1        0.1622
      2 C          -1.3880    1.3210    0.0000 C.ar    1  LIG1        0.1164
      3 N          -1.1710    2.2880    0.0000 N.ar    1  LIG1       -0.1899
      4 S          -0.1750    2.3830    0.0000 S.2     1  LIG1        0.1167
      5 N           0.2210    1.4880    0.0000 N.ar    1  LIG1       -0.1855
      6 C          -2.2580    0.8250    0.0000 C.ar    1  LIG1        0.0589
      7 C          -3.1000    1.3210    0.0000 C.ar    1  LIG1        0.1972
      8 O          -3.1000    2.3130    0.0000 O.3     1  LIG1       -0.2865
      9 C          -3.9830    0.8040    0.0000 C.ar    1  LIG1        0.0421
     10 C          -3.9830   -0.1920    0.0000 C.ar    1  LIG1        0.0033
     11 C          -3.1000   -0.6790    0.0000 C.ar    1  LIG1        0.0003
     12 C          -2.2580   -0.1920    0.0000 C.ar    1  LIG1        0.0048
     13 C          -0.3880   -0.1920    0.0000 C.2     1  LIG1        0.2690
     14 N           0.5290   -0.5920    0.0000 N.am    1  LIG1       -0.2748
     15 C           1.3250    0.0080    0.0000 C.3     1  LIG1        0.0938
     16 C           2.2540   -0.4040    0.0000 C.3     1  LIG1        0.0215
     17 C           3.0540    0.1880    0.0000 C.3     1  LIG1        0.0018
     18 C           3.9790   -0.2130    0.0000 C.3     1  LIG1        0.0001
     19 C           0.6500   -1.5830    0.0000 C.3     1  LIG1        0.0938
     20 C          -0.1500   -2.1750    0.0000 C.3     1  LIG1        0.0215
     21 C          -1.0790   -1.7880    0.0000 C.3     1  LIG1        0.0018
     22 C          -1.8790   -2.3790    0.0000 C.3     1  LIG1        0.0001
     23 O          -1.1960   -0.7830    0.0000 O.2     1  LIG1       -0.2682
@<TRIPOS>BOND
     1     1     2   ar
     2     1     5   ar
     3     1    13    1
     4     2     3   ar
     5     2     6    1
     6     3     4   ar
     7     4     5   ar
     8     6     7   ar
     9     6    12   ar
    10     7     8    1
    11     7     9   ar
    12     9    10   ar
    13    10    11   ar
    14    11    12   ar
    15    13    14   am
    16    13    23    2
    17    14    15    1
    18    14    19    1
    19    15    16    1
    20    16    17    1
    21    17    18    1
    22    19    20    1
    23    20    21    1
    24    21    22    1
