@<TRIPOS>MOLECULE
25162_ChemDiv_0417-1641
 25 29 0 0 0
SMALL
GASTEIGER
Energy = 0

@<TRIPOS>ATOM
      1 C          -0.9290   -0.5330    0.0000 C.3     1  LIG1        0.0694
      2 C          -0.6790    0.4250    0.0000 C.2     1  LIG1        0.2248
      3 N          -1.4040    1.0960    0.0000 N.am    1  LIG1       -0.2744
      4 C          -1.1750    2.0750    0.0000 C.3     1  LIG1        0.1255
      5 C          -1.8830    2.7670    0.0000 C.3     1  LIG1        0.1636
      6 O          -2.8630    2.4960    0.0000 O.3     1  LIG1       -0.3501
      7 C          -3.1040    1.5080    0.0000 C.3     1  LIG1        0.1636
      8 C          -2.3790    0.8130    0.0000 C.3     1  LIG1        0.1255
      9 O           0.2750    0.6880    0.0000 O.2     1  LIG1       -0.2749
     10 C          -0.1540   -0.9670    0.0000 C.3     1  LIG1        0.0127
     11 C          -0.1540   -1.8750    0.0000 C.3     1  LIG1        0.0194
     12 C           0.5920   -1.4170    0.0000 C.ar    1  LIG1       -0.0228
     13 C           1.4080   -1.9040    0.0000 C.ar    1  LIG1       -0.0046
     14 C           2.2330   -1.4170    0.0000 C.ar    1  LIG1       -0.0046
     15 C           2.2330   -0.4920    0.0000 C.ar    1  LIG1       -0.0219
     16 C           1.4080   -0.0380    0.0000 C.ar    1  LIG1       -0.0046
     17 C           0.5920   -0.4920    0.0000 C.ar    1  LIG1       -0.0046
     18 C           3.1000    0.0210    0.0000 C.3     1  LIG1        0.0310
     19 C          -0.1540   -2.6920    0.0000 C.3     1  LIG1        0.0041
     20 C          -1.3880   -2.4540    0.0000 C.3     1  LIG1        0.0008
     21 C          -1.3880   -1.4170    0.0000 C.3     1  LIG1        0.0086
     22 C          -2.8920   -2.7630    0.0000 C.3     1  LIG1        0.0000
     23 C          -1.6880   -1.8750    0.0000 C.3     1  LIG1        0.0008
     24 C          -1.6880   -0.9670    0.0000 C.3     1  LIG1        0.0086
     25 C          -0.9290   -2.3000    0.0000 C.3     1  LIG1        0.0041
@<TRIPOS>BOND
     1     1     2    1
     2     1    10    1
     3     1    21    1
     4     1    24    1
     5     2     3   am
     6     2     9    2
     7     3     4    1
     8     3     8    1
     9     4     5    1
    10     5     6    1
    11     6     7    1
    12     7     8    1
    13    10    11    1
    14    11    12    1
    15    11    19    1
    16    11    25    1
    17    12    13   ar
    18    12    17   ar
    19    13    14   ar
    20    14    15   ar
    21    15    16   ar
    22    15    18    1
    23    16    17   ar
    24    19    20    1
    25    20    21    1
    26    20    22    1
    27    22    23    1
    28    23    24    1
    29    23    25    1
