@<TRIPOS>MOLECULE
25165_ChemDiv_8016-9775
 15 17 0 0 0
SMALL
GASTEIGER
Energy = 0

@<TRIPOS>ATOM
      1 N          -1.5130   -0.7750    0.0000 N.ar    1  LIG1       -0.3036
      2 C          -0.5580   -0.4670    0.0000 C.ar    1  LIG1        0.0639
      3 C          -0.3580    0.5080    0.0000 C.ar    1  LIG1        0.0170
      4 C           0.5920    0.8130    0.0000 C.ar    1  LIG1        0.0290
      5 C           1.3290    0.1460    0.0000 C.ar    1  LIG1        0.0753
      6 C           2.2040    0.6460    0.0000 C.2     1  LIG1        0.3413
      7 O           1.9920    1.6330    0.0000 O.3     1  LIG1       -0.4404
      8 C           1.0000    1.7330    0.0000 C.3     1  LIG1        0.2356
      9 O           3.1170    0.2250    0.0000 O.2     1  LIG1       -0.2449
     10 C           1.1290   -0.8290    0.0000 C.ar    1  LIG1        0.0077
     11 C           0.1790   -1.1380    0.0000 C.ar    1  LIG1        0.0177
     12 C          -1.8210   -1.7290    0.0000 C.ar    1  LIG1        0.0802
     13 C          -2.8210   -1.7290    0.0000 C.ar    1  LIG1        0.0205
     14 C          -3.1210   -0.7750    0.0000 C.ar    1  LIG1        0.0205
     15 C          -2.3210   -0.1880    0.0000 C.ar    1  LIG1        0.0802
@<TRIPOS>BOND
     1     1     2    1
     2     1    12   ar
     3     1    15   ar
     4     2     3   ar
     5     2    11   ar
     6     3     4   ar
     7     4     5   ar
     8     4     8    1
     9     5     6    1
    10     5    10   ar
    11     6     7    1
    12     6     9    2
    13     7     8    1
    14    10    11   ar
    15    12    13   ar
    16    13    14   ar
    17    14    15   ar
