@<TRIPOS>MOLECULE
25161_ChemDiv_8010-9021
 11 12 0 0 0
SMALL
GASTEIGER
Energy = 0

@<TRIPOS>ATOM
      1 C           1.6250    0.4750    0.0000 C.2     1  LIG1        0.3413
      2 C          -0.0040    0.4750    0.0000 C.ar    1  LIG1        0.0752
      3 C          -0.0040   -0.4580    0.0000 C.ar    1  LIG1        0.0280
      4 C           0.8210   -0.9130    0.0000 C.3     1  LIG1        0.2356
      5 O           1.6250   -0.4580    0.0000 O.3     1  LIG1       -0.4404
      6 C          -0.8170   -0.9130    0.0000 C.ar    1  LIG1        0.0062
      7 C          -1.6330   -0.4580    0.0000 C.ar    1  LIG1        0.0344
      8 C          -1.6330    0.4750    0.0000 C.ar    1  LIG1        0.0069
      9 C          -0.8170    0.9330    0.0000 C.ar    1  LIG1        0.0067
     10 BR         -2.4880   -0.9630    0.0000 Br      1  LIG1       -0.0490
     11 O           2.4830    0.9670    0.0000 O.2     1  LIG1       -0.2449
@<TRIPOS>BOND
     1     1     2    1
     2     1     5    1
     3     1    11    2
     4     2     3   ar
     5     2     9   ar
     6     3     4    1
     7     3     6   ar
     8     4     5    1
     9     6     7   ar
    10     7     8   ar
    11     7    10    1
    12     8     9   ar
