@<TRIPOS>MOLECULE
25166_ChemDiv_0418-0100
 21 25 0 0 0
SMALL
GASTEIGER
Energy = 0

@<TRIPOS>ATOM
      1 N           0.4170   -0.4170    0.0000 N.ar    1  LIG1       -0.2126
      2 C          -0.5130    0.0630    0.0000 C.ar    1  LIG1        0.0989
      3 C          -1.4170   -0.3420    0.0000 C.3     1  LIG1        0.0386
      4 C          -1.4170   -1.1330    0.0000 C.3     1  LIG1        0.0057
      5 C          -2.6130   -0.8880    0.0000 C.3     1  LIG1        0.0004
      6 C          -4.0370   -1.1960    0.0000 C.3     1  LIG1        0.0000
      7 C          -2.8920   -0.3420    0.0000 C.3     1  LIG1        0.0004
      8 C          -2.1540   -0.7630    0.0000 C.3     1  LIG1        0.0057
      9 C          -2.8920    0.5290    0.0000 C.3     1  LIG1        0.0000
     10 C          -2.1540    0.9420    0.0000 C.3     1  LIG1        0.0004
     11 C          -1.4170    0.5290    0.0000 C.3     1  LIG1        0.0057
     12 C          -2.6130    0.0920    0.0000 C.3     1  LIG1        0.0000
     13 C          -0.3250    1.0500    0.0000 C.ar    1  LIG1        0.1961
     14 O           0.6460    1.2000    0.0000 O.2     1  LIG1       -0.4318
     15 C           1.0920    0.2750    0.0000 C.ar    1  LIG1        0.2295
     16 C           2.0630    0.0830    0.0000 C.ar    1  LIG1        0.0536
     17 C           2.7330    0.8250    0.0000 C.ar    1  LIG1        0.0046
     18 C           3.7130    0.6210    0.0000 C.ar    1  LIG1        0.0002
     19 C           4.0330   -0.3210    0.0000 C.ar    1  LIG1        0.0000
     20 C           3.3460   -1.0790    0.0000 C.ar    1  LIG1        0.0002
     21 C           2.3710   -0.8670    0.0000 C.ar    1  LIG1        0.0046
@<TRIPOS>BOND
     1     1     2   ar
     2     1    15   ar
     3     2     3    1
     4     2    13   ar
     5     3     4    1
     6     3     8    1
     7     3    11    1
     8     4     5    1
     9     5     6    1
    10     5    12    1
    11     6     7    1
    12     7     8    1
    13     7     9    1
    14     9    10    1
    15    10    11    1
    16    10    12    1
    17    13    14   ar
    18    14    15   ar
    19    15    16    1
    20    16    17   ar
    21    16    21   ar
    22    17    18   ar
    23    18    19   ar
    24    19    20   ar
    25    20    21   ar
