@<TRIPOS>MOLECULE
25178_ChemDiv_5818-0637
 21 23 0 0 0
SMALL
GASTEIGER
Energy = 0

@<TRIPOS>ATOM
      1 C           0.1580    1.1750    0.0000 C.ar    1  LIG1        0.1627
      2 C           0.1580    2.1920    0.0000 C.ar    1  LIG1        0.1381
      3 C          -0.7920    2.4830    0.0000 C.ar    1  LIG1        0.0382
      4 C          -1.3460    1.7130    0.0000 C.ar    1  LIG1        0.0629
      5 N          -0.7920    0.8670    0.0000 N.ar    1  LIG1       -0.3056
      6 C          -1.1080   -0.0960    0.0000 C.3     1  LIG1        0.1701
      7 C          -0.4330   -0.8330    0.0000 C.3     1  LIG1        0.1635
      8 N          -0.7500   -1.8000    0.0000 N.4     1  LIG1        0.3788
      9 C          -0.0750   -2.5420    0.0000 C.3     1  LIG1        0.1389
     10 C          -0.3920   -3.4790    0.0000 C.3     1  LIG1        0.0688
     11 C          -1.7250   -1.9920    0.0000 C.3     1  LIG1        0.1389
     12 C          -2.3830   -1.2460    0.0000 C.3     1  LIG1        0.0688
     13 C          -2.3540    1.8040    0.0000 C.ar    1  LIG1        0.0173
     14 C          -2.7790    2.7130    0.0000 C.ar    1  LIG1        0.0015
     15 C          -2.2130    3.4830    0.0000 C.ar    1  LIG1        0.0001
     16 C          -1.2040    3.3960    0.0000 C.ar    1  LIG1        0.0031
     17 N           1.0210    2.6920    0.0000 N.ar    1  LIG1       -0.1457
     18 N           1.8880    2.1920    0.0000 N.ar    1  LIG1       -0.1611
     19 C           1.8880    1.1750    0.0000 C.ar    1  LIG1        0.0159
     20 N           1.0210    0.6750    0.0000 N.ar    1  LIG1       -0.2381
     21 S           2.7750    0.6750    0.0000 S.3     1  LIG1       -0.7172
@<TRIPOS>BOND
     1     1     2   ar
     2     1     5   ar
     3     1    20   ar
     4     2     3   ar
     5     2    17   ar
     6     3     4   ar
     7     3    16   ar
     8     4     5   ar
     9     4    13   ar
    10     5     6    1
    11     6     7    1
    12     7     8    1
    13     8     9    1
    14     8    11    1
    15     9    10    1
    16    11    12    1
    17    13    14   ar
    18    14    15   ar
    19    15    16   ar
    20    17    18   ar
    21    18    19   ar
    22    19    20   ar
    23    19    21    1
