@<TRIPOS>MOLECULE
25176_ChemDiv_4896-3312
 19 21 0 0 0
SMALL
GASTEIGER
Energy = 0

@<TRIPOS>ATOM
      1 C           0.0790    0.0790    0.0000 C.ar    1  LIG1        0.4123
      2 C          -0.5210    0.8960    0.0000 C.ar    1  LIG1        0.2497
      3 C          -1.4580    0.5880    0.0000 C.ar    1  LIG1        0.1011
      4 C          -1.4580   -0.4080    0.0000 C.ar    1  LIG1        0.2964
      5 N          -0.5210   -0.7250    0.0000 N.ar    1  LIG1        0.0988
      6 C          -2.3380   -0.9170    0.0000 C.ar    1  LIG1        0.0481
      7 C          -3.1830   -0.4080    0.0000 C.ar    1  LIG1       -0.0024
      8 C          -3.1830    0.5880    0.0000 C.ar    1  LIG1       -0.0217
      9 C          -2.3380    1.0750    0.0000 C.ar    1  LIG1        0.0039
     10 C          -4.0670    1.0750    0.0000 C.3     1  LIG1        0.0310
     11 C          -2.3380   -1.9170    0.0000 C.3     1  LIG1        0.0375
     12 N          -0.1040    1.8080    0.0000 N.ar    1  LIG1        0.0857
     13 N           0.8920    1.9210    0.0000 N.ar    1  LIG1        0.2430
     14 C           1.4750    1.0920    0.0000 C.ar    1  LIG1        0.4506
     15 N           1.0750    0.1920    0.0000 N.ar    1  LIG1       -0.1021
     16 S           2.4710    1.2040    0.0000 S.3     1  LIG1       -0.0158
     17 C           3.0630    0.3920    0.0000 C.3     1  LIG1        0.0595
     18 C           4.0630    0.4790    0.0000 C.3     1  LIG1        0.0123
     19 C           2.6500   -0.5250    0.0000 C.3     1  LIG1        0.0123
@<TRIPOS>BOND
     1     1     2   ar
     2     1     5   ar
     3     1    15   ar
     4     2     3   ar
     5     2    12   ar
     6     3     4   ar
     7     3     9   ar
     8     4     5   ar
     9     4     6   ar
    10     6     7   ar
    11     6    11    1
    12     7     8   ar
    13     8     9   ar
    14     8    10    1
    15    12    13   ar
    16    13    14   ar
    17    14    15   ar
    18    14    16    1
    19    16    17    1
    20    17    18    1
    21    17    19    1
