@<TRIPOS>MOLECULE
25172_ChemDiv_3698-0050
 21 23 0 0 0
SMALL
GASTEIGER
Energy = 0

@<TRIPOS>ATOM
      1 C          -0.6880    0.3420    0.0000 C.ar    1  LIG1        0.1656
      2 C          -0.6880    1.3630    0.0000 C.ar    1  LIG1        0.1383
      3 C          -1.6580    1.6750    0.0000 C.ar    1  LIG1        0.0382
      4 C          -2.2170    0.8500    0.0000 C.ar    1  LIG1        0.0626
      5 N          -1.6580    0.0380    0.0000 N.ar    1  LIG1       -0.3114
      6 C          -1.9630   -0.9330    0.0000 C.3     1  LIG1        0.1075
      7 C          -1.2960   -1.6710    0.0000 C.3     1  LIG1        0.0245
      8 C          -1.6130   -2.6080    0.0000 C.3     1  LIG1        0.0021
      9 C          -3.2330    0.9580    0.0000 C.ar    1  LIG1        0.0173
     10 C          -3.6500    1.8500    0.0000 C.ar    1  LIG1        0.0015
     11 C          -3.0580    2.6630    0.0000 C.ar    1  LIG1        0.0001
     12 C          -2.0630    2.5670    0.0000 C.ar    1  LIG1        0.0031
     13 N           0.1750    1.8500    0.0000 N.ar    1  LIG1       -0.1429
     14 N           1.0420    1.3630    0.0000 N.ar    1  LIG1       -0.1217
     15 C           1.0420    0.3420    0.0000 C.ar    1  LIG1        0.2122
     16 N           0.1750   -0.1420    0.0000 N.ar    1  LIG1       -0.2008
     17 S           1.9080   -0.1670    0.0000 S.3     1  LIG1       -0.0679
     18 C           1.9080   -1.1630    0.0000 C.3     1  LIG1        0.1066
     19 C           2.7790   -1.6710    0.0000 C.2     1  LIG1        0.0617
     20 O           2.7790   -2.6580    0.0000 O.co2   1  LIG1       -0.5483
     21 O           3.6460   -1.1880    0.0000 O.co2   1  LIG1       -0.5483
@<TRIPOS>BOND
     1     1     2   ar
     2     1     5   ar
     3     1    16   ar
     4     2     3   ar
     5     2    13   ar
     6     3     4   ar
     7     3    12   ar
     8     4     5   ar
     9     4     9   ar
    10     5     6    1
    11     6     7    1
    12     7     8    1
    13     9    10   ar
    14    10    11   ar
    15    11    12   ar
    16    13    14   ar
    17    14    15   ar
    18    15    16   ar
    19    15    17    1
    20    17    18    1
    21    18    19    1
    22    19    20   ar
    23    19    21   ar
