@<TRIPOS>MOLECULE
25170_ChemDiv_2683-0091
 22 24 0 0 0
SMALL
GASTEIGER
Energy = 0

@<TRIPOS>ATOM
      1 C          -1.3790    0.1880    0.0000 C.ar    1  LIG1        0.1656
      2 C          -1.8630    1.0500    0.0000 C.ar    1  LIG1        0.1383
      3 C          -2.8250    0.8330    0.0000 C.ar    1  LIG1        0.0382
      4 C          -2.9580   -0.1500    0.0000 C.ar    1  LIG1        0.0626
      5 N          -2.0500   -0.5580    0.0000 N.ar    1  LIG1       -0.3114
      6 C          -1.8290   -1.5830    0.0000 C.3     1  LIG1        0.1076
      7 C          -0.8920   -1.9000    0.0000 C.3     1  LIG1        0.0265
      8 C          -3.8750   -0.5580    0.0000 C.ar    1  LIG1        0.0173
      9 C          -4.6500    0.0290    0.0000 C.ar    1  LIG1        0.0015
     10 C          -4.5460    1.0290    0.0000 C.ar    1  LIG1        0.0001
     11 C          -3.6380    1.4290    0.0000 C.ar    1  LIG1        0.0031
     12 N          -1.3790    1.9040    0.0000 N.ar    1  LIG1       -0.1429
     13 N          -0.3540    1.9040    0.0000 N.ar    1  LIG1       -0.1217
     14 C           0.1250    1.0500    0.0000 C.ar    1  LIG1        0.2123
     15 N          -0.3540    0.1880    0.0000 N.ar    1  LIG1       -0.2008
     16 S           1.1500    1.0500    0.0000 S.3     1  LIG1       -0.0620
     17 C           1.6250    0.1880    0.0000 C.3     1  LIG1        0.1743
     18 C           2.6500    0.1880    0.0000 C.2     1  LIG1        0.3286
     19 O           3.1630    1.0500    0.0000 O.2     1  LIG1       -0.2491
     20 O           3.1630   -0.6670    0.0000 O.3     1  LIG1       -0.4479
     21 C           4.1540   -0.6670    0.0000 C.3     1  LIG1        0.2086
     22 C           4.6460    0.1880    0.0000 C.3     1  LIG1        0.0513
@<TRIPOS>BOND
     1     1     2   ar
     2     1     5   ar
     3     1    15   ar
     4     2     3   ar
     5     2    12   ar
     6     3     4   ar
     7     3    11   ar
     8     4     5   ar
     9     4     8   ar
    10     5     6    1
    11     6     7    1
    12     8     9   ar
    13     9    10   ar
    14    10    11   ar
    15    12    13   ar
    16    13    14   ar
    17    14    15   ar
    18    14    16    1
    19    16    17    1
    20    17    18    1
    21    18    19    2
    22    18    20    1
    23    20    21    1
    24    21    22    1
