@<TRIPOS>MOLECULE
25187_ChemDiv_0266-0084
 27 29 0 0 0
SMALL
GASTEIGER
Energy = 0

@<TRIPOS>ATOM
      1 N           2.4080   -1.4210    0.0000 N.ar    1  LIG1       -0.3268
      2 C           2.9830   -0.6250    0.0000 C.ar    1  LIG1        0.0338
      3 C           2.4080    0.1880    0.0000 C.ar    1  LIG1       -0.0088
      4 C           1.4670   -0.1080    0.0000 C.ar    1  LIG1        0.0131
      5 C           1.4670   -1.1210    0.0000 C.ar    1  LIG1        0.0596
      6 C           0.5880   -1.6250    0.0000 C.ar    1  LIG1        0.0174
      7 C          -0.2790   -1.0920    0.0000 C.ar    1  LIG1        0.0079
      8 C          -0.2790   -0.1290    0.0000 C.ar    1  LIG1        0.0757
      9 C           0.5880    0.3790    0.0000 C.ar    1  LIG1        0.0076
     10 C          -1.1750    0.3540    0.0000 C.2     1  LIG1        0.3412
     11 O          -2.0460   -0.1790    0.0000 O.2     1  LIG1       -0.2449
     12 O          -1.2210    1.3420    0.0000 O.3     1  LIG1       -0.4452
     13 C          -2.1170    1.8250    0.0000 C.3     1  LIG1        0.2150
     14 C          -2.1670    2.8330    0.0000 C.3     1  LIG1        0.1100
     15 C          -3.0630    3.2880    0.0000 C.3     1  LIG1        0.1431
     16 N          -3.1000    4.2790    0.0000 N.4     1  LIG1        0.3868
     17 C          -3.9960    4.7420    0.0000 C.3     1  LIG1        0.2025
     18 C          -2.2580    4.8130    0.0000 C.3     1  LIG1        0.2025
     19 C           2.7540    1.1540    0.0000 C.3     1  LIG1        0.0322
     20 C           3.9920   -0.6250    0.0000 C.3     1  LIG1        0.0497
     21 C           2.7540   -2.3830    0.0000 C.3     1  LIG1        0.1324
     22 C           2.0880   -3.1420    0.0000 C.ar    1  LIG1        0.0004
     23 C           2.4330   -4.0710    0.0000 C.ar    1  LIG1       -0.0024
     24 C           1.7880   -4.8130    0.0000 C.ar    1  LIG1       -0.0003
     25 C           0.8130   -4.6330    0.0000 C.ar    1  LIG1       -0.0000
     26 C           0.5040   -3.6920    0.0000 C.ar    1  LIG1       -0.0003
     27 C           1.1250   -2.9500    0.0000 C.ar    1  LIG1       -0.0024
@<TRIPOS>BOND
     1     1     2   ar
     2     1     5   ar
     3     1    21    1
     4     2     3   ar
     5     2    20    1
     6     3     4   ar
     7     3    19    1
     8     4     5   ar
     9     4     9   ar
    10     5     6   ar
    11     6     7   ar
    12     7     8   ar
    13     8     9   ar
    14     8    10    1
    15    10    11    2
    16    10    12    1
    17    12    13    1
    18    13    14    1
    19    14    15    1
    20    15    16    1
    21    16    17    1
    22    16    18    1
    23    21    22    1
    24    22    23   ar
    25    22    27   ar
    26    23    24   ar
    27    24    25   ar
    28    25    26   ar
    29    26    27   ar
