@<TRIPOS>MOLECULE
25186_ChemDiv_0422-0057
 21 23 0 0 0
SMALL
GASTEIGER
Energy = 0

@<TRIPOS>ATOM
      1 S          -1.2420   -0.4460    0.0000 S.O2    1  LIG1       -0.0564
      2 C          -0.7420   -1.3210    0.0000 C.ar    1  LIG1        0.1059
      3 C          -1.2420   -2.1790    0.0000 C.ar    1  LIG1        0.1047
      4 N          -2.2330   -2.1790    0.0000 N.pl3   1  LIG1       -0.1268
      5 C          -0.7420   -3.0380    0.0000 C.ar    1  LIG1        0.0193
      6 C           0.2750   -3.0380    0.0000 C.ar    1  LIG1        0.0015
      7 C           0.7710   -2.1790    0.0000 C.ar    1  LIG1        0.0014
      8 C           0.2750   -1.3210    0.0000 C.ar    1  LIG1        0.0183
      9 N          -0.3670    0.0540    0.0000 N.pl3   1  LIG1       -0.5346
     10 C          -0.3670    1.0460    0.0000 C.ar    1  LIG1       -0.0942
     11 C           0.4920    1.5460    0.0000 C.ar    1  LIG1        0.0593
     12 N           1.3500    1.0460    0.0000 N.ar    1  LIG1       -0.2457
     13 C           2.2290    1.5460    0.0000 C.ar    1  LIG1        0.0988
     14 C           2.2290    2.5420    0.0000 C.ar    1  LIG1        0.0207
     15 C           1.3500    3.0420    0.0000 C.ar    1  LIG1        0.0030
     16 C           0.4920    2.5420    0.0000 C.ar    1  LIG1        0.0159
     17 C          -0.3670    3.0420    0.0000 C.ar    1  LIG1        0.0014
     18 C          -1.2420    2.5420    0.0000 C.ar    1  LIG1       -0.0018
     19 C          -1.2420    1.5460    0.0000 C.ar    1  LIG1       -0.0224
     20 O          -1.7420    0.4290    0.0000 O.2     1  LIG1       -0.1841
     21 O          -2.1000   -0.9460    0.0000 O.2     1  LIG1       -0.1841
@<TRIPOS>BOND
     1     1     2    1
     2     1     9    1
     3     1    20    2
     4     1    21    2
     5     2     3   ar
     6     2     8   ar
     7     3     4    1
     8     3     5   ar
     9     5     6   ar
    10     6     7   ar
    11     7     8   ar
    12     9    10    1
    13    10    11   ar
    14    10    19   ar
    15    11    12   ar
    16    11    16   ar
    17    12    13   ar
    18    13    14   ar
    19    14    15   ar
    20    15    16   ar
    21    16    17   ar
    22    17    18   ar
    23    18    19   ar
