@<TRIPOS>MOLECULE
25185_ChemDiv_0265-0032
 19 22 0 0 0
SMALL
GASTEIGER
Energy = 0

@<TRIPOS>ATOM
      1 C          -0.4500   -0.2580    0.0000 C.ar    1  LIG1        0.0000
      2 C          -0.4500    0.7630    0.0000 C.ar    1  LIG1        0.0000
      3 C           0.4210    1.2500    0.0000 C.ar    1  LIG1        0.0011
      4 C           1.2880    0.7630    0.0000 C.ar    1  LIG1        0.0140
      5 C           2.1460    1.2540    0.0000 C.2     1  LIG1        0.0729
      6 O           2.1580    2.2540    0.0000 O.co2   1  LIG1       -0.5446
      7 O           3.0330    0.7960    0.0000 O.co2   1  LIG1       -0.5446
      8 C           1.2880   -0.2420    0.0000 C.ar    1  LIG1        0.0011
      9 C           0.4210   -0.7500    0.0000 C.ar    1  LIG1        0.0000
     10 C           0.4420   -1.7420    0.0000 C.ar    1  LIG1        0.0000
     11 C          -0.4500   -2.2500    0.0000 C.ar    1  LIG1        0.0000
     12 C          -1.3000   -1.7420    0.0000 C.ar    1  LIG1        0.0000
     13 C          -1.3170   -0.7500    0.0000 C.ar    1  LIG1        0.0000
     14 C          -2.1830   -0.2580    0.0000 C.ar    1  LIG1        0.0000
     15 C          -2.1830    0.7420    0.0000 C.ar    1  LIG1        0.0000
     16 C          -1.3170    1.2500    0.0000 C.ar    1  LIG1        0.0000
     17 C          -3.0380   -0.7710    0.0000 C.ar    1  LIG1        0.0000
     18 C          -3.0380   -1.7630    0.0000 C.ar    1  LIG1        0.0000
     19 C          -2.1630   -2.2500    0.0000 C.ar    1  LIG1        0.0000
@<TRIPOS>BOND
     1     1     2   ar
     2     1     9   ar
     3     1    13   ar
     4     2     3   ar
     5     2    16   ar
     6     3     4   ar
     7     4     5    1
     8     4     8   ar
     9     5     6   ar
    10     5     7   ar
    11     8     9   ar
    12     9    10   ar
    13    10    11   ar
    14    11    12   ar
    15    12    13   ar
    16    12    19   ar
    17    13    14   ar
    18    14    15   ar
    19    14    17   ar
    20    15    16   ar
    21    17    18   ar
    22    18    19   ar
