@<TRIPOS>MOLECULE
25182_ChemDiv_8012-0651
 31 35 0 0 0
SMALL
GASTEIGER
Energy = 0

@<TRIPOS>ATOM
      1 C          -1.8290    1.7330    0.0000 C.ar    1  LIG1        0.1656
      2 C          -1.8290    2.6710    0.0000 C.ar    1  LIG1        0.1383
      3 C          -3.4790    2.6710    0.0000 C.ar    1  LIG1        0.0382
      4 C          -3.4790    1.7330    0.0000 C.ar    1  LIG1        0.0626
      5 N          -2.6460    1.2630    0.0000 N.ar    1  LIG1       -0.3110
      6 C          -2.6460    0.2710    0.0000 C.3     1  LIG1        0.1122
      7 C          -3.4790   -0.1960    0.0000 C.3     1  LIG1        0.0509
      8 C          -3.4790   -1.2080    0.0000 C.ar    1  LIG1       -0.0202
      9 C          -2.6540   -1.6830    0.0000 C.ar    1  LIG1       -0.0042
     10 C          -2.6540   -2.6830    0.0000 C.ar    1  LIG1       -0.0003
     11 C          -3.4790   -3.2080    0.0000 C.ar    1  LIG1       -0.0000
     12 C          -4.3380   -2.6830    0.0000 C.ar    1  LIG1       -0.0003
     13 C          -4.3380   -1.7290    0.0000 C.ar    1  LIG1       -0.0042
     14 C          -4.3170    1.2630    0.0000 C.ar    1  LIG1        0.0173
     15 C          -5.1420    1.7330    0.0000 C.ar    1  LIG1        0.0015
     16 C          -5.1420    2.6710    0.0000 C.ar    1  LIG1        0.0001
     17 C          -4.3170    3.1670    0.0000 C.ar    1  LIG1        0.0031
     18 N          -0.9830    3.1670    0.0000 N.ar    1  LIG1       -0.1429
     19 N          -0.1630    2.6710    0.0000 N.ar    1  LIG1       -0.1217
     20 C          -0.1630    1.7330    0.0000 C.ar    1  LIG1        0.2123
     21 N          -0.9830    1.2630    0.0000 N.ar    1  LIG1       -0.2008
     22 S           0.6830    1.2500    0.0000 S.3     1  LIG1       -0.0642
     23 C           1.5540    1.7170    0.0000 C.3     1  LIG1        0.1501
     24 C           2.5000    1.2630    0.0000 C.2     1  LIG1        0.2372
     25 N           3.4040    1.7170    0.0000 N.am    1  LIG1       -0.2737
     26 C           4.2710    1.2210    0.0000 C.3     1  LIG1        0.1255
     27 C           5.1380    1.7170    0.0000 C.3     1  LIG1        0.1636
     28 O           5.1380    2.6960    0.0000 O.3     1  LIG1       -0.3501
     29 C           4.2710    3.2130    0.0000 C.3     1  LIG1        0.1636
     30 C           3.4040    2.6960    0.0000 C.3     1  LIG1        0.1255
     31 O           2.5000    0.1170    0.0000 O.2     1  LIG1       -0.2739
@<TRIPOS>BOND
     1     1     2   ar
     2     1     5   ar
     3     1    21   ar
     4     2     3   ar
     5     2    18   ar
     6     3     4   ar
     7     3    17   ar
     8     4     5   ar
     9     4    14   ar
    10     5     6    1
    11     6     7    1
    12     7     8    1
    13     8     9   ar
    14     8    13   ar
    15     9    10   ar
    16    10    11   ar
    17    11    12   ar
    18    12    13   ar
    19    14    15   ar
    20    15    16   ar
    21    16    17   ar
    22    18    19   ar
    23    19    20   ar
    24    20    21   ar
    25    20    22    1
    26    22    23    1
    27    23    24    1
    28    24    25   am
    29    24    31    2
    30    25    26    1
    31    25    30    1
    32    26    27    1
    33    27    28    1
    34    28    29    1
    35    29    30    1
