@<TRIPOS>MOLECULE
25189_ChemDiv_8016-2480
 21 23 0 0 0
SMALL
GASTEIGER
Energy = 0

@<TRIPOS>ATOM
      1 N          -0.1420   -0.2290    0.0000 N.ar    1  LIG1       -0.3267
      2 C          -0.4540   -1.1670    0.0000 C.ar    1  LIG1        0.0362
      3 C           0.3420   -1.7790    0.0000 C.ar    1  LIG1        0.0237
      4 C           1.1540   -1.2040    0.0000 C.ar    1  LIG1        0.0154
      5 C           0.8670   -0.2380    0.0000 C.ar    1  LIG1        0.0597
      6 C           1.5500    0.4920    0.0000 C.ar    1  LIG1        0.0172
      7 C           2.5170    0.2670    0.0000 C.ar    1  LIG1        0.0015
      8 C           2.8250   -0.6920    0.0000 C.ar    1  LIG1        0.0001
      9 C           2.1290   -1.4170    0.0000 C.ar    1  LIG1        0.0012
     10 C           0.3380   -2.7790    0.0000 C.3     1  LIG1        0.2097
     11 O           1.2000   -3.3000    0.0000 O.3     1  LIG1       -0.2151
     12 C          -1.4170   -1.4630    0.0000 C.3     1  LIG1        0.0498
     13 C          -0.7170    0.5920    0.0000 C.3     1  LIG1        0.1331
     14 C          -0.2920    1.4960    0.0000 C.ar    1  LIG1        0.0100
     15 C          -0.8670    2.3080    0.0000 C.ar    1  LIG1        0.0663
     16 C          -1.8540    2.2170    0.0000 C.1     1  LIG1        0.1002
     17 N          -2.8290    1.9580    0.0000 N.1     1  LIG1       -0.1908
     18 C          -0.4460    3.2080    0.0000 C.ar    1  LIG1        0.0100
     19 C           0.5500    3.3040    0.0000 C.ar    1  LIG1        0.0007
     20 C           1.1170    2.4790    0.0000 C.ar    1  LIG1       -0.0002
     21 C           0.7040    1.5830    0.0000 C.ar    1  LIG1       -0.0017
@<TRIPOS>BOND
     1     1     2   ar
     2     1     5   ar
     3     1    13    1
     4     2     3   ar
     5     2    12    1
     6     3     4   ar
     7     3    10    1
     8     4     5   ar
     9     4     9   ar
    10     5     6   ar
    11     6     7   ar
    12     7     8   ar
    13     8     9   ar
    14    10    11    1
    15    13    14    1
    16    14    15   ar
    17    14    21   ar
    18    15    16    1
    19    15    18   ar
    20    16    17    3
    21    18    19   ar
    22    19    20   ar
    23    20    21   ar
