@<TRIPOS>MOLECULE
25188_ChemDiv_0422-0071
 25 28 0 0 0
SMALL
GASTEIGER
Energy = 0

@<TRIPOS>ATOM
      1 S          -1.3330   -0.9630    0.0000 S.O2    1  LIG1       -0.0563
      2 C          -0.8420   -1.8290    0.0000 C.ar    1  LIG1        0.1068
      3 C           0.1790   -1.8290    0.0000 C.ar    1  LIG1        0.0969
      4 N           0.6790   -0.9710    0.0000 N.ar    1  LIG1       -0.2426
      5 C           1.6790   -0.9710    0.0000 C.ar    1  LIG1        0.0989
      6 C           2.1750   -1.8290    0.0000 C.ar    1  LIG1        0.0207
      7 C           1.6630   -2.6920    0.0000 C.ar    1  LIG1        0.0031
      8 C           0.6790   -2.6920    0.0000 C.ar    1  LIG1        0.0189
      9 C           0.1790   -3.5500    0.0000 C.ar    1  LIG1        0.0016
     10 C          -0.8420   -3.5500    0.0000 C.ar    1  LIG1        0.0014
     11 C          -1.3330   -2.6920    0.0000 C.ar    1  LIG1        0.0184
     12 N          -0.4540   -0.4540    0.0000 N.pl3   1  LIG1       -0.5346
     13 C          -0.4540    0.5460    0.0000 C.ar    1  LIG1       -0.0942
     14 C           0.4080    1.0380    0.0000 C.ar    1  LIG1        0.0597
     15 C           0.4080    2.0380    0.0000 C.ar    1  LIG1        0.0221
     16 C          -0.4540    2.5380    0.0000 C.ar    1  LIG1        0.0359
     17 C          -1.3330    2.0380    0.0000 C.ar    1  LIG1        0.0049
     18 C          -1.3330    1.0380    0.0000 C.ar    1  LIG1       -0.0219
     19 BR         -0.4540    3.5540    0.0000 Br      1  LIG1       -0.0490
     20 C           1.2540    2.5380    0.0000 C.ar    1  LIG1        0.0035
     21 C           2.1330    2.0380    0.0000 C.ar    1  LIG1        0.0207
     22 C           2.1330    1.0380    0.0000 C.ar    1  LIG1        0.0988
     23 N           1.2540    0.5460    0.0000 N.ar    1  LIG1       -0.2457
     24 O          -1.8250   -0.0790    0.0000 O.2     1  LIG1       -0.1841
     25 O          -2.1790   -1.4540    0.0000 O.2     1  LIG1       -0.1841
@<TRIPOS>BOND
     1     1     2    1
     2     1    12    1
     3     1    24    2
     4     1    25    2
     5     2     3   ar
     6     2    11   ar
     7     3     4   ar
     8     3     8   ar
     9     4     5   ar
    10     5     6   ar
    11     6     7   ar
    12     7     8   ar
    13     8     9   ar
    14     9    10   ar
    15    10    11   ar
    16    12    13    1
    17    13    14   ar
    18    13    18   ar
    19    14    15   ar
    20    14    23   ar
    21    15    16   ar
    22    15    20   ar
    23    16    17   ar
    24    16    19    1
    25    17    18   ar
    26    20    21   ar
    27    21    22   ar
    28    22    23   ar
