@<TRIPOS>MOLECULE
25180_ChemDiv_8008-3896
 20 22 0 0 0
SMALL
GASTEIGER
Energy = 0

@<TRIPOS>ATOM
      1 C           1.1380    0.0880    0.0000 C.ar    1  LIG1        0.1656
      2 C           1.1380    1.0750    0.0000 C.ar    1  LIG1        0.1383
      3 C           2.0960    1.3790    0.0000 C.ar    1  LIG1        0.0382
      4 C           2.6750    0.6000    0.0000 C.ar    1  LIG1        0.0626
      5 N           2.0960   -0.2170    0.0000 N.ar    1  LIG1       -0.3114
      6 C           2.4290   -1.2000    0.0000 C.3     1  LIG1        0.1075
      7 C           3.3920   -1.4130    0.0000 C.3     1  LIG1        0.0245
      8 C           3.6920   -2.3710    0.0000 C.3     1  LIG1        0.0021
      9 C           3.6670    0.6880    0.0000 C.ar    1  LIG1        0.0173
     10 C           4.0880    1.5920    0.0000 C.ar    1  LIG1        0.0015
     11 C           3.5130    2.3750    0.0000 C.ar    1  LIG1        0.0001
     12 C           2.5210    2.2830    0.0000 C.ar    1  LIG1        0.0031
     13 N           0.2630    1.5920    0.0000 N.ar    1  LIG1       -0.1429
     14 N          -0.5750    1.0750    0.0000 N.ar    1  LIG1       -0.1217
     15 C          -0.5750    0.0880    0.0000 C.ar    1  LIG1        0.2118
     16 N           0.2630   -0.4250    0.0000 N.ar    1  LIG1       -0.2008
     17 S          -1.5080   -0.3630    0.0000 S.3     1  LIG1       -0.0740
     18 C          -2.3540    0.1790    0.0000 C.3     1  LIG1        0.0652
     19 C          -3.2580   -0.3040    0.0000 C.3     1  LIG1        0.0121
     20 C          -4.0920    0.2380    0.0000 C.3     1  LIG1        0.0009
@<TRIPOS>BOND
     1     1     2   ar
     2     1     5   ar
     3     1    16   ar
     4     2     3   ar
     5     2    13   ar
     6     3     4   ar
     7     3    12   ar
     8     4     5   ar
     9     4     9   ar
    10     5     6    1
    11     6     7    1
    12     7     8    1
    13     9    10   ar
    14    10    11   ar
    15    11    12   ar
    16    13    14   ar
    17    14    15   ar
    18    15    16   ar
    19    15    17    1
    20    17    18    1
    21    18    19    1
    22    19    20    1
