@<TRIPOS>MOLECULE
25191_ChemDiv_C753-0619
 29 31 0 0 0
SMALL
GASTEIGER
Energy = 0

@<TRIPOS>ATOM
      1 N           1.6710    0.7250    0.0000 N.ar    1  LIG1       -0.3221
      2 C           0.7420    1.0790    0.0000 C.ar    1  LIG1        0.0760
      3 C           0.1130    0.3170    0.0000 C.ar    1  LIG1        0.0585
      4 C           0.6580   -0.5290    0.0000 C.ar    1  LIG1        0.0190
      5 C           1.6210   -0.2750    0.0000 C.ar    1  LIG1        0.0601
      6 C           2.3210   -0.9830    0.0000 C.ar    1  LIG1        0.0172
      7 C           2.0670   -1.9330    0.0000 C.ar    1  LIG1        0.0015
      8 C           1.0960   -2.1960    0.0000 C.ar    1  LIG1        0.0001
      9 C           0.3960   -1.4960    0.0000 C.ar    1  LIG1        0.0014
     10 C          -0.8880    0.3790    0.0000 C.3     1  LIG1        0.2299
     11 N          -1.4380   -0.4540    0.0000 N.4     1  LIG1        0.4520
     12 C          -2.4380   -0.3880    0.0000 C.3     1  LIG1        0.2038
     13 C          -2.9920   -1.2210    0.0000 C.3     1  LIG1        0.1008
     14 C          -3.9920   -1.1500    0.0000 C.3     1  LIG1        0.1484
     15 O          -4.5540   -1.9830    0.0000 O.3     1  LIG1       -0.3560
     16 C          -5.5500   -1.9250    0.0000 C.3     1  LIG1        0.1154
     17 C          -6.1080   -2.7540    0.0000 C.3     1  LIG1        0.0320
     18 C          -5.9920   -1.0290    0.0000 C.3     1  LIG1        0.0320
     19 C           0.4750    2.0500    0.0000 C.2     1  LIG1        0.0885
     20 O          -0.4790    2.3000    0.0000 O.co2   1  LIG1       -0.5431
     21 O           1.1830    2.7580    0.0000 O.co2   1  LIG1       -0.5431
     22 C           2.5210    1.2710    0.0000 C.3     1  LIG1        0.1327
     23 C           3.4130    0.8080    0.0000 C.ar    1  LIG1        0.0004
     24 C           3.4750   -0.1920    0.0000 C.ar    1  LIG1       -0.0027
     25 C           4.3630   -0.6460    0.0000 C.ar    1  LIG1       -0.0045
     26 C           5.2080   -0.1080    0.0000 C.ar    1  LIG1       -0.0219
     27 C           5.1380    0.9000    0.0000 C.ar    1  LIG1       -0.0045
     28 C           4.2540    1.3540    0.0000 C.ar    1  LIG1       -0.0027
     29 C           6.1080   -0.5630    0.0000 C.3     1  LIG1        0.0310
@<TRIPOS>BOND
     1     1     2   ar
     2     1     5   ar
     3     1    22    1
     4     2     3   ar
     5     2    19    1
     6     3     4   ar
     7     3    10    1
     8     4     5   ar
     9     4     9   ar
    10     5     6   ar
    11     6     7   ar
    12     7     8   ar
    13     8     9   ar
    14    10    11    1
    15    11    12    1
    16    12    13    1
    17    13    14    1
    18    14    15    1
    19    15    16    1
    20    16    17    1
    21    16    18    1
    22    19    20   ar
    23    19    21   ar
    24    22    23    1
    25    23    24   ar
    26    23    28   ar
    27    24    25   ar
    28    25    26   ar
    29    26    27   ar
    30    26    29    1
    31    27    28   ar
