@<TRIPOS>MOLECULE
25193_ChemDiv_C753-1575
 24 27 0 0 0
SMALL
GASTEIGER
Energy = 0

@<TRIPOS>ATOM
      1 N          -0.0250   -0.8630    0.0000 N.ar    1  LIG1       -0.3221
      2 C           0.8790   -0.4630    0.0000 C.ar    1  LIG1        0.0760
      3 C           0.7790    0.5330    0.0000 C.ar    1  LIG1        0.0585
      4 C          -0.1960    0.7460    0.0000 C.ar    1  LIG1        0.0190
      5 C          -0.6960   -0.1210    0.0000 C.ar    1  LIG1        0.0601
      6 C          -1.7080   -0.1210    0.0000 C.ar    1  LIG1        0.0172
      7 C          -2.2080    0.7460    0.0000 C.ar    1  LIG1        0.0015
      8 C          -1.7080    1.6130    0.0000 C.ar    1  LIG1        0.0001
      9 C          -0.6960    1.6130    0.0000 C.ar    1  LIG1        0.0014
     10 C           1.5290    1.2000    0.0000 C.3     1  LIG1        0.2295
     11 N           1.3250    2.1830    0.0000 N.4     1  LIG1        0.4471
     12 C           2.0750    2.8420    0.0000 C.3     1  LIG1        0.1444
     13 C           2.8250    3.5000    0.0000 C.3     1  LIG1        0.0687
     14 C           3.0210    2.5210    0.0000 C.3     1  LIG1        0.0687
     15 C           1.7420   -0.9790    0.0000 C.2     1  LIG1        0.0885
     16 O           2.6130   -0.4830    0.0000 O.co2   1  LIG1       -0.5431
     17 O           1.7290   -1.9830    0.0000 O.co2   1  LIG1       -0.5431
     18 C          -0.2080   -1.8580    0.0000 C.3     1  LIG1        0.1327
     19 C          -1.1460   -2.1880    0.0000 C.ar    1  LIG1        0.0004
     20 C          -1.9040   -1.5420    0.0000 C.ar    1  LIG1       -0.0024
     21 C          -2.8420   -1.8750    0.0000 C.ar    1  LIG1       -0.0003
     22 C          -3.0250   -2.8580    0.0000 C.ar    1  LIG1       -0.0000
     23 C          -2.2670   -3.4960    0.0000 C.ar    1  LIG1       -0.0003
     24 C          -1.3290   -3.1630    0.0000 C.ar    1  LIG1       -0.0024
@<TRIPOS>BOND
     1     1     2   ar
     2     1     5   ar
     3     1    18    1
     4     2     3   ar
     5     2    15    1
     6     3     4   ar
     7     3    10    1
     8     4     5   ar
     9     4     9   ar
    10     5     6   ar
    11     6     7   ar
    12     7     8   ar
    13     8     9   ar
    14    10    11    1
    15    11    12    1
    16    12    13    1
    17    12    14    1
    18    13    14    1
    19    15    16   ar
    20    15    17   ar
    21    18    19    1
    22    19    20   ar
    23    19    24   ar
    24    20    21   ar
    25    21    22   ar
    26    22    23   ar
    27    23    24   ar
