@<TRIPOS>MOLECULE
25199_ChemDiv_G119-0567
 28 31 0 0 0
SMALL
GASTEIGER
Energy = 0

@<TRIPOS>ATOM
      1 N           1.8630   -3.4130    0.0000 N.ar    1  LIG1       -0.3289
      2 C           2.4420   -2.6080    0.0000 C.ar    1  LIG1        0.0335
      3 C           1.8500   -1.7960    0.0000 C.ar    1  LIG1       -0.0088
      4 C           0.9000   -2.1130    0.0000 C.ar    1  LIG1        0.0131
      5 C           0.9080   -3.1130    0.0000 C.ar    1  LIG1        0.0594
      6 C           0.0380   -3.6210    0.0000 C.ar    1  LIG1        0.0173
      7 C          -0.8250   -3.1210    0.0000 C.ar    1  LIG1        0.0060
      8 C          -0.8250   -2.1250    0.0000 C.ar    1  LIG1        0.0537
      9 C          -1.6880   -1.6130    0.0000 C.2     1  LIG1        0.2491
     10 N          -1.6880   -0.6250    0.0000 N.am    1  LIG1       -0.2726
     11 C          -2.5580   -0.1380    0.0000 C.3     1  LIG1        0.1151
     12 C          -2.5580    0.8630    0.0000 C.3     1  LIG1        0.1123
     13 N          -1.7040    1.3750    0.0000 N.pl3   1  LIG1       -0.3043
     14 C          -1.7040    2.3710    0.0000 C.ar    1  LIG1        0.0436
     15 C          -2.5670    2.8580    0.0000 C.ar    1  LIG1       -0.0125
     16 C          -2.5670    3.8670    0.0000 C.ar    1  LIG1       -0.0246
     17 C          -1.7040    4.3670    0.0000 C.ar    1  LIG1       -0.0045
     18 C          -0.8330    3.8830    0.0000 C.ar    1  LIG1        0.0009
     19 C          -0.8330    2.8750    0.0000 C.ar    1  LIG1        0.0142
     20 C          -3.4420    4.3670    0.0000 C.3     1  LIG1        0.0307
     21 C          -3.4290    2.3540    0.0000 C.3     1  LIG1        0.0320
     22 C          -0.8250    0.8630    0.0000 C.3     1  LIG1        0.1123
     23 C          -0.8330   -0.1380    0.0000 C.3     1  LIG1        0.1151
     24 O          -2.5580   -2.1250    0.0000 O.2     1  LIG1       -0.2699
     25 C           0.0380   -1.6130    0.0000 C.ar    1  LIG1        0.0057
     26 C           2.1540   -0.8540    0.0000 C.3     1  LIG1        0.0322
     27 C           3.4380   -2.5960    0.0000 C.3     1  LIG1        0.0497
     28 C           2.1670   -4.3670    0.0000 C.3     1  LIG1        0.1301
@<TRIPOS>BOND
     1     1     2   ar
     2     1     5   ar
     3     1    28    1
     4     2     3   ar
     5     2    27    1
     6     3     4   ar
     7     3    26    1
     8     4     5   ar
     9     4    25   ar
    10     5     6   ar
    11     6     7   ar
    12     7     8   ar
    13     8     9    1
    14     8    25   ar
    15     9    10   am
    16     9    24    2
    17    10    11    1
    18    10    23    1
    19    11    12    1
    20    12    13    1
    21    13    14    1
    22    13    22    1
    23    14    15   ar
    24    14    19   ar
    25    15    16   ar
    26    15    21    1
    27    16    17   ar
    28    16    20    1
    29    17    18   ar
    30    18    19   ar
    31    22    23    1
