@<TRIPOS>MOLECULE
25194_ChemDiv_3174-0588
 25 29 0 0 0
SMALL
GASTEIGER
Energy = 0

@<TRIPOS>ATOM
      1 N          -0.7420    0.0130    0.0000 N.ar    1  LIG1       -0.2417
      2 C          -1.2380   -0.8710    0.0000 C.ar    1  LIG1        0.2669
      3 C          -2.2460   -0.8540    0.0000 C.ar    1  LIG1        0.0567
      4 C          -2.7420    0.0130    0.0000 C.ar    1  LIG1        0.0092
      5 C          -2.2460    0.8790    0.0000 C.ar    1  LIG1        0.0567
      6 C          -1.2500    0.8790    0.0000 C.ar    1  LIG1        0.2669
      7 O          -0.7420    1.7330    0.0000 O.2     1  LIG1       -0.2665
      8 C          -2.7420    1.7330    0.0000 C.ar    1  LIG1        0.0047
      9 C          -3.7380    1.7330    0.0000 C.ar    1  LIG1        0.0002
     10 C          -4.2330    0.8790    0.0000 C.ar    1  LIG1        0.0000
     11 C          -3.7380    0.0130    0.0000 C.ar    1  LIG1        0.0003
     12 C          -4.2330   -0.8540    0.0000 C.ar    1  LIG1        0.0000
     13 C          -3.7380   -1.7210    0.0000 C.ar    1  LIG1        0.0002
     14 C          -2.7420   -1.7210    0.0000 C.ar    1  LIG1        0.0047
     15 O          -0.7420   -1.7290    0.0000 O.2     1  LIG1       -0.2665
     16 C           0.2710    0.0130    0.0000 C.ar    1  LIG1        0.0713
     17 C           0.7670    0.9000    0.0000 C.ar    1  LIG1        0.0385
     18 C           1.7670    0.9000    0.0000 C.ar    1  LIG1        0.1052
     19 N           2.4420    1.6130    0.0000 N.ar    1  LIG1       -0.1893
     20 C           3.3670    1.2380    0.0000 C.ar    1  LIG1        0.3688
     21 N           3.2580    0.2250    0.0000 N.ar    1  LIG1       -0.1893
     22 C           2.2830    0.0290    0.0000 C.ar    1  LIG1        0.1039
     23 C           1.7670   -0.8540    0.0000 C.ar    1  LIG1        0.0223
     24 C           0.7670   -0.8540    0.0000 C.ar    1  LIG1        0.0194
     25 O           4.2290    1.7170    0.0000 O.2     1  LIG1       -0.2426
@<TRIPOS>BOND
     1     1     2   ar
     2     1     6   ar
     3     1    16    1
     4     2     3   ar
     5     2    15    2
     6     3     4   ar
     7     3    14   ar
     8     4     5   ar
     9     4    11   ar
    10     5     6   ar
    11     5     8   ar
    12     6     7    2
    13     8     9   ar
    14     9    10   ar
    15    10    11   ar
    16    11    12   ar
    17    12    13   ar
    18    13    14   ar
    19    16    17   ar
    20    16    24   ar
    21    17    18   ar
    22    18    19   ar
    23    18    22   ar
    24    19    20   ar
    25    20    21   ar
    26    20    25    2
    27    21    22   ar
    28    22    23   ar
    29    23    24   ar
