@<TRIPOS>MOLECULE
25197_ChemDiv_G119-0563
 26 29 0 0 0
SMALL
GASTEIGER
Energy = 0

@<TRIPOS>ATOM
      1 N           1.4170   -3.4210    0.0000 N.ar    1  LIG1       -0.3289
      2 C           1.9960   -2.6170    0.0000 C.ar    1  LIG1        0.0335
      3 C           1.4080   -1.8040    0.0000 C.ar    1  LIG1       -0.0088
      4 C           0.4540   -2.1210    0.0000 C.ar    1  LIG1        0.0131
      5 C           0.4630   -3.1210    0.0000 C.ar    1  LIG1        0.0594
      6 C          -0.4080   -3.6290    0.0000 C.ar    1  LIG1        0.0173
      7 C          -1.2710   -3.1290    0.0000 C.ar    1  LIG1        0.0060
      8 C          -1.2710   -2.1330    0.0000 C.ar    1  LIG1        0.0537
      9 C          -2.1330   -1.6210    0.0000 C.2     1  LIG1        0.2491
     10 N          -2.1330   -0.6330    0.0000 N.am    1  LIG1       -0.2726
     11 C          -1.2710   -0.1290    0.0000 C.3     1  LIG1        0.1151
     12 C          -1.2710    0.8710    0.0000 C.3     1  LIG1        0.1123
     13 N          -2.1330    1.3830    0.0000 N.pl3   1  LIG1       -0.3041
     14 C          -3.0000    0.8710    0.0000 C.3     1  LIG1        0.1123
     15 C          -3.0000   -0.1290    0.0000 C.3     1  LIG1        0.1151
     16 C          -2.1330    2.3670    0.0000 C.ar    1  LIG1        0.0479
     17 C          -1.2710    2.8670    0.0000 C.ar    1  LIG1        0.0145
     18 C          -1.2710    3.8750    0.0000 C.ar    1  LIG1        0.0013
     19 C          -2.1330    4.3750    0.0000 C.ar    1  LIG1        0.0001
     20 C          -2.9960    3.8790    0.0000 C.ar    1  LIG1        0.0013
     21 C          -3.0000    2.8750    0.0000 C.ar    1  LIG1        0.0145
     22 O          -3.0000   -2.1330    0.0000 O.2     1  LIG1       -0.2699
     23 C          -0.4080   -1.6210    0.0000 C.ar    1  LIG1        0.0057
     24 C           1.7080   -0.8630    0.0000 C.3     1  LIG1        0.0322
     25 C           2.9960   -2.6040    0.0000 C.3     1  LIG1        0.0497
     26 C           1.7250   -4.3750    0.0000 C.3     1  LIG1        0.1301
@<TRIPOS>BOND
     1     1     2   ar
     2     1     5   ar
     3     1    26    1
     4     2     3   ar
     5     2    25    1
     6     3     4   ar
     7     3    24    1
     8     4     5   ar
     9     4    23   ar
    10     5     6   ar
    11     6     7   ar
    12     7     8   ar
    13     8     9    1
    14     8    23   ar
    15     9    10   am
    16     9    22    2
    17    10    11    1
    18    10    15    1
    19    11    12    1
    20    12    13    1
    21    13    14    1
    22    13    16    1
    23    14    15    1
    24    16    17   ar
    25    16    21   ar
    26    17    18   ar
    27    18    19   ar
    28    19    20   ar
    29    20    21   ar
