@<TRIPOS>MOLECULE
25190_ChemDiv_0422-0073
 22 24 0 0 0
SMALL
GASTEIGER
Energy = 0

@<TRIPOS>ATOM
      1 S          -1.7330   -0.0210    0.0000 S.O2    1  LIG1       -0.0577
      2 N          -0.8580    0.4880    0.0000 N.pl3   1  LIG1       -0.5346
      3 C          -0.8580    1.4830    0.0000 C.ar    1  LIG1       -0.0942
      4 C           0.0000    1.9830    0.0000 C.ar    1  LIG1        0.0588
      5 N           0.8580    1.4830    0.0000 N.ar    1  LIG1       -0.2515
      6 C           1.7420    1.9830    0.0000 C.ar    1  LIG1        0.0593
      7 C           1.7420    2.9830    0.0000 C.ar    1  LIG1        0.0147
      8 C           0.8580    3.4750    0.0000 C.ar    1  LIG1        0.0026
      9 C           0.0000    2.9830    0.0000 C.ar    1  LIG1        0.0159
     10 C          -0.8580    3.4750    0.0000 C.ar    1  LIG1        0.0014
     11 C          -1.7330    2.9830    0.0000 C.ar    1  LIG1       -0.0018
     12 C          -1.7330    1.9830    0.0000 C.ar    1  LIG1       -0.0224
     13 C           2.5880    1.4790    0.0000 C.3     1  LIG1        0.0521
     14 C          -1.2380   -0.8920    0.0000 C.ar    1  LIG1        0.0893
     15 C          -1.7330   -1.7500    0.0000 C.ar    1  LIG1        0.0166
     16 C          -1.2380   -2.6130    0.0000 C.ar    1  LIG1       -0.0030
     17 C          -0.2210   -2.6130    0.0000 C.ar    1  LIG1       -0.0218
     18 C           0.2790   -1.7500    0.0000 C.ar    1  LIG1       -0.0030
     19 C          -0.2210   -0.8920    0.0000 C.ar    1  LIG1        0.0166
     20 C           0.2670   -3.4710    0.0000 C.3     1  LIG1        0.0310
     21 O          -2.5920   -0.5170    0.0000 O.2     1  LIG1       -0.1842
     22 O          -2.2380    0.8630    0.0000 O.2     1  LIG1       -0.1842
@<TRIPOS>BOND
     1     1     2    1
     2     1    14    1
     3     1    21    2
     4     1    22    2
     5     2     3    1
     6     3     4   ar
     7     3    12   ar
     8     4     5   ar
     9     4     9   ar
    10     5     6   ar
    11     6     7   ar
    12     6    13    1
    13     7     8   ar
    14     8     9   ar
    15     9    10   ar
    16    10    11   ar
    17    11    12   ar
    18    14    15   ar
    19    14    19   ar
    20    15    16   ar
    21    16    17   ar
    22    17    18   ar
    23    17    20    1
    24    18    19   ar
