@<TRIPOS>MOLECULE
25200_ChemDiv_C447-0476
 31 35 0 0 0
SMALL
GASTEIGER
Energy = 0

@<TRIPOS>ATOM
      1 C           1.4750   -2.1830    0.0000 C.ar    1  LIG1        0.1623
      2 N           1.5750   -3.1710    0.0000 N.ar    1  LIG1       -0.2251
      3 C           2.5540   -3.3830    0.0000 C.ar    1  LIG1        0.1006
      4 C           3.0540   -2.5210    0.0000 C.ar    1  LIG1        0.1006
      5 N           2.3750   -1.7750    0.0000 N.ar    1  LIG1       -0.2251
      6 C           4.0580   -2.5210    0.0000 C.ar    1  LIG1        0.0207
      7 C           4.5580   -3.3830    0.0000 C.ar    1  LIG1        0.0016
      8 C           4.0580   -4.2500    0.0000 C.ar    1  LIG1        0.0016
      9 C           3.0540   -4.2500    0.0000 C.ar    1  LIG1        0.0207
     10 C           0.5790   -1.7250    0.0000 C.ar    1  LIG1        0.0371
     11 C           0.5250   -0.7250    0.0000 C.ar    1  LIG1        0.0197
     12 C          -0.3630   -0.2710    0.0000 C.ar    1  LIG1        0.0738
     13 N          -0.4040    0.7290    0.0000 N.am    1  LIG1       -0.1754
     14 C           0.4380    1.2580    0.0000 C.2     1  LIG1        0.2691
     15 C           0.4000    2.2580    0.0000 C.ar    1  LIG1        0.0595
     16 C          -0.4830    2.7250    0.0000 C.ar    1  LIG1        0.0557
     17 C          -1.4210    2.3830    0.0000 C.2     1  LIG1        0.2492
     18 N          -2.0330    3.1710    0.0000 N.am    1  LIG1       -0.2720
     19 C          -1.4830    4.0000    0.0000 C.3     1  LIG1        0.1206
     20 C          -0.5250    3.7250    0.0000 C.ar    1  LIG1        0.0022
     21 C           0.3170    4.2500    0.0000 C.ar    1  LIG1       -0.0025
     22 C           1.2080    3.7960    0.0000 C.ar    1  LIG1       -0.0001
     23 C           1.2460    2.7920    0.0000 C.ar    1  LIG1        0.0047
     24 C          -3.0330    3.1420    0.0000 C.3     1  LIG1        0.0940
     25 C          -3.5580    3.9880    0.0000 C.3     1  LIG1        0.0215
     26 C          -4.5630    3.9630    0.0000 C.3     1  LIG1        0.0018
     27 O          -1.7040    1.4210    0.0000 O.2     1  LIG1       -0.2699
     28 O           1.3210    0.7880    0.0000 O.2     1  LIG1       -0.2680
     29 C          -1.2130   -0.8080    0.0000 C.ar    1  LIG1        0.0166
     30 C          -1.1500   -1.8130    0.0000 C.ar    1  LIG1        0.0014
     31 C          -0.2580   -2.2670    0.0000 C.ar    1  LIG1        0.0031
@<TRIPOS>BOND
     1     1     2   ar
     2     1     5   ar
     3     1    10    1
     4     2     3   ar
     5     3     4   ar
     6     3     9   ar
     7     4     5   ar
     8     4     6   ar
     9     6     7   ar
    10     7     8   ar
    11     8     9   ar
    12    10    11   ar
    13    10    31   ar
    14    11    12   ar
    15    12    13    1
    16    12    29   ar
    17    13    14   am
    18    14    15    1
    19    14    28    2
    20    15    16   ar
    21    15    23   ar
    22    16    17    1
    23    16    20   ar
    24    17    18   am
    25    17    27    2
    26    18    19    1
    27    18    24    1
    28    19    20    1
    29    20    21   ar
    30    21    22   ar
    31    22    23   ar
    32    24    25    1
    33    25    26    1
    34    29    30   ar
    35    30    31   ar
