@<TRIPOS>MOLECULE
25206_ChemDiv_E205-0033
 25 28 0 0 0
SMALL
GASTEIGER
Energy = 0

@<TRIPOS>ATOM
      1 C          -2.8580   -0.1380    0.0000 C.ar    1  LIG1        0.1664
      2 C          -2.8420    0.8630    0.0000 C.ar    1  LIG1        0.1383
      3 C          -3.7960    1.1880    0.0000 C.ar    1  LIG1        0.0382
      4 C          -4.4040    0.3790    0.0000 C.ar    1  LIG1        0.0627
      5 N          -3.8130   -0.4420    0.0000 N.ar    1  LIG1       -0.3093
      6 C          -4.1290   -1.3880    0.0000 C.3     1  LIG1        0.1319
      7 C          -5.3880    0.5000    0.0000 C.ar    1  LIG1        0.0173
      8 C          -5.7830    1.4130    0.0000 C.ar    1  LIG1        0.0015
      9 C          -5.1750    2.2170    0.0000 C.ar    1  LIG1        0.0001
     10 C          -4.1920    2.0960    0.0000 C.ar    1  LIG1        0.0031
     11 N          -1.9790    1.3460    0.0000 N.ar    1  LIG1       -0.1421
     12 N          -1.1170    0.8460    0.0000 N.ar    1  LIG1       -0.1108
     13 C          -1.1290   -0.1630    0.0000 C.ar    1  LIG1        0.2567
     14 N          -2.0000   -0.6500    0.0000 N.ar    1  LIG1       -0.1922
     15 N          -0.2670   -0.6670    0.0000 N.pl3   1  LIG1       -0.2026
     16 C           0.6080   -0.1790    0.0000 C.3     1  LIG1        0.1168
     17 C           1.4710   -0.6750    0.0000 C.3     1  LIG1        0.0408
     18 C           2.3380   -0.1830    0.0000 C.3     1  LIG1        0.0743
     19 N           3.2040   -0.6920    0.0000 N.3     1  LIG1       -0.2627
     20 C           3.1880   -1.6920    0.0000 C.3     1  LIG1        0.1359
     21 C           4.0460   -2.1960    0.0000 C.3     1  LIG1        0.1566
     22 N           4.9130   -1.7080    0.0000 N.4     1  LIG1        0.3842
     23 C           4.9290   -0.7080    0.0000 C.3     1  LIG1        0.1566
     24 C           4.0670   -0.1920    0.0000 C.3     1  LIG1        0.1359
     25 C           5.7790   -2.2130    0.0000 C.3     1  LIG1        0.2024
@<TRIPOS>BOND
     1     1     2   ar
     2     1     5   ar
     3     1    14   ar
     4     2     3   ar
     5     2    11   ar
     6     3     4   ar
     7     3    10   ar
     8     4     5   ar
     9     4     7   ar
    10     5     6    1
    11     7     8   ar
    12     8     9   ar
    13     9    10   ar
    14    11    12   ar
    15    12    13   ar
    16    13    14   ar
    17    13    15    1
    18    15    16    1
    19    16    17    1
    20    17    18    1
    21    18    19    1
    22    19    20    1
    23    19    24    1
    24    20    21    1
    25    21    22    1
    26    22    23    1
    27    22    25    1
    28    23    24    1
