@<TRIPOS>MOLECULE
25204_ChemDiv_E205-0013
 24 27 0 0 0
SMALL
GASTEIGER
Energy = 0

@<TRIPOS>ATOM
      1 C          -2.3580   -0.0750    0.0000 C.ar    1  LIG1        0.1664
      2 C          -2.3420    0.9290    0.0000 C.ar    1  LIG1        0.1383
      3 C          -3.2960    1.2580    0.0000 C.ar    1  LIG1        0.0382
      4 C          -3.8920    0.4460    0.0000 C.ar    1  LIG1        0.0627
      5 N          -3.3130   -0.3630    0.0000 N.ar    1  LIG1       -0.3093
      6 C          -3.6290   -1.3170    0.0000 C.3     1  LIG1        0.1319
      7 C          -4.8880    0.5580    0.0000 C.ar    1  LIG1        0.0173
      8 C          -5.2790    1.4830    0.0000 C.ar    1  LIG1        0.0015
      9 C          -4.6750    2.2880    0.0000 C.ar    1  LIG1        0.0001
     10 C          -3.6920    2.1670    0.0000 C.ar    1  LIG1        0.0031
     11 N          -1.4790    1.4130    0.0000 N.ar    1  LIG1       -0.1421
     12 N          -0.6170    0.9080    0.0000 N.ar    1  LIG1       -0.1108
     13 C          -0.6290   -0.0920    0.0000 C.ar    1  LIG1        0.2567
     14 N          -1.5000   -0.5880    0.0000 N.ar    1  LIG1       -0.1922
     15 N           0.2330   -0.6040    0.0000 N.pl3   1  LIG1       -0.2025
     16 C           1.1040   -0.1080    0.0000 C.3     1  LIG1        0.1172
     17 C           1.9710   -0.6040    0.0000 C.3     1  LIG1        0.0449
     18 C           2.8380   -0.1210    0.0000 C.3     1  LIG1        0.0952
     19 N           3.7000   -0.6210    0.0000 N.am    1  LIG1       -0.2795
     20 C           3.8040   -1.6170    0.0000 C.2     1  LIG1        0.2257
     21 O           3.0500   -2.2830    0.0000 O.2     1  LIG1       -0.2749
     22 C           4.7750   -1.8330    0.0000 C.3     1  LIG1        0.0870
     23 C           5.2750   -0.9710    0.0000 C.3     1  LIG1        0.0311
     24 C           4.6210   -0.2210    0.0000 C.3     1  LIG1        0.0939
@<TRIPOS>BOND
     1     1     2   ar
     2     1     5   ar
     3     1    14   ar
     4     2     3   ar
     5     2    11   ar
     6     3     4   ar
     7     3    10   ar
     8     4     5   ar
     9     4     7   ar
    10     5     6    1
    11     7     8   ar
    12     8     9   ar
    13     9    10   ar
    14    11    12   ar
    15    12    13   ar
    16    13    14   ar
    17    13    15    1
    18    15    16    1
    19    16    17    1
    20    17    18    1
    21    18    19    1
    22    19    20   am
    23    19    24    1
    24    20    21    2
    25    20    22    1
    26    22    23    1
    27    23    24    1
