@<TRIPOS>MOLECULE
25202_ChemDiv_E205-0006
 20 23 0 0 0
SMALL
GASTEIGER
Energy = 0

@<TRIPOS>ATOM
      1 C          -0.7080   -0.1670    0.0000 C.ar    1  LIG1        0.1664
      2 N           0.1540   -0.6750    0.0000 N.ar    1  LIG1       -0.1934
      3 C           1.0290   -0.1790    0.0000 C.ar    1  LIG1        0.2408
      4 N           1.0330    0.8210    0.0000 N.ar    1  LIG1       -0.1123
      5 N           0.1790    1.3250    0.0000 N.ar    1  LIG1       -0.1422
      6 C          -0.6960    0.8420    0.0000 C.ar    1  LIG1        0.1383
      7 C          -1.6380    1.1710    0.0000 C.ar    1  LIG1        0.0382
      8 C          -2.2420    0.3540    0.0000 C.ar    1  LIG1        0.0627
      9 N          -1.6670   -0.4630    0.0000 N.ar    1  LIG1       -0.3093
     10 C          -1.9830   -1.4080    0.0000 C.3     1  LIG1        0.1319
     11 C          -3.2420    0.4710    0.0000 C.ar    1  LIG1        0.0173
     12 C          -3.6250    1.3960    0.0000 C.ar    1  LIG1        0.0015
     13 C          -3.0290    2.2000    0.0000 C.ar    1  LIG1        0.0001
     14 C          -2.0330    2.0790    0.0000 C.ar    1  LIG1        0.0031
     15 N           1.8920   -0.6960    0.0000 N.pl3   1  LIG1       -0.2718
     16 C           1.8830   -1.6790    0.0000 C.3     1  LIG1        0.1257
     17 C           2.7330   -2.1960    0.0000 C.3     1  LIG1        0.1637
     18 O           3.6040   -1.7130    0.0000 O.3     1  LIG1       -0.3501
     19 C           3.6210   -0.7080    0.0000 C.3     1  LIG1        0.1637
     20 C           2.7630   -0.2040    0.0000 C.3     1  LIG1        0.1257
@<TRIPOS>BOND
     1     1     2   ar
     2     1     6   ar
     3     1     9   ar
     4     2     3   ar
     5     3     4   ar
     6     3    15    1
     7     4     5   ar
     8     5     6   ar
     9     6     7   ar
    10     7     8   ar
    11     7    14   ar
    12     8     9   ar
    13     8    11   ar
    14     9    10    1
    15    11    12   ar
    16    12    13   ar
    17    13    14   ar
    18    15    16    1
    19    15    20    1
    20    16    17    1
    21    17    18    1
    22    18    19    1
    23    19    20    1
