@<TRIPOS>MOLECULE
25208_ChemDiv_E205-0038
 22 24 0 0 0
SMALL
GASTEIGER
Energy = 0

@<TRIPOS>ATOM
      1 C          -2.4330   -0.5500    0.0000 C.ar    1  LIG1        0.1664
      2 C          -2.4170    0.4500    0.0000 C.ar    1  LIG1        0.1383
      3 C          -3.3710    0.7750    0.0000 C.ar    1  LIG1        0.0382
      4 C          -3.9790   -0.0330    0.0000 C.ar    1  LIG1        0.0627
      5 N          -3.3880   -0.8500    0.0000 N.ar    1  LIG1       -0.3093
      6 C          -3.7040   -1.8000    0.0000 C.3     1  LIG1        0.1319
      7 C          -4.9630    0.0880    0.0000 C.ar    1  LIG1        0.0173
      8 C          -5.3540    1.0000    0.0000 C.ar    1  LIG1        0.0015
      9 C          -4.7500    1.8040    0.0000 C.ar    1  LIG1        0.0001
     10 C          -3.7670    1.6830    0.0000 C.ar    1  LIG1        0.0031
     11 N          -1.5540    0.9380    0.0000 N.ar    1  LIG1       -0.1421
     12 N          -0.6920    0.4380    0.0000 N.ar    1  LIG1       -0.1108
     13 C          -0.7040   -0.5750    0.0000 C.ar    1  LIG1        0.2567
     14 N          -1.5750   -1.0630    0.0000 N.ar    1  LIG1       -0.1922
     15 N           0.1580   -1.0790    0.0000 N.pl3   1  LIG1       -0.2025
     16 C           1.0290   -0.5790    0.0000 C.3     1  LIG1        0.1180
     17 C           1.9000   -1.0790    0.0000 C.3     1  LIG1        0.0555
     18 C           2.7630   -0.5790    0.0000 C.3     1  LIG1        0.1439
     19 O           3.6250   -1.0790    0.0000 O.3     1  LIG1       -0.3562
     20 C           4.5000   -0.5790    0.0000 C.3     1  LIG1        0.1154
     21 C           5.3500   -1.0880    0.0000 C.3     1  LIG1        0.0320
     22 C           4.5000    0.4210    0.0000 C.3     1  LIG1        0.0320
@<TRIPOS>BOND
     1     1     2   ar
     2     1     5   ar
     3     1    14   ar
     4     2     3   ar
     5     2    11   ar
     6     3     4   ar
     7     3    10   ar
     8     4     5   ar
     9     4     7   ar
    10     5     6    1
    11     7     8   ar
    12     8     9   ar
    13     9    10   ar
    14    11    12   ar
    15    12    13   ar
    16    13    14   ar
    17    13    15    1
    18    15    16    1
    19    16    17    1
    20    17    18    1
    21    18    19    1
    22    19    20    1
    23    20    21    1
    24    20    22    1
