@<TRIPOS>MOLECULE
25217_ChemDiv_G119-0585
 26 29 0 0 0
SMALL
GASTEIGER
Energy = 0

@<TRIPOS>ATOM
      1 N           1.4210   -3.4210    0.0000 N.ar    1  LIG1       -0.3289
      2 C           2.0040   -2.6170    0.0000 C.ar    1  LIG1        0.0335
      3 C           1.4130   -1.8040    0.0000 C.ar    1  LIG1       -0.0088
      4 C           0.4580   -2.1210    0.0000 C.ar    1  LIG1        0.0131
      5 C           0.4710   -3.1210    0.0000 C.ar    1  LIG1        0.0594
      6 C          -0.4040   -3.6290    0.0000 C.ar    1  LIG1        0.0173
      7 C          -1.2670   -3.1290    0.0000 C.ar    1  LIG1        0.0060
      8 C          -1.2670   -2.1290    0.0000 C.ar    1  LIG1        0.0537
      9 C          -2.1290   -1.6210    0.0000 C.2     1  LIG1        0.2491
     10 N          -2.1290   -0.6330    0.0000 N.am    1  LIG1       -0.2726
     11 C          -1.2540   -0.1290    0.0000 C.3     1  LIG1        0.1152
     12 C          -1.2540    0.8710    0.0000 C.3     1  LIG1        0.1137
     13 N          -2.1290    1.3630    0.0000 N.pl3   1  LIG1       -0.2897
     14 C          -2.1420    2.3670    0.0000 C.ar    1  LIG1        0.1318
     15 N          -3.0040    2.8630    0.0000 N.ar    1  LIG1       -0.2292
     16 C          -2.9960    3.8670    0.0000 C.ar    1  LIG1        0.1003
     17 C          -2.1420    4.3750    0.0000 C.ar    1  LIG1        0.0208
     18 C          -1.2790    3.8790    0.0000 C.ar    1  LIG1        0.0045
     19 C          -1.2670    2.8630    0.0000 C.ar    1  LIG1        0.0343
     20 C          -2.9880    0.8540    0.0000 C.3     1  LIG1        0.1137
     21 C          -2.9880   -0.1330    0.0000 C.3     1  LIG1        0.1152
     22 O          -2.9960   -2.1290    0.0000 O.2     1  LIG1       -0.2699
     23 C          -0.4040   -1.6210    0.0000 C.ar    1  LIG1        0.0057
     24 C           1.7170   -0.8580    0.0000 C.3     1  LIG1        0.0322
     25 C           3.0000   -2.6040    0.0000 C.3     1  LIG1        0.0497
     26 C           1.7290   -4.3750    0.0000 C.3     1  LIG1        0.1301
@<TRIPOS>BOND
     1     1     2   ar
     2     1     5   ar
     3     1    26    1
     4     2     3   ar
     5     2    25    1
     6     3     4   ar
     7     3    24    1
     8     4     5   ar
     9     4    23   ar
    10     5     6   ar
    11     6     7   ar
    12     7     8   ar
    13     8     9    1
    14     8    23   ar
    15     9    10   am
    16     9    22    2
    17    10    11    1
    18    10    21    1
    19    11    12    1
    20    12    13    1
    21    13    14    1
    22    13    20    1
    23    14    15   ar
    24    14    19   ar
    25    15    16   ar
    26    16    17   ar
    27    17    18   ar
    28    18    19   ar
    29    20    21    1
