@<TRIPOS>MOLECULE
25218_ChemDiv_C447-0792
 32 36 0 0 0
SMALL
GASTEIGER
Energy = 0

@<TRIPOS>ATOM
      1 C           1.6130   -2.1630    0.0000 C.ar    1  LIG1        0.1623
      2 N           1.6670   -3.1630    0.0000 N.ar    1  LIG1       -0.2251
      3 C           2.6330   -3.4210    0.0000 C.ar    1  LIG1        0.1006
      4 C           3.1710   -2.5790    0.0000 C.ar    1  LIG1        0.1006
      5 N           2.5420   -1.8080    0.0000 N.ar    1  LIG1       -0.2251
      6 C           4.1630   -2.6250    0.0000 C.ar    1  LIG1        0.0207
      7 C           4.6250   -3.5170    0.0000 C.ar    1  LIG1        0.0016
      8 C           4.0880   -4.3630    0.0000 C.ar    1  LIG1        0.0016
      9 C           3.0880   -4.3040    0.0000 C.ar    1  LIG1        0.0207
     10 C           0.7500   -1.6540    0.0000 C.ar    1  LIG1        0.0371
     11 C           0.7540   -0.6540    0.0000 C.ar    1  LIG1        0.0197
     12 C          -0.1080   -0.1420    0.0000 C.ar    1  LIG1        0.0738
     13 N          -0.1080    0.8710    0.0000 N.am    1  LIG1       -0.1754
     14 C           0.7540    1.3710    0.0000 C.2     1  LIG1        0.2691
     15 C           0.7540    2.3580    0.0000 C.ar    1  LIG1        0.0595
     16 C          -0.1080    2.8500    0.0000 C.ar    1  LIG1        0.0557
     17 C          -1.0460    2.5500    0.0000 C.2     1  LIG1        0.2492
     18 N          -1.6380    3.3670    0.0000 N.am    1  LIG1       -0.2694
     19 C          -1.0460    4.1580    0.0000 C.3     1  LIG1        0.1207
     20 C          -0.1080    3.8500    0.0000 C.ar    1  LIG1        0.0022
     21 C           0.7540    4.3580    0.0000 C.ar    1  LIG1       -0.0025
     22 C           1.6330    3.8630    0.0000 C.ar    1  LIG1       -0.0001
     23 C           1.6330    2.8630    0.0000 C.ar    1  LIG1        0.0047
     24 C          -2.6330    3.3670    0.0000 C.3     1  LIG1        0.1260
     25 C          -3.1290    2.5000    0.0000 C.3     1  LIG1        0.1637
     26 O          -4.1290    2.5000    0.0000 O.3     1  LIG1       -0.3493
     27 C          -4.6290    3.3670    0.0000 C.3     1  LIG1        0.1742
     28 O          -1.3630    1.6000    0.0000 O.2     1  LIG1       -0.2699
     29 O           1.6330    0.8710    0.0000 O.2     1  LIG1       -0.2680
     30 C          -0.9710   -0.6380    0.0000 C.ar    1  LIG1        0.0166
     31 C          -0.9880   -1.6380    0.0000 C.ar    1  LIG1        0.0014
     32 C          -0.1210   -2.1540    0.0000 C.ar    1  LIG1        0.0031
@<TRIPOS>BOND
     1     1     2   ar
     2     1     5   ar
     3     1    10    1
     4     2     3   ar
     5     3     4   ar
     6     3     9   ar
     7     4     5   ar
     8     4     6   ar
     9     6     7   ar
    10     7     8   ar
    11     8     9   ar
    12    10    11   ar
    13    10    32   ar
    14    11    12   ar
    15    12    13    1
    16    12    30   ar
    17    13    14   am
    18    14    15    1
    19    14    29    2
    20    15    16   ar
    21    15    23   ar
    22    16    17    1
    23    16    20   ar
    24    17    18   am
    25    17    28    2
    26    18    19    1
    27    18    24    1
    28    19    20    1
    29    20    21   ar
    30    21    22   ar
    31    22    23   ar
    32    24    25    1
    33    25    26    1
    34    26    27    1
    35    30    31   ar
    36    31    32   ar
