@<TRIPOS>MOLECULE
25212_ChemDiv_E205-0058
 24 27 0 0 0
SMALL
GASTEIGER
Energy = 0

@<TRIPOS>ATOM
      1 C          -2.0040   -0.6210    0.0000 C.ar    1  LIG1        0.1664
      2 C          -1.9920    0.3880    0.0000 C.ar    1  LIG1        0.1383
      3 C          -2.9330    0.7040    0.0000 C.ar    1  LIG1        0.0382
      4 C          -3.5380   -0.0960    0.0000 C.ar    1  LIG1        0.0627
      5 N          -2.9580   -0.9130    0.0000 N.ar    1  LIG1       -0.3093
      6 C          -3.2790   -1.8670    0.0000 C.3     1  LIG1        0.1319
      7 C          -4.5330    0.0170    0.0000 C.ar    1  LIG1        0.0173
      8 C          -4.9170    0.9330    0.0000 C.ar    1  LIG1        0.0015
      9 C          -4.3250    1.7380    0.0000 C.ar    1  LIG1        0.0001
     10 C          -3.3290    1.6170    0.0000 C.ar    1  LIG1        0.0031
     11 N          -1.1170    0.8750    0.0000 N.ar    1  LIG1       -0.1421
     12 N          -0.2630    0.3630    0.0000 N.ar    1  LIG1       -0.1108
     13 C          -0.2710   -0.6420    0.0000 C.ar    1  LIG1        0.2567
     14 N          -1.1420   -1.1250    0.0000 N.ar    1  LIG1       -0.1922
     15 N           0.5920   -1.1500    0.0000 N.pl3   1  LIG1       -0.2022
     16 C           1.4630   -0.6420    0.0000 C.3     1  LIG1        0.1201
     17 C           2.3330   -1.1420    0.0000 C.3     1  LIG1        0.0498
     18 C           3.2000   -0.6250    0.0000 C.ar    1  LIG1       -0.0207
     19 C           3.1830    0.3630    0.0000 C.ar    1  LIG1       -0.0085
     20 C           4.0370    0.8750    0.0000 C.ar    1  LIG1       -0.0222
     21 C           4.9130    0.3790    0.0000 C.ar    1  LIG1       -0.0043
     22 C           4.9130   -0.6210    0.0000 C.ar    1  LIG1       -0.0006
     23 C           4.0630   -1.1250    0.0000 C.ar    1  LIG1       -0.0042
     24 C           4.0290    1.8710    0.0000 C.3     1  LIG1        0.0310
@<TRIPOS>BOND
     1     1     2   ar
     2     1     5   ar
     3     1    14   ar
     4     2     3   ar
     5     2    11   ar
     6     3     4   ar
     7     3    10   ar
     8     4     5   ar
     9     4     7   ar
    10     5     6    1
    11     7     8   ar
    12     8     9   ar
    13     9    10   ar
    14    11    12   ar
    15    12    13   ar
    16    13    14   ar
    17    13    15    1
    18    15    16    1
    19    16    17    1
    20    17    18    1
    21    18    19   ar
    22    18    23   ar
    23    19    20   ar
    24    20    21   ar
    25    20    24    1
    26    21    22   ar
    27    22    23   ar
