@<TRIPOS>MOLECULE
25219_ChemDiv_G119-1050
 26 28 0 0 0
SMALL
GASTEIGER
Energy = 0

@<TRIPOS>ATOM
      1 N           3.1630   -0.0170    0.0000 N.ar    1  LIG1       -0.3268
      2 C           3.7420    0.7920    0.0000 C.ar    1  LIG1        0.0338
      3 C           3.1500    1.6040    0.0000 C.ar    1  LIG1       -0.0088
      4 C           2.1960    1.2830    0.0000 C.ar    1  LIG1        0.0131
      5 C           2.2080    0.2830    0.0000 C.ar    1  LIG1        0.0596
      6 C           1.3330   -0.2250    0.0000 C.ar    1  LIG1        0.0173
      7 C           0.4710    0.2750    0.0000 C.ar    1  LIG1        0.0060
      8 C           0.4710    1.2750    0.0000 C.ar    1  LIG1        0.0551
      9 C           1.3330    1.7830    0.0000 C.ar    1  LIG1        0.0057
     10 C          -0.3920    1.7830    0.0000 C.2     1  LIG1        0.2648
     11 O          -1.2630    1.2750    0.0000 O.2     1  LIG1       -0.2684
     12 N          -0.3920    2.7750    0.0000 N.am    1  LIG1       -0.2016
     13 C          -1.2710    3.2750    0.0000 C.3     1  LIG1        0.1181
     14 C          -2.1540    2.8170    0.0000 C.3     1  LIG1        0.0555
     15 C          -3.0040    3.2960    0.0000 C.3     1  LIG1        0.1441
     16 O          -3.8710    2.8460    0.0000 O.3     1  LIG1       -0.3510
     17 C          -4.7460    3.3500    0.0000 C.3     1  LIG1        0.1741
     18 C           3.4540    2.5460    0.0000 C.3     1  LIG1        0.0322
     19 C           4.7420    0.8000    0.0000 C.3     1  LIG1        0.0497
     20 C           3.4710   -0.9710    0.0000 C.3     1  LIG1        0.1324
     21 C           2.7580   -1.6790    0.0000 C.ar    1  LIG1        0.0004
     22 C           3.0170   -2.6380    0.0000 C.ar    1  LIG1       -0.0024
     23 C           2.3040   -3.3460    0.0000 C.ar    1  LIG1       -0.0003
     24 C           1.3290   -3.0790    0.0000 C.ar    1  LIG1       -0.0000
     25 C           1.0750   -2.1080    0.0000 C.ar    1  LIG1       -0.0003
     26 C           1.7880   -1.4080    0.0000 C.ar    1  LIG1       -0.0024
@<TRIPOS>BOND
     1     1     2   ar
     2     1     5   ar
     3     1    20    1
     4     2     3   ar
     5     2    19    1
     6     3     4   ar
     7     3    18    1
     8     4     5   ar
     9     4     9   ar
    10     5     6   ar
    11     6     7   ar
    12     7     8   ar
    13     8     9   ar
    14     8    10    1
    15    10    11    2
    16    10    12   am
    17    12    13    1
    18    13    14    1
    19    14    15    1
    20    15    16    1
    21    16    17    1
    22    20    21    1
    23    21    22   ar
    24    21    26   ar
    25    22    23   ar
    26    23    24   ar
    27    24    25   ar
    28    25    26   ar
