@<TRIPOS>MOLECULE
25214_ChemDiv_E205-0059
 24 27 0 0 0
SMALL
GASTEIGER
Energy = 0

@<TRIPOS>ATOM
      1 C          -2.0040   -0.4170    0.0000 C.ar    1  LIG1        0.1664
      2 C          -1.9920    0.5920    0.0000 C.ar    1  LIG1        0.1383
      3 C          -2.9330    0.9130    0.0000 C.ar    1  LIG1        0.0382
      4 C          -3.5380    0.1080    0.0000 C.ar    1  LIG1        0.0627
      5 N          -2.9580   -0.7080    0.0000 N.ar    1  LIG1       -0.3093
      6 C          -3.2790   -1.6630    0.0000 C.3     1  LIG1        0.1319
      7 C          -4.5330    0.2210    0.0000 C.ar    1  LIG1        0.0173
      8 C          -4.9210    1.1380    0.0000 C.ar    1  LIG1        0.0015
      9 C          -4.3250    1.9420    0.0000 C.ar    1  LIG1        0.0001
     10 C          -3.3290    1.8210    0.0000 C.ar    1  LIG1        0.0031
     11 N          -1.1170    1.0790    0.0000 N.ar    1  LIG1       -0.1421
     12 N          -0.2630    0.5670    0.0000 N.ar    1  LIG1       -0.1108
     13 C          -0.2710   -0.4380    0.0000 C.ar    1  LIG1        0.2567
     14 N          -1.1420   -0.9210    0.0000 N.ar    1  LIG1       -0.1922
     15 N           0.5920   -0.9460    0.0000 N.pl3   1  LIG1       -0.2023
     16 C           1.4630   -0.4380    0.0000 C.3     1  LIG1        0.1197
     17 C           2.3330   -0.9380    0.0000 C.3     1  LIG1        0.0440
     18 C           3.2000   -0.4210    0.0000 C.ar    1  LIG1       -0.0208
     19 C           4.0630   -0.9210    0.0000 C.ar    1  LIG1       -0.0042
     20 C           4.9170   -0.4170    0.0000 C.ar    1  LIG1       -0.0003
     21 C           4.9170    0.5830    0.0000 C.ar    1  LIG1       -0.0000
     22 C           4.0370    1.0790    0.0000 C.ar    1  LIG1       -0.0003
     23 C           3.1830    0.5670    0.0000 C.ar    1  LIG1       -0.0042
     24 C           2.3420   -1.9380    0.0000 C.3     1  LIG1        0.0065
@<TRIPOS>BOND
     1     1     2   ar
     2     1     5   ar
     3     1    14   ar
     4     2     3   ar
     5     2    11   ar
     6     3     4   ar
     7     3    10   ar
     8     4     5   ar
     9     4     7   ar
    10     5     6    1
    11     7     8   ar
    12     8     9   ar
    13     9    10   ar
    14    11    12   ar
    15    12    13   ar
    16    13    14   ar
    17    13    15    1
    18    15    16    1
    19    16    17    1
    20    17    18    1
    21    17    24    1
    22    18    19   ar
    23    18    23   ar
    24    19    20   ar
    25    20    21   ar
    26    21    22   ar
    27    22    23   ar
