@<TRIPOS>MOLECULE
25220_ChemDiv_C561-0057
 35 40 0 0 0
SMALL
GASTEIGER
Energy = 0

@<TRIPOS>ATOM
      1 N          -1.6460   -2.4000    0.0000 N.am    1  LIG1       -0.2619
      2 C          -2.2290   -1.5920    0.0000 C.2     1  LIG1        0.2495
      3 C          -3.1750   -1.8960    0.0000 C.ar    1  LIG1        0.0513
      4 C          -3.1750   -2.8920    0.0000 C.ar    1  LIG1        0.0021
      5 C          -2.2290   -3.2040    0.0000 C.3     1  LIG1        0.1213
      6 C          -4.0460   -3.3960    0.0000 C.ar    1  LIG1       -0.0025
      7 C          -4.9130   -2.8920    0.0000 C.ar    1  LIG1       -0.0003
      8 C          -4.9130   -1.8960    0.0000 C.ar    1  LIG1        0.0001
      9 C          -4.0460   -1.3960    0.0000 C.ar    1  LIG1        0.0043
     10 O          -1.9250   -0.6380    0.0000 O.2     1  LIG1       -0.2699
     11 C          -0.6460   -2.4000    0.0000 C.3     1  LIG1        0.1773
     12 C          -0.1420   -1.5380    0.0000 C.2     1  LIG1        0.2680
     13 N           0.8630   -1.5420    0.0000 N.am    1  LIG1       -0.1775
     14 C           1.3540   -0.6710    0.0000 C.ar    1  LIG1        0.0734
     15 C           0.8580    0.1830    0.0000 C.ar    1  LIG1        0.0167
     16 C           1.3460    1.0500    0.0000 C.ar    1  LIG1        0.0044
     17 C           2.3500    1.0580    0.0000 C.ar    1  LIG1        0.0359
     18 C           2.8500    1.9290    0.0000 C.ar    1  LIG1        0.1623
     19 N           3.8290    2.0330    0.0000 N.ar    1  LIG1       -0.2251
     20 C           4.0420    3.0080    0.0000 C.ar    1  LIG1        0.1006
     21 C           3.1710    3.5130    0.0000 C.ar    1  LIG1        0.1006
     22 N           2.4330    2.8460    0.0000 N.ar    1  LIG1       -0.2251
     23 C           3.1750    4.5080    0.0000 C.ar    1  LIG1        0.0207
     24 C           4.0460    5.0080    0.0000 C.ar    1  LIG1        0.0016
     25 C           4.9080    4.5040    0.0000 C.ar    1  LIG1        0.0016
     26 C           4.9080    3.5040    0.0000 C.ar    1  LIG1        0.0207
     27 C           2.8540    0.1880    0.0000 C.ar    1  LIG1        0.0044
     28 C           2.3580   -0.6790    0.0000 C.ar    1  LIG1        0.0167
     29 O          -0.6460   -0.6710    0.0000 O.2     1  LIG1       -0.2708
     30 C          -0.1420   -3.2710    0.0000 C.ar    1  LIG1        0.0046
     31 C          -0.6500   -4.1380    0.0000 C.ar    1  LIG1       -0.0022
     32 C          -0.1540   -5.0000    0.0000 C.ar    1  LIG1       -0.0003
     33 C           0.8540   -5.0080    0.0000 C.ar    1  LIG1       -0.0000
     34 C           1.3460   -4.1290    0.0000 C.ar    1  LIG1       -0.0003
     35 C           0.8540   -3.2710    0.0000 C.ar    1  LIG1       -0.0022
@<TRIPOS>BOND
     1     1     2   am
     2     1     5    1
     3     1    11    1
     4     2     3    1
     5     2    10    2
     6     3     4   ar
     7     3     9   ar
     8     4     5    1
     9     4     6   ar
    10     6     7   ar
    11     7     8   ar
    12     8     9   ar
    13    11    12    1
    14    11    30    1
    15    12    13   am
    16    12    29    2
    17    13    14    1
    18    14    15   ar
    19    14    28   ar
    20    15    16   ar
    21    16    17   ar
    22    17    18    1
    23    17    27   ar
    24    18    19   ar
    25    18    22   ar
    26    19    20   ar
    27    20    21   ar
    28    20    26   ar
    29    21    22   ar
    30    21    23   ar
    31    23    24   ar
    32    24    25   ar
    33    25    26   ar
    34    27    28   ar
    35    30    31   ar
    36    30    35   ar
    37    31    32   ar
    38    32    33   ar
    39    33    34   ar
    40    34    35   ar
