@<TRIPOS>MOLECULE
25229_ChemDiv_G119-1661
 23 25 0 0 0
SMALL
GASTEIGER
Energy = 0

@<TRIPOS>ATOM
      1 N           1.4170    0.2460    0.0000 N.ar    1  LIG1       -0.3268
      2 C           1.9960    1.0500    0.0000 C.ar    1  LIG1        0.0338
      3 C           1.4080    1.8630    0.0000 C.ar    1  LIG1       -0.0088
      4 C           0.4540    1.5460    0.0000 C.ar    1  LIG1        0.0131
      5 C           0.4630    0.5460    0.0000 C.ar    1  LIG1        0.0596
      6 C          -0.4080    0.0380    0.0000 C.ar    1  LIG1        0.0173
      7 C          -1.2710    0.5380    0.0000 C.ar    1  LIG1        0.0060
      8 C          -1.2710    1.5330    0.0000 C.ar    1  LIG1        0.0551
      9 C          -0.4080    2.0460    0.0000 C.ar    1  LIG1        0.0057
     10 C          -2.1330    2.0460    0.0000 C.2     1  LIG1        0.2648
     11 O          -3.0000    1.5330    0.0000 O.2     1  LIG1       -0.2684
     12 N          -2.1330    3.0330    0.0000 N.am    1  LIG1       -0.1998
     13 C          -3.0000    3.5210    0.0000 C.3     1  LIG1        0.1388
     14 C           1.7080    2.8040    0.0000 C.3     1  LIG1        0.0322
     15 C           2.9960    1.0630    0.0000 C.3     1  LIG1        0.0497
     16 C           1.7250   -0.7080    0.0000 C.3     1  LIG1        0.1324
     17 C           1.0130   -1.4170    0.0000 C.ar    1  LIG1        0.0004
     18 C           0.0460   -1.1420    0.0000 C.ar    1  LIG1       -0.0015
     19 C          -0.6670   -1.8460    0.0000 C.ar    1  LIG1        0.0111
     20 C          -0.4130   -2.8130    0.0000 C.ar    1  LIG1        0.0577
     21 CL         -1.1250   -3.5170    0.0000 Cl      1  LIG1       -0.0822
     22 C           0.5580   -3.0790    0.0000 C.ar    1  LIG1        0.0111
     23 C           1.2710   -2.3750    0.0000 C.ar    1  LIG1       -0.0015
@<TRIPOS>BOND
     1     1     2   ar
     2     1     5   ar
     3     1    16    1
     4     2     3   ar
     5     2    15    1
     6     3     4   ar
     7     3    14    1
     8     4     5   ar
     9     4     9   ar
    10     5     6   ar
    11     6     7   ar
    12     7     8   ar
    13     8     9   ar
    14     8    10    1
    15    10    11    2
    16    10    12   am
    17    12    13    1
    18    16    17    1
    19    17    18   ar
    20    17    23   ar
    21    18    19   ar
    22    19    20   ar
    23    20    21    1
    24    20    22   ar
    25    22    23   ar
