@<TRIPOS>MOLECULE
25223_ChemDiv_G119-1197
 32 36 0 0 0
SMALL
GASTEIGER
Energy = 0

@<TRIPOS>ATOM
      1 N           1.4210   -2.2380    0.0000 N.ar    1  LIG1       -0.3268
      2 C           2.0000   -1.4290    0.0000 C.ar    1  LIG1        0.0338
      3 C           1.4130   -0.6170    0.0000 C.ar    1  LIG1       -0.0088
      4 C           0.4580   -0.9380    0.0000 C.ar    1  LIG1        0.0131
      5 C           0.4710   -1.9330    0.0000 C.ar    1  LIG1        0.0596
      6 C          -0.4040   -2.4420    0.0000 C.ar    1  LIG1        0.0173
      7 C          -1.2670   -1.9420    0.0000 C.ar    1  LIG1        0.0060
      8 C          -1.2670   -0.9460    0.0000 C.ar    1  LIG1        0.0537
      9 C          -2.1250   -0.4380    0.0000 C.2     1  LIG1        0.2491
     10 N          -2.1250    0.5500    0.0000 N.am    1  LIG1       -0.2726
     11 C          -1.2540    1.0540    0.0000 C.3     1  LIG1        0.1152
     12 C          -1.2540    2.0540    0.0000 C.3     1  LIG1        0.1137
     13 N          -2.1250    2.5460    0.0000 N.pl3   1  LIG1       -0.2897
     14 C          -2.1420    3.5500    0.0000 C.ar    1  LIG1        0.1318
     15 N          -3.0040    4.0420    0.0000 N.ar    1  LIG1       -0.2292
     16 C          -2.9960    5.0460    0.0000 C.ar    1  LIG1        0.1003
     17 C          -2.1420    5.5580    0.0000 C.ar    1  LIG1        0.0208
     18 C          -1.2790    5.0580    0.0000 C.ar    1  LIG1        0.0045
     19 C          -1.2670    4.0420    0.0000 C.ar    1  LIG1        0.0343
     20 C          -2.9880    2.0380    0.0000 C.3     1  LIG1        0.1137
     21 C          -2.9880    1.0500    0.0000 C.3     1  LIG1        0.1152
     22 O          -2.9960   -0.9460    0.0000 O.2     1  LIG1       -0.2699
     23 C          -0.4040   -0.4380    0.0000 C.ar    1  LIG1        0.0057
     24 C           1.7130    0.3250    0.0000 C.3     1  LIG1        0.0322
     25 C           3.0000   -1.4210    0.0000 C.3     1  LIG1        0.0497
     26 C           1.7290   -3.1880    0.0000 C.3     1  LIG1        0.1324
     27 C           1.0170   -3.8960    0.0000 C.ar    1  LIG1        0.0004
     28 C           0.0500   -3.6210    0.0000 C.ar    1  LIG1       -0.0024
     29 C          -0.6580   -4.3250    0.0000 C.ar    1  LIG1       -0.0003
     30 C          -0.4080   -5.2920    0.0000 C.ar    1  LIG1       -0.0000
     31 C           0.5670   -5.5580    0.0000 C.ar    1  LIG1       -0.0003
     32 C           1.2750   -4.8540    0.0000 C.ar    1  LIG1       -0.0024
@<TRIPOS>BOND
     1     1     2   ar
     2     1     5   ar
     3     1    26    1
     4     2     3   ar
     5     2    25    1
     6     3     4   ar
     7     3    24    1
     8     4     5   ar
     9     4    23   ar
    10     5     6   ar
    11     6     7   ar
    12     7     8   ar
    13     8     9    1
    14     8    23   ar
    15     9    10   am
    16     9    22    2
    17    10    11    1
    18    10    21    1
    19    11    12    1
    20    12    13    1
    21    13    14    1
    22    13    20    1
    23    14    15   ar
    24    14    19   ar
    25    15    16   ar
    26    16    17   ar
    27    17    18   ar
    28    18    19   ar
    29    20    21    1
    30    26    27    1
    31    27    28   ar
    32    27    32   ar
    33    28    29   ar
    34    29    30   ar
    35    30    31   ar
    36    31    32   ar
