@<TRIPOS>MOLECULE
25225_ChemDiv_G119-1205
 32 36 0 0 0
SMALL
GASTEIGER
Energy = 0

@<TRIPOS>ATOM
      1 N           1.4170   -2.2250    0.0000 N.ar    1  LIG1       -0.3268
      2 C           1.9960   -1.4210    0.0000 C.ar    1  LIG1        0.0338
      3 C           1.4080   -0.6080    0.0000 C.ar    1  LIG1       -0.0088
      4 C           0.4540   -0.9250    0.0000 C.ar    1  LIG1        0.0131
      5 C           0.4630   -1.9250    0.0000 C.ar    1  LIG1        0.0596
      6 C          -0.4080   -2.4330    0.0000 C.ar    1  LIG1        0.0173
      7 C          -1.2710   -1.9330    0.0000 C.ar    1  LIG1        0.0060
      8 C          -1.2710   -0.9380    0.0000 C.ar    1  LIG1        0.0537
      9 C          -2.1330   -0.4250    0.0000 C.2     1  LIG1        0.2491
     10 N          -2.1330    0.5630    0.0000 N.am    1  LIG1       -0.2726
     11 C          -1.3210    1.0670    0.0000 C.3     1  LIG1        0.1152
     12 C          -1.2130    2.0040    0.0000 C.3     1  LIG1        0.1151
     13 N          -2.0880    2.5580    0.0000 N.pl3   1  LIG1       -0.2747
     14 C          -2.0580    3.5170    0.0000 C.ar    1  LIG1        0.2203
     15 N          -2.8920    4.0540    0.0000 N.ar    1  LIG1       -0.2121
     16 C          -2.8750    5.0710    0.0000 C.ar    1  LIG1        0.1034
     17 C          -1.9500    5.5500    0.0000 C.ar    1  LIG1        0.0414
     18 C          -1.1080    5.0080    0.0000 C.ar    1  LIG1        0.1034
     19 N          -1.1330    3.9710    0.0000 N.ar    1  LIG1       -0.2121
     20 C          -2.9500    2.1040    0.0000 C.3     1  LIG1        0.1151
     21 C          -2.9960    1.1040    0.0000 C.3     1  LIG1        0.1152
     22 O          -3.0000   -0.9380    0.0000 O.2     1  LIG1       -0.2699
     23 C          -0.4080   -0.4250    0.0000 C.ar    1  LIG1        0.0057
     24 C           1.7080    0.3330    0.0000 C.3     1  LIG1        0.0322
     25 C           2.9960   -1.4080    0.0000 C.3     1  LIG1        0.0497
     26 C           1.7250   -3.1790    0.0000 C.3     1  LIG1        0.1324
     27 C           1.0130   -3.8830    0.0000 C.ar    1  LIG1        0.0004
     28 C           0.0460   -3.6130    0.0000 C.ar    1  LIG1       -0.0024
     29 C          -0.6670   -4.3130    0.0000 C.ar    1  LIG1       -0.0003
     30 C          -0.4130   -5.2830    0.0000 C.ar    1  LIG1       -0.0000
     31 C           0.5580   -5.5500    0.0000 C.ar    1  LIG1       -0.0003
     32 C           1.2710   -4.8420    0.0000 C.ar    1  LIG1       -0.0024
@<TRIPOS>BOND
     1     1     2   ar
     2     1     5   ar
     3     1    26    1
     4     2     3   ar
     5     2    25    1
     6     3     4   ar
     7     3    24    1
     8     4     5   ar
     9     4    23   ar
    10     5     6   ar
    11     6     7   ar
    12     7     8   ar
    13     8     9    1
    14     8    23   ar
    15     9    10   am
    16     9    22    2
    17    10    11    1
    18    10    21    1
    19    11    12    1
    20    12    13    1
    21    13    14    1
    22    13    20    1
    23    14    15   ar
    24    14    19   ar
    25    15    16   ar
    26    16    17   ar
    27    17    18   ar
    28    18    19   ar
    29    20    21    1
    30    26    27    1
    31    27    28   ar
    32    27    32   ar
    33    28    29   ar
    34    29    30   ar
    35    30    31   ar
    36    31    32   ar
