@<TRIPOS>MOLECULE
25221_ChemDiv_G119-1084
 31 34 0 0 0
SMALL
GASTEIGER
Energy = 0

@<TRIPOS>ATOM
      1 N           4.2130   -0.1540    0.0000 N.ar    1  LIG1       -0.3268
      2 C           4.7920    0.6540    0.0000 C.ar    1  LIG1        0.0338
      3 C           4.2000    1.4630    0.0000 C.ar    1  LIG1       -0.0088
      4 C           3.2500    1.1460    0.0000 C.ar    1  LIG1        0.0131
      5 C           3.2580    0.1500    0.0000 C.ar    1  LIG1        0.0596
      6 C           2.3880   -0.3630    0.0000 C.ar    1  LIG1        0.0173
      7 C           1.5250    0.1380    0.0000 C.ar    1  LIG1        0.0060
      8 C           1.5250    1.1380    0.0000 C.ar    1  LIG1        0.0551
      9 C           2.3880    1.6460    0.0000 C.ar    1  LIG1        0.0057
     10 C           0.6630    1.6460    0.0000 C.2     1  LIG1        0.2648
     11 O          -0.2080    1.1380    0.0000 O.2     1  LIG1       -0.2684
     12 N           0.6630    2.6330    0.0000 N.am    1  LIG1       -0.2016
     13 C          -0.2080    3.1330    0.0000 C.3     1  LIG1        0.1169
     14 C          -1.0630    2.6290    0.0000 C.3     1  LIG1        0.0408
     15 C          -1.9420    3.1210    0.0000 C.3     1  LIG1        0.0743
     16 N          -2.7920    2.6130    0.0000 N.3     1  LIG1       -0.2627
     17 C          -3.2830    3.4830    0.0000 C.3     1  LIG1        0.1359
     18 C          -4.2920    3.4580    0.0000 C.3     1  LIG1        0.1566
     19 N          -4.7790    2.6000    0.0000 N.4     1  LIG1        0.3842
     20 C          -4.2920    1.7420    0.0000 C.3     1  LIG1        0.1566
     21 C          -3.2830    1.7380    0.0000 C.3     1  LIG1        0.1359
     22 C          -5.7960    2.6000    0.0000 C.3     1  LIG1        0.2024
     23 C           4.5040    2.4080    0.0000 C.3     1  LIG1        0.0322
     24 C           5.7920    0.6630    0.0000 C.3     1  LIG1        0.0497
     25 C           4.5210   -1.1080    0.0000 C.3     1  LIG1        0.1324
     26 C           3.8080   -1.8130    0.0000 C.ar    1  LIG1        0.0004
     27 C           4.0670   -2.7710    0.0000 C.ar    1  LIG1       -0.0024
     28 C           3.3540   -3.4790    0.0000 C.ar    1  LIG1       -0.0003
     29 C           2.3790   -3.2130    0.0000 C.ar    1  LIG1       -0.0000
     30 C           2.1290   -2.2420    0.0000 C.ar    1  LIG1       -0.0003
     31 C           2.8420   -1.5420    0.0000 C.ar    1  LIG1       -0.0024
@<TRIPOS>BOND
     1     1     2   ar
     2     1     5   ar
     3     1    25    1
     4     2     3   ar
     5     2    24    1
     6     3     4   ar
     7     3    23    1
     8     4     5   ar
     9     4     9   ar
    10     5     6   ar
    11     6     7   ar
    12     7     8   ar
    13     8     9   ar
    14     8    10    1
    15    10    11    2
    16    10    12   am
    17    12    13    1
    18    13    14    1
    19    14    15    1
    20    15    16    1
    21    16    17    1
    22    16    21    1
    23    17    18    1
    24    18    19    1
    25    19    20    1
    26    19    22    1
    27    20    21    1
    28    25    26    1
    29    26    27   ar
    30    26    31   ar
    31    27    28   ar
    32    28    29   ar
    33    29    30   ar
    34    30    31   ar
