@<TRIPOS>MOLECULE
25231_ChemDiv_G119-1738
 30 33 0 0 0
SMALL
GASTEIGER
Energy = 0

@<TRIPOS>ATOM
      1 N           1.4210   -1.2670    0.0000 N.ar    1  LIG1       -0.3268
      2 C           2.0040   -0.4630    0.0000 C.ar    1  LIG1        0.0338
      3 C           1.4130    0.3500    0.0000 C.ar    1  LIG1       -0.0088
      4 C           0.4580    0.0330    0.0000 C.ar    1  LIG1        0.0131
      5 C           0.4710   -0.9670    0.0000 C.ar    1  LIG1        0.0596
      6 C          -0.4040   -1.4750    0.0000 C.ar    1  LIG1        0.0173
      7 C          -1.2670   -0.9750    0.0000 C.ar    1  LIG1        0.0060
      8 C          -1.2670    0.0210    0.0000 C.ar    1  LIG1        0.0537
      9 C          -2.1290    0.5330    0.0000 C.2     1  LIG1        0.2490
     10 N          -2.1290    1.5210    0.0000 N.am    1  LIG1       -0.2761
     11 C          -1.2790    2.0080    0.0000 C.3     1  LIG1        0.0942
     12 C          -1.2670    3.0080    0.0000 C.3     1  LIG1        0.0307
     13 C          -2.1290    3.5210    0.0000 C.3     1  LIG1        0.0833
     14 C          -2.1130    4.5170    0.0000 C.2     1  LIG1        0.2604
     15 O          -2.9880    5.0290    0.0000 O.2     1  LIG1       -0.2717
     16 N          -1.2540    5.0170    0.0000 N.am    1  LIG1       -0.0878
     17 C          -2.9960    3.0210    0.0000 C.3     1  LIG1        0.0307
     18 C          -3.0040    2.0210    0.0000 C.3     1  LIG1        0.0942
     19 O          -2.9960    0.0210    0.0000 O.2     1  LIG1       -0.2699
     20 C          -0.4040    0.5330    0.0000 C.ar    1  LIG1        0.0057
     21 C           1.7170    1.2920    0.0000 C.3     1  LIG1        0.0322
     22 C           3.0000   -0.4500    0.0000 C.3     1  LIG1        0.0497
     23 C           1.7290   -2.2210    0.0000 C.3     1  LIG1        0.1324
     24 C           1.0210   -2.9290    0.0000 C.ar    1  LIG1        0.0004
     25 C           0.0500   -2.6540    0.0000 C.ar    1  LIG1       -0.0015
     26 C          -0.6580   -3.3540    0.0000 C.ar    1  LIG1        0.0111
     27 C          -0.4080   -4.3250    0.0000 C.ar    1  LIG1        0.0577
     28 CL         -1.1210   -5.0290    0.0000 Cl      1  LIG1       -0.0822
     29 C           0.5670   -4.5920    0.0000 C.ar    1  LIG1        0.0111
     30 C           1.2750   -3.8830    0.0000 C.ar    1  LIG1       -0.0015
@<TRIPOS>BOND
     1     1     2   ar
     2     1     5   ar
     3     1    23    1
     4     2     3   ar
     5     2    22    1
     6     3     4   ar
     7     3    21    1
     8     4     5   ar
     9     4    20   ar
    10     5     6   ar
    11     6     7   ar
    12     7     8   ar
    13     8     9    1
    14     8    20   ar
    15     9    10   am
    16     9    19    2
    17    10    11    1
    18    10    18    1
    19    11    12    1
    20    12    13    1
    21    13    14    1
    22    13    17    1
    23    14    15    2
    24    14    16   am
    25    17    18    1
    26    23    24    1
    27    24    25   ar
    28    24    30   ar
    29    25    26   ar
    30    26    27   ar
    31    27    28    1
    32    27    29   ar
    33    29    30   ar
