@<TRIPOS>MOLECULE
25234_ChemDiv_0384-0009
 23 24 0 0 0
SMALL
GASTEIGER
Energy = 0

@<TRIPOS>ATOM
      1 C           3.8960    0.2630    0.0000 C.2     1  LIG1        0.2491
      2 C           3.0380   -0.2420    0.0000 C.ar    1  LIG1        0.0538
      3 C           2.1580    0.2460    0.0000 C.ar    1  LIG1        0.0076
      4 C           1.2880   -0.2420    0.0000 C.ar    1  LIG1        0.0376
      5 C           1.2880   -1.2500    0.0000 C.ar    1  LIG1        0.1453
      6 O           0.4210   -1.7540    0.0000 O.3     1  LIG1       -0.4535
      7 C          -0.4420   -1.2500    0.0000 C.ar    1  LIG1        0.1453
      8 C          -1.3080   -1.7540    0.0000 C.ar    1  LIG1        0.0376
      9 C          -2.1670   -1.2500    0.0000 C.ar    1  LIG1        0.0076
     10 C          -2.1670   -0.2580    0.0000 C.ar    1  LIG1        0.0538
     11 C          -3.0330    0.2460    0.0000 C.2     1  LIG1        0.2491
     12 N          -3.9000   -0.2420    0.0000 N.am    1  LIG1       -0.2726
     13 C          -3.9000   -1.2500    0.0000 C.3     1  LIG1        0.1152
     14 C          -4.7710    0.2460    0.0000 C.3     1  LIG1        0.1152
     15 O          -3.0330    1.2540    0.0000 O.2     1  LIG1       -0.2699
     16 C          -1.3080    0.2460    0.0000 C.ar    1  LIG1        0.0076
     17 C          -0.4420   -0.2580    0.0000 C.ar    1  LIG1        0.0376
     18 C           2.1580   -1.7330    0.0000 C.ar    1  LIG1        0.0376
     19 C           3.0380   -1.2500    0.0000 C.ar    1  LIG1        0.0076
     20 N           3.8960    1.2540    0.0000 N.am    1  LIG1       -0.2726
     21 C           3.0380    1.7580    0.0000 C.3     1  LIG1        0.1152
     22 C           4.7670    1.7580    0.0000 C.3     1  LIG1        0.1152
     23 O           4.7670   -0.2420    0.0000 O.2     1  LIG1       -0.2699
@<TRIPOS>BOND
     1     1     2    1
     2     1    20   am
     3     1    23    2
     4     2     3   ar
     5     2    19   ar
     6     3     4   ar
     7     4     5   ar
     8     5     6    1
     9     5    18   ar
    10     6     7    1
    11     7     8   ar
    12     7    17   ar
    13     8     9   ar
    14     9    10   ar
    15    10    11    1
    16    10    16   ar
    17    11    12   am
    18    11    15    2
    19    12    13    1
    20    12    14    1
    21    16    17   ar
    22    18    19   ar
    23    20    21    1
    24    20    22    1
