@<TRIPOS>MOLECULE
25239_ChemDiv_0335-0855
 24 28 0 0 0
SMALL
GASTEIGER
Energy = 0

@<TRIPOS>ATOM
      1 C          -2.5790   -0.7080    0.0000 C.3     1  LIG1        0.0189
      2 C          -1.6710   -0.3920    0.0000 C.ar    1  LIG1       -0.0227
      3 C          -0.9420   -1.0170    0.0000 C.ar    1  LIG1       -0.0030
      4 C          -0.0290   -0.6880    0.0000 C.ar    1  LIG1        0.0163
      5 C           0.1540    0.2380    0.0000 C.ar    1  LIG1        0.0737
      6 N           1.2670    0.6330    0.0000 N.am    1  LIG1       -0.1750
      7 C           2.3210    0.0460    0.0000 C.2     1  LIG1        0.2750
      8 C           3.1830    0.5290    0.0000 C.ar    1  LIG1        0.0848
      9 S           4.0630    0.1040    0.0000 S.2     1  LIG1       -0.0818
     10 C           4.7750    0.8170    0.0000 C.ar    1  LIG1        0.0356
     11 C           4.3000    1.7000    0.0000 C.ar    1  LIG1        0.0076
     12 C           3.2920    1.4960    0.0000 C.ar    1  LIG1        0.0116
     13 O           2.1670   -1.2080    0.0000 O.2     1  LIG1       -0.2675
     14 C          -0.5790    0.8830    0.0000 C.ar    1  LIG1        0.0163
     15 C          -1.5040    0.5460    0.0000 C.ar    1  LIG1       -0.0030
     16 C          -2.5790    0.2380    0.0000 C.3     1  LIG1        0.0040
     17 C          -3.4080    0.7250    0.0000 C.3     1  LIG1        0.0003
     18 C          -3.8130   -0.2880    0.0000 C.3     1  LIG1        0.0000
     19 C          -3.8710   -1.2420    0.0000 C.3     1  LIG1        0.0003
     20 C          -3.1790   -1.6960    0.0000 C.3     1  LIG1        0.0040
     21 C          -4.7790   -1.4790    0.0000 C.3     1  LIG1        0.0000
     22 C          -4.2210   -0.7080    0.0000 C.3     1  LIG1        0.0003
     23 C          -3.4080   -1.1830    0.0000 C.3     1  LIG1        0.0040
     24 C          -4.2210    0.2380    0.0000 C.3     1  LIG1        0.0000
@<TRIPOS>BOND
     1     1     2    1
     2     1    16    1
     3     1    20    1
     4     1    23    1
     5     2     3   ar
     6     2    15   ar
     7     3     4   ar
     8     4     5   ar
     9     5     6    1
    10     5    14   ar
    11     6     7   am
    12     7     8    1
    13     7    13    2
    14     8     9   ar
    15     8    12   ar
    16     9    10   ar
    17    10    11   ar
    18    11    12   ar
    19    14    15   ar
    20    16    17    1
    21    17    18    1
    22    17    24    1
    23    18    19    1
    24    19    20    1
    25    19    21    1
    26    21    22    1
    27    22    23    1
    28    22    24    1
