@<TRIPOS>MOLECULE
25238_ChemDiv_0385-0637
 29 32 0 0 0
SMALL
GASTEIGER
Energy = 0

@<TRIPOS>ATOM
      1 N          -1.1380   -0.8540    0.0000 N.am    1  LIG1       -0.2208
      2 C          -1.6460    0.0130    0.0000 C.2     1  LIG1        0.2552
      3 C          -2.6330   -0.2170    0.0000 C.ar    1  LIG1        0.0584
      4 C          -2.7330   -1.1830    0.0000 C.ar    1  LIG1        0.0584
      5 C          -1.8290   -1.6170    0.0000 C.2     1  LIG1        0.2552
      6 O          -1.6460   -2.6330    0.0000 O.2     1  LIG1       -0.2695
      7 C          -3.6460   -1.6170    0.0000 C.ar    1  LIG1        0.0047
      8 C          -4.4750   -1.0250    0.0000 C.ar    1  LIG1        0.0001
      9 C          -4.3880   -0.0500    0.0000 C.ar    1  LIG1        0.0001
     10 C          -3.4670    0.3790    0.0000 C.ar    1  LIG1        0.0047
     11 O          -1.3830    0.5670    0.0000 O.2     1  LIG1       -0.2695
     12 C          -0.1040   -0.8540    0.0000 C.3     1  LIG1        0.1258
     13 C           0.4000    0.0130    0.0000 C.3     1  LIG1        0.1193
     14 N           1.4170    0.0130    0.0000 N.am    1  LIG1       -0.2599
     15 C           1.9380   -0.8540    0.0000 C.2     1  LIG1        0.3074
     16 N           2.9540   -0.8540    0.0000 N.am    1  LIG1       -0.2640
     17 C           3.4630    0.0130    0.0000 C.3     1  LIG1        0.0950
     18 C           4.4710    0.0130    0.0000 C.3     1  LIG1        0.0233
     19 C           3.4630   -1.7580    0.0000 C.3     1  LIG1        0.0950
     20 C           2.9540   -2.6330    0.0000 C.3     1  LIG1        0.0233
     21 O           1.4380   -1.7580    0.0000 O.2     1  LIG1       -0.2523
     22 C           1.9080    0.8880    0.0000 C.3     1  LIG1        0.0999
     23 C           1.4170    1.7630    0.0000 C.3     1  LIG1        0.0476
     24 C           0.4000    1.7630    0.0000 C.ar    1  LIG1       -0.0228
     25 C          -0.1040    0.8880    0.0000 C.ar    1  LIG1       -0.0064
     26 C          -1.1130    0.8880    0.0000 C.ar    1  LIG1       -0.0029
     27 C          -1.6250    1.7630    0.0000 C.ar    1  LIG1       -0.0003
     28 C          -1.1130    2.6380    0.0000 C.ar    1  LIG1       -0.0003
     29 C          -0.1040    2.6380    0.0000 C.ar    1  LIG1       -0.0045
@<TRIPOS>BOND
     1     1     2   am
     2     1     5   am
     3     1    12    1
     4     2     3    1
     5     2    11    2
     6     3     4   ar
     7     3    10   ar
     8     4     5    1
     9     4     7   ar
    10     5     6    2
    11     7     8   ar
    12     8     9   ar
    13     9    10   ar
    14    12    13    1
    15    13    14    1
    16    13    25    1
    17    14    15   am
    18    14    22    1
    19    15    16   am
    20    15    21    2
    21    16    17    1
    22    16    19    1
    23    17    18    1
    24    19    20    1
    25    22    23    1
    26    23    24    1
    27    24    25   ar
    28    24    29   ar
    29    25    26   ar
    30    26    27   ar
    31    27    28   ar
    32    28    29   ar
