@<TRIPOS>MOLECULE
25242_ChemDiv_0389-1033
 26 30 0 0 0
SMALL
GASTEIGER
Energy = 0

@<TRIPOS>ATOM
      1 C          -2.1790    0.0750    0.0000 C.3     1  LIG1        0.0709
      2 C          -1.1880    0.0790    0.0000 C.2     1  LIG1        0.2463
      3 N          -0.6710   -0.7540    0.0000 N.am    1  LIG1       -0.1543
      4 C           0.3130   -0.7330    0.0000 C.ar    1  LIG1        0.1858
      5 N           0.9790    0.0130    0.0000 N.ar    1  LIG1       -0.2224
      6 C           1.8920   -0.3920    0.0000 C.ar    1  LIG1        0.0927
      7 C           2.7080    0.1630    0.0000 C.ar    1  LIG1        0.0522
      8 C           3.6170   -0.2500    0.0000 C.ar    1  LIG1        0.1401
      9 O           3.6630   -1.2790    0.0000 O.3     1  LIG1       -0.4714
     10 C           4.5790   -1.7250    0.0000 C.3     1  LIG1        0.2525
     11 C           4.4420    0.2960    0.0000 C.ar    1  LIG1        0.0369
     12 C           4.4040    1.2830    0.0000 C.ar    1  LIG1        0.0031
     13 C           3.4750    1.7290    0.0000 C.ar    1  LIG1        0.0002
     14 C           2.6460    1.1790    0.0000 C.ar    1  LIG1        0.0045
     15 C           1.8330   -1.3580    0.0000 C.ar    1  LIG1        0.0574
     16 S           0.8420   -1.6080    0.0000 S.2     1  LIG1       -0.0492
     17 O          -0.7040    0.9790    0.0000 O.2     1  LIG1       -0.2730
     18 C          -2.9330   -0.2630    0.0000 C.3     1  LIG1        0.0087
     19 C          -3.9170    0.1500    0.0000 C.3     1  LIG1        0.0005
     20 C          -4.5830   -0.6040    0.0000 C.3     1  LIG1        0.0000
     21 C          -3.7960   -0.3080    0.0000 C.3     1  LIG1        0.0005
     22 C          -2.8130   -0.6750    0.0000 C.3     1  LIG1        0.0087
     23 C          -3.7380    0.8130    0.0000 C.3     1  LIG1        0.0000
     24 C          -3.0290    1.5670    0.0000 C.3     1  LIG1        0.0005
     25 C          -2.1290    1.1420    0.0000 C.3     1  LIG1        0.0087
     26 C          -3.8710    1.2000    0.0000 C.3     1  LIG1        0.0000
@<TRIPOS>BOND
     1     1     2    1
     2     1    18    1
     3     1    22    1
     4     1    25    1
     5     2     3   am
     6     2    17    2
     7     3     4    1
     8     4     5   ar
     9     4    16   ar
    10     5     6   ar
    11     6     7    1
    12     6    15   ar
    13     7     8   ar
    14     7    14   ar
    15     8     9    1
    16     8    11   ar
    17     9    10    1
    18    11    12   ar
    19    12    13   ar
    20    13    14   ar
    21    15    16   ar
    22    18    19    1
    23    19    20    1
    24    19    26    1
    25    20    21    1
    26    21    22    1
    27    21    23    1
    28    23    24    1
    29    24    25    1
    30    24    26    1
