@<TRIPOS>MOLECULE
25248_ChemDiv_6048-0033
 24 25 0 0 0
SMALL
GASTEIGER
Energy = 0

@<TRIPOS>ATOM
      1 C           1.5630   -0.3250    0.0000 C.ar    1  LIG1        0.1253
      2 C           1.9580    0.5830    0.0000 C.ar    1  LIG1        0.0956
      3 N           1.2080    1.2460    0.0000 N.ar    1  LIG1       -0.2223
      4 C           0.3670    0.7420    0.0000 C.ar    1  LIG1        0.1860
      5 S           0.5420   -0.2210    0.0000 S.2     1  LIG1       -0.0432
      6 N          -0.5750    1.1380    0.0000 N.am    1  LIG1       -0.1543
      7 C          -1.3630    0.5500    0.0000 C.2     1  LIG1        0.2477
      8 O          -1.2580   -0.4580    0.0000 O.2     1  LIG1       -0.2729
      9 C          -2.3000    0.9460    0.0000 C.3     1  LIG1        0.0931
     10 C          -3.1000    0.3380    0.0000 C.3     1  LIG1        0.0513
     11 C          -4.0000    0.7630    0.0000 C.2     1  LIG1        0.0508
     12 O          -4.8380    0.1500    0.0000 O.co2   1  LIG1       -0.5492
     13 O          -4.1040    1.7460    0.0000 O.co2   1  LIG1       -0.5492
     14 C           2.9210    0.8460    0.0000 C.ar    1  LIG1        0.0184
     15 C           3.6170    0.1250    0.0000 C.ar    1  LIG1        0.0015
     16 C           4.5750    0.3630    0.0000 C.ar    1  LIG1        0.0000
     17 C           4.8330    1.3500    0.0000 C.ar    1  LIG1        0.0000
     18 C           4.1170    2.0420    0.0000 C.ar    1  LIG1        0.0000
     19 C           3.1580    1.7830    0.0000 C.ar    1  LIG1        0.0015
     20 C           2.0750   -1.1710    0.0000 C.2     1  LIG1        0.3489
     21 O           1.5880   -2.0380    0.0000 O.2     1  LIG1       -0.2443
     22 O           3.0960   -1.1710    0.0000 O.3     1  LIG1       -0.4451
     23 C           3.6170   -2.0290    0.0000 C.3     1  LIG1        0.2089
     24 C           4.6130   -2.0290    0.0000 C.3     1  LIG1        0.0513
@<TRIPOS>BOND
     1     1     2   ar
     2     1     5   ar
     3     1    20    1
     4     2     3   ar
     5     2    14    1
     6     3     4   ar
     7     4     5   ar
     8     4     6    1
     9     6     7   am
    10     7     8    2
    11     7     9    1
    12     9    10    1
    13    10    11    1
    14    11    12   ar
    15    11    13   ar
    16    14    15   ar
    17    14    19   ar
    18    15    16   ar
    19    16    17   ar
    20    17    18   ar
    21    18    19   ar
    22    20    21    2
    23    20    22    1
    24    22    23    1
    25    23    24    1
