@<TRIPOS>MOLECULE
25246_ChemDiv_3814-0167
 20 21 0 0 0
SMALL
GASTEIGER
Energy = 0

@<TRIPOS>ATOM
      1 C           0.8210   -0.1420    0.0000 C.ar    1  LIG1        0.1858
      2 N           1.7500    0.2500    0.0000 N.ar    1  LIG1       -0.2225
      3 C           2.3920   -0.4580    0.0000 C.ar    1  LIG1        0.0898
      4 C           1.8830   -1.3210    0.0000 C.ar    1  LIG1        0.0573
      5 S           0.9130   -1.1040    0.0000 S.2     1  LIG1       -0.0492
      6 C           3.3580   -0.3290    0.0000 C.ar    1  LIG1        0.0182
      7 C           4.0250   -1.1040    0.0000 C.ar    1  LIG1        0.0015
      8 C           5.0080   -0.9500    0.0000 C.ar    1  LIG1        0.0000
      9 C           5.3630   -0.0080    0.0000 C.ar    1  LIG1        0.0000
     10 C           4.7170    0.7250    0.0000 C.ar    1  LIG1        0.0000
     11 C           3.7460    0.6130    0.0000 C.ar    1  LIG1        0.0015
     12 N          -0.0710    0.3420    0.0000 N.am    1  LIG1       -0.1543
     13 C          -0.9080   -0.1380    0.0000 C.2     1  LIG1        0.2478
     14 O          -0.9080   -1.1420    0.0000 O.2     1  LIG1       -0.2729
     15 C          -1.8210    0.3290    0.0000 C.3     1  LIG1        0.0989
     16 C          -2.7130   -0.2000    0.0000 C.3     1  LIG1        0.1192
     17 C          -3.5790    0.3130    0.0000 C.2     1  LIG1        0.3176
     18 O          -3.5790    1.3250    0.0000 O.2     1  LIG1       -0.2501
     19 O          -4.4540   -0.2000    0.0000 O.3     1  LIG1       -0.4444
     20 C          -5.3670    0.2670    0.0000 C.3     1  LIG1        0.2556
@<TRIPOS>BOND
     1     1     2   ar
     2     1     5   ar
     3     1    12    1
     4     2     3   ar
     5     3     4   ar
     6     3     6    1
     7     4     5   ar
     8     6     7   ar
     9     6    11   ar
    10     7     8   ar
    11     8     9   ar
    12     9    10   ar
    13    10    11   ar
    14    12    13   am
    15    13    14    2
    16    13    15    1
    17    15    16    1
    18    16    17    1
    19    17    18    2
    20    17    19    1
    21    19    20    1
