@<TRIPOS>MOLECULE
25249_ChemDiv_G119-1768
 33 37 0 0 0
SMALL
GASTEIGER
Energy = 0

@<TRIPOS>ATOM
      1 N           1.4170   -2.0080    0.0000 N.ar    1  LIG1       -0.3268
      2 C           1.9960   -1.2000    0.0000 C.ar    1  LIG1        0.0338
      3 C           1.4080   -0.3880    0.0000 C.ar    1  LIG1       -0.0088
      4 C           0.4540   -0.7040    0.0000 C.ar    1  LIG1        0.0131
      5 C           0.4630   -1.7040    0.0000 C.ar    1  LIG1        0.0596
      6 C          -0.4080   -2.2130    0.0000 C.ar    1  LIG1        0.0173
      7 C          -1.2710   -1.7130    0.0000 C.ar    1  LIG1        0.0060
      8 C          -1.2710   -0.7170    0.0000 C.ar    1  LIG1        0.0537
      9 C          -2.1330   -0.2080    0.0000 C.2     1  LIG1        0.2491
     10 N          -2.1330    0.7790    0.0000 N.am    1  LIG1       -0.2726
     11 C          -1.3210    1.2830    0.0000 C.3     1  LIG1        0.1152
     12 C          -1.2130    2.2210    0.0000 C.3     1  LIG1        0.1151
     13 N          -2.0880    2.7750    0.0000 N.pl3   1  LIG1       -0.2747
     14 C          -2.0540    3.7330    0.0000 C.ar    1  LIG1        0.2203
     15 N          -2.8920    4.2750    0.0000 N.ar    1  LIG1       -0.2121
     16 C          -2.8750    5.2880    0.0000 C.ar    1  LIG1        0.1034
     17 C          -1.9500    5.7670    0.0000 C.ar    1  LIG1        0.0414
     18 C          -1.1080    5.2290    0.0000 C.ar    1  LIG1        0.1034
     19 N          -1.1330    4.1830    0.0000 N.ar    1  LIG1       -0.2121
     20 C          -2.9500    2.3250    0.0000 C.3     1  LIG1        0.1151
     21 C          -2.9960    1.3250    0.0000 C.3     1  LIG1        0.1152
     22 O          -3.0000   -0.7170    0.0000 O.2     1  LIG1       -0.2699
     23 C          -0.4080   -0.2080    0.0000 C.ar    1  LIG1        0.0057
     24 C           1.7080    0.5540    0.0000 C.3     1  LIG1        0.0322
     25 C           2.9960   -1.1920    0.0000 C.3     1  LIG1        0.0497
     26 C           1.7250   -2.9580    0.0000 C.3     1  LIG1        0.1324
     27 C           1.0130   -3.6670    0.0000 C.ar    1  LIG1        0.0004
     28 C           0.0460   -3.3920    0.0000 C.ar    1  LIG1       -0.0015
     29 C          -0.6670   -4.0920    0.0000 C.ar    1  LIG1        0.0111
     30 C          -0.4130   -5.0630    0.0000 C.ar    1  LIG1        0.0577
     31 CL         -1.1250   -5.7670    0.0000 Cl      1  LIG1       -0.0822
     32 C           0.5580   -5.3290    0.0000 C.ar    1  LIG1        0.0111
     33 C           1.2710   -4.6250    0.0000 C.ar    1  LIG1       -0.0015
@<TRIPOS>BOND
     1     1     2   ar
     2     1     5   ar
     3     1    26    1
     4     2     3   ar
     5     2    25    1
     6     3     4   ar
     7     3    24    1
     8     4     5   ar
     9     4    23   ar
    10     5     6   ar
    11     6     7   ar
    12     7     8   ar
    13     8     9    1
    14     8    23   ar
    15     9    10   am
    16     9    22    2
    17    10    11    1
    18    10    21    1
    19    11    12    1
    20    12    13    1
    21    13    14    1
    22    13    20    1
    23    14    15   ar
    24    14    19   ar
    25    15    16   ar
    26    16    17   ar
    27    17    18   ar
    28    18    19   ar
    29    20    21    1
    30    26    27    1
    31    27    28   ar
    32    27    33   ar
    33    28    29   ar
    34    29    30   ar
    35    30    31    1
    36    30    32   ar
    37    32    33   ar
