@<TRIPOS>MOLECULE
25247_ChemDiv_3653-0435
 29 31 0 0 0
SMALL
GASTEIGER
Energy = 0

@<TRIPOS>ATOM
      1 N           1.2210   -0.2250    0.0000 N.ar    1  LIG1       -0.2063
      2 C           0.2130   -0.1630    0.0000 C.ar    1  LIG1        0.1982
      3 N          -0.1580   -1.0750    0.0000 N.ar    1  LIG1       -0.1817
      4 S           0.5460   -1.7500    0.0000 S.2     1  LIG1        0.0412
      5 C           1.4290   -1.2040    0.0000 C.ar    1  LIG1        0.1563
      6 S           2.2880   -1.7500    0.0000 S.3     1  LIG1       -0.0771
      7 C           2.2880   -2.7000    0.0000 C.3     1  LIG1        0.1510
      8 C           3.1380   -3.2210    0.0000 C.2     1  LIG1        0.2570
      9 N           4.0000   -2.7000    0.0000 N.am    1  LIG1       -0.1785
     10 C           4.0000   -1.7500    0.0000 C.ar    1  LIG1        0.0731
     11 C           4.8830   -1.2040    0.0000 C.ar    1  LIG1        0.0123
     12 C           4.8830   -0.2250    0.0000 C.ar    1  LIG1       -0.0206
     13 C           4.0000    0.2830    0.0000 C.ar    1  LIG1       -0.0042
     14 C           3.1380   -0.2250    0.0000 C.ar    1  LIG1        0.0010
     15 C           3.1380   -1.2040    0.0000 C.ar    1  LIG1        0.0166
     16 C           5.7710    0.2830    0.0000 C.3     1  LIG1        0.0311
     17 O           3.1380   -4.1960    0.0000 O.2     1  LIG1       -0.2720
     18 S          -0.2630    0.7210    0.0000 S.3     1  LIG1       -0.0652
     19 C          -1.2830    0.7210    0.0000 C.3     1  LIG1        0.1520
     20 C          -1.7880    1.5920    0.0000 C.2     1  LIG1        0.2570
     21 N          -2.7790    1.5920    0.0000 N.am    1  LIG1       -0.1785
     22 C          -3.2750    2.4460    0.0000 C.ar    1  LIG1        0.0731
     23 C          -4.2790    2.4460    0.0000 C.ar    1  LIG1        0.0123
     24 C          -4.7670    3.3170    0.0000 C.ar    1  LIG1       -0.0206
     25 C          -4.2790    4.1960    0.0000 C.ar    1  LIG1       -0.0042
     26 C          -3.2750    4.1960    0.0000 C.ar    1  LIG1        0.0010
     27 C          -2.7790    3.3170    0.0000 C.ar    1  LIG1        0.0166
     28 C          -5.7750    3.3170    0.0000 C.3     1  LIG1        0.0311
     29 O          -1.2830    2.4460    0.0000 O.2     1  LIG1       -0.2720
@<TRIPOS>BOND
     1     1     2   ar
     2     1     5   ar
     3     2     3   ar
     4     2    18    1
     5     3     4   ar
     6     4     5   ar
     7     5     6    1
     8     6     7    1
     9     7     8    1
    10     8     9   am
    11     8    17    2
    12     9    10    1
    13    10    11   ar
    14    10    15   ar
    15    11    12   ar
    16    12    13   ar
    17    12    16    1
    18    13    14   ar
    19    14    15   ar
    20    18    19    1
    21    19    20    1
    22    20    21   am
    23    20    29    2
    24    21    22    1
    25    22    23   ar
    26    22    27   ar
    27    23    24   ar
    28    24    25   ar
    29    24    28    1
    30    25    26   ar
    31    26    27   ar
