@<TRIPOS>MOLECULE
25241_ChemDiv_0338-0010
 31 33 0 0 0
SMALL
GASTEIGER
Energy = 0

@<TRIPOS>ATOM
      1 N          -1.8210   -0.2580    0.0000 N.ar    1  LIG1       -0.2063
      2 C          -1.2460    0.5670    0.0000 C.ar    1  LIG1        0.1982
      3 N          -1.8210    1.3710    0.0000 N.ar    1  LIG1       -0.1817
      4 S          -2.7380    1.0880    0.0000 S.2     1  LIG1        0.0412
      5 C          -2.7380    0.0580    0.0000 C.ar    1  LIG1        0.1563
      6 S          -3.6000   -0.4460    0.0000 S.3     1  LIG1       -0.0771
      7 C          -4.4710    0.0580    0.0000 C.3     1  LIG1        0.1510
      8 C          -5.3420   -0.4460    0.0000 C.2     1  LIG1        0.2570
      9 N          -5.3420   -1.4380    0.0000 N.am    1  LIG1       -0.1785
     10 C          -4.4710   -1.9460    0.0000 C.ar    1  LIG1        0.0736
     11 C          -3.6000   -1.4380    0.0000 C.ar    1  LIG1        0.0197
     12 C          -2.7380   -1.9460    0.0000 C.ar    1  LIG1        0.0382
     13 C          -2.7380   -2.9380    0.0000 C.ar    1  LIG1        0.1388
     14 C          -3.6000   -3.4460    0.0000 C.ar    1  LIG1        0.0382
     15 C          -4.4710   -2.9380    0.0000 C.ar    1  LIG1        0.0197
     16 O          -1.8830   -3.4460    0.0000 O.3     1  LIG1       -0.4714
     17 C          -1.0250   -2.9580    0.0000 C.3     1  LIG1        0.2525
     18 O          -6.1790    0.0580    0.0000 O.2     1  LIG1       -0.2720
     19 S          -0.2330    0.6420    0.0000 S.3     1  LIG1       -0.0652
     20 C           0.2540    1.5290    0.0000 C.3     1  LIG1        0.1520
     21 C           1.2420    1.5630    0.0000 C.2     1  LIG1        0.2570
     22 N           1.6880    2.4670    0.0000 N.am    1  LIG1       -0.1785
     23 C           2.6830    2.4830    0.0000 C.ar    1  LIG1        0.0736
     24 C           3.1630    3.3880    0.0000 C.ar    1  LIG1        0.0197
     25 C           4.1420    3.4500    0.0000 C.ar    1  LIG1        0.0382
     26 C           4.6880    2.5460    0.0000 C.ar    1  LIG1        0.1388
     27 C           4.2040    1.6880    0.0000 C.ar    1  LIG1        0.0382
     28 C           3.2250    1.6580    0.0000 C.ar    1  LIG1        0.0197
     29 O           5.7130    2.5460    0.0000 O.3     1  LIG1       -0.4714
     30 C           6.1790    3.4210    0.0000 C.3     1  LIG1        0.2525
     31 O           1.7920    0.7040    0.0000 O.2     1  LIG1       -0.2720
@<TRIPOS>BOND
     1     1     2   ar
     2     1     5   ar
     3     2     3   ar
     4     2    19    1
     5     3     4   ar
     6     4     5   ar
     7     5     6    1
     8     6     7    1
     9     7     8    1
    10     8     9   am
    11     8    18    2
    12     9    10    1
    13    10    11   ar
    14    10    15   ar
    15    11    12   ar
    16    12    13   ar
    17    13    14   ar
    18    13    16    1
    19    14    15   ar
    20    16    17    1
    21    19    20    1
    22    20    21    1
    23    21    22   am
    24    21    31    2
    25    22    23    1
    26    23    24   ar
    27    23    28   ar
    28    24    25   ar
    29    25    26   ar
    30    26    27   ar
    31    26    29    1
    32    27    28   ar
    33    29    30    1
