@<TRIPOS>MOLECULE
25244_ChemDiv_0945-0219
 19 20 0 0 0
SMALL
GASTEIGER
Energy = 0

@<TRIPOS>ATOM
      1 C           0.0670    0.2380    0.0000 C.ar    1  LIG1        0.1858
      2 N          -0.7710    0.7080    0.0000 N.ar    1  LIG1       -0.2225
      3 C          -1.4880    0.0420    0.0000 C.ar    1  LIG1        0.0898
      4 C          -1.1130   -0.7790    0.0000 C.ar    1  LIG1        0.0573
      5 S          -0.1170   -0.7790    0.0000 S.2     1  LIG1       -0.0492
      6 C          -2.4750    0.1630    0.0000 C.ar    1  LIG1        0.0182
      7 C          -3.0880   -0.6290    0.0000 C.ar    1  LIG1        0.0015
      8 C          -4.0920   -0.4920    0.0000 C.ar    1  LIG1        0.0000
      9 C          -4.4710    0.4210    0.0000 C.ar    1  LIG1        0.0000
     10 C          -3.8630    1.2290    0.0000 C.ar    1  LIG1        0.0000
     11 C          -2.8580    1.0920    0.0000 C.ar    1  LIG1        0.0015
     12 N           0.9210    0.7630    0.0000 N.am    1  LIG1       -0.1543
     13 C           1.8500    0.2380    0.0000 C.2     1  LIG1        0.2477
     14 O           1.8500   -0.7790    0.0000 O.2     1  LIG1       -0.2729
     15 C           2.7460    0.8080    0.0000 C.3     1  LIG1        0.0931
     16 C           3.6000    0.2830    0.0000 C.3     1  LIG1        0.0513
     17 C           3.6000   -0.7000    0.0000 C.2     1  LIG1        0.0508
     18 O           4.4670   -1.2250    0.0000 O.co2   1  LIG1       -0.5492
     19 O           2.7250   -1.0880    0.0000 O.co2   1  LIG1       -0.5492
@<TRIPOS>BOND
     1     1     2   ar
     2     1     5   ar
     3     1    12    1
     4     2     3   ar
     5     3     4   ar
     6     3     6    1
     7     4     5   ar
     8     6     7   ar
     9     6    11   ar
    10     7     8   ar
    11     8     9   ar
    12     9    10   ar
    13    10    11   ar
    14    12    13   am
    15    13    14    2
    16    13    15    1
    17    15    16    1
    18    16    17    1
    19    17    18   ar
    20    17    19   ar
