@<TRIPOS>MOLECULE
25253_ChemDiv_5132-0326
 26 29 0 0 0
SMALL
GASTEIGER
Energy = 0

@<TRIPOS>ATOM
      1 C          -1.6580   -1.5960    0.0000 C.ar    1  LIG1        0.0112
      2 C          -2.1920   -2.4460    0.0000 C.ar    1  LIG1        0.1188
      3 O          -1.5380   -3.2330    0.0000 O.2     1  LIG1       -0.4581
      4 C          -0.6250   -2.8460    0.0000 C.ar    1  LIG1        0.1447
      5 C          -0.6880   -1.8500    0.0000 C.ar    1  LIG1        0.0362
      6 C           0.1540   -1.2960    0.0000 C.ar    1  LIG1        0.0397
      7 C           1.0460   -1.7420    0.0000 C.ar    1  LIG1        0.1395
      8 O           1.9210   -1.2290    0.0000 O.3     1  LIG1       -0.4656
      9 C           1.9210   -0.2170    0.0000 C.3     1  LIG1        0.2915
     10 C           2.7920    0.2630    0.0000 C.2     1  LIG1        0.2901
     11 N           2.7920    1.2830    0.0000 N.am    1  LIG1       -0.1760
     12 C           1.9210    1.7880    0.0000 C.ar    1  LIG1        0.0765
     13 C           1.0460    1.2830    0.0000 C.ar    1  LIG1        0.0535
     14 C           0.1670    1.7880    0.0000 C.ar    1  LIG1        0.1400
     15 O          -0.6080    1.3670    0.0000 O.3     1  LIG1       -0.4714
     16 C          -1.4210    1.8250    0.0000 C.3     1  LIG1        0.2525
     17 C           0.1540    2.8040    0.0000 C.ar    1  LIG1        0.0370
     18 C           1.0460    3.3000    0.0000 C.ar    1  LIG1        0.0044
     19 C           1.9210    2.7920    0.0000 C.ar    1  LIG1        0.0168
     20 O           3.6630   -0.2170    0.0000 O.2     1  LIG1       -0.2689
     21 C           1.1080   -2.7420    0.0000 C.ar    1  LIG1        0.0400
     22 C           0.2830   -3.2960    0.0000 C.ar    1  LIG1        0.0406
     23 C          -3.1960   -2.4000    0.0000 C.3     1  LIG1        0.0642
     24 C          -3.6670   -1.5130    0.0000 C.3     1  LIG1        0.0083
     25 C          -3.1290   -0.6630    0.0000 C.3     1  LIG1        0.0052
     26 C          -2.1290   -0.7000    0.0000 C.3     1  LIG1        0.0292
@<TRIPOS>BOND
     1     1     2   ar
     2     1     5   ar
     3     1    26    1
     4     2     3   ar
     5     2    23    1
     6     3     4   ar
     7     4     5   ar
     8     4    22   ar
     9     5     6   ar
    10     6     7   ar
    11     7     8    1
    12     7    21   ar
    13     8     9    1
    14     9    10    1
    15    10    11   am
    16    10    20    2
    17    11    12    1
    18    12    13   ar
    19    12    19   ar
    20    13    14   ar
    21    14    15    1
    22    14    17   ar
    23    15    16    1
    24    17    18   ar
    25    18    19   ar
    26    21    22   ar
    27    23    24    1
    28    24    25    1
    29    25    26    1
