@<TRIPOS>MOLECULE
25251_ChemDiv_0266-0161
 30 34 0 0 0
SMALL
GASTEIGER
Energy = 0

@<TRIPOS>ATOM
      1 C          -1.5290   -4.4000    0.0000 C.ar    1  LIG1        0.0112
      2 C          -1.5290   -5.3960    0.0000 C.ar    1  LIG1        0.1188
      3 O          -0.5790   -5.7080    0.0000 O.2     1  LIG1       -0.4581
      4 C          -0.0130   -4.8960    0.0000 C.ar    1  LIG1        0.1447
      5 C          -0.5790   -4.0790    0.0000 C.ar    1  LIG1        0.0362
      6 C          -0.1790   -3.1670    0.0000 C.ar    1  LIG1        0.0397
      7 C           0.8170   -3.0710    0.0000 C.ar    1  LIG1        0.1389
      8 O           1.2130   -2.1170    0.0000 O.3     1  LIG1       -0.4725
      9 C           0.6040   -1.3250    0.0000 C.3     1  LIG1        0.2443
     10 C           0.9830   -0.4130    0.0000 C.3     1  LIG1        0.2514
     11 C           0.3630    0.3830    0.0000 C.3     1  LIG1        0.1759
     12 N           0.7500    1.2960    0.0000 N.4     1  LIG1        0.3821
     13 C           0.1330    2.0630    0.0000 C.3     1  LIG1        0.1606
     14 C           0.5000    2.9920    0.0000 C.3     1  LIG1        0.1544
     15 N           1.5170    3.1250    0.0000 N.pl3   1  LIG1       -0.2972
     16 C           2.1040    2.3500    0.0000 C.3     1  LIG1        0.1544
     17 C           1.7330    1.4540    0.0000 C.3     1  LIG1        0.1606
     18 C           1.8750    4.0540    0.0000 C.ar    1  LIG1        0.0481
     19 C           1.2750    4.8330    0.0000 C.ar    1  LIG1        0.0145
     20 C           1.6630    5.7710    0.0000 C.ar    1  LIG1        0.0013
     21 C           2.6580    5.8960    0.0000 C.ar    1  LIG1        0.0001
     22 C           3.2670    5.1040    0.0000 C.ar    1  LIG1        0.0013
     23 C           2.8750    4.1710    0.0000 C.ar    1  LIG1        0.0145
     24 O           1.9580   -0.2630    0.0000 O.3     1  LIG1       -0.2127
     25 C           1.4330   -3.9000    0.0000 C.ar    1  LIG1        0.0400
     26 C           1.0170   -4.7960    0.0000 C.ar    1  LIG1        0.0406
     27 C          -2.3880   -5.8960    0.0000 C.3     1  LIG1        0.0642
     28 C          -3.2710   -5.3750    0.0000 C.3     1  LIG1        0.0083
     29 C          -3.2710   -4.4130    0.0000 C.3     1  LIG1        0.0052
     30 C          -2.3880   -3.9000    0.0000 C.3     1  LIG1        0.0292
@<TRIPOS>BOND
     1     1     2   ar
     2     1     5   ar
     3     1    30    1
     4     2     3   ar
     5     2    27    1
     6     3     4   ar
     7     4     5   ar
     8     4    26   ar
     9     5     6   ar
    10     6     7   ar
    11     7     8    1
    12     7    25   ar
    13     8     9    1
    14     9    10    1
    15    10    11    1
    16    10    24    1
    17    11    12    1
    18    12    13    1
    19    12    17    1
    20    13    14    1
    21    14    15    1
    22    15    16    1
    23    15    18    1
    24    16    17    1
    25    18    19   ar
    26    18    23   ar
    27    19    20   ar
    28    20    21   ar
    29    21    22   ar
    30    22    23   ar
    31    25    26   ar
    32    27    28    1
    33    28    29    1
    34    29    30    1
