@<TRIPOS>MOLECULE
25257_ChemDiv_6078-0821
 24 27 0 0 0
SMALL
GASTEIGER
Energy = 0

@<TRIPOS>ATOM
      1 C          -2.7210   -2.1710    0.0000 C.ar    1  LIG1        0.0112
      2 C          -2.7710   -3.1670    0.0000 C.ar    1  LIG1        0.1188
      3 O          -1.8380   -3.5250    0.0000 O.2     1  LIG1       -0.4581
      4 C          -1.2170   -2.7580    0.0000 C.ar    1  LIG1        0.1447
      5 C          -1.7540   -1.9210    0.0000 C.ar    1  LIG1        0.0362
      6 C          -1.2880   -1.0290    0.0000 C.ar    1  LIG1        0.0397
      7 C          -0.3000   -0.9750    0.0000 C.ar    1  LIG1        0.1395
      8 O           0.1460   -0.0670    0.0000 O.3     1  LIG1       -0.4656
      9 C           1.1420    0.0000    0.0000 C.3     1  LIG1        0.2915
     10 C           1.5920    0.8920    0.0000 C.2     1  LIG1        0.2901
     11 N           2.5880    0.9540    0.0000 N.am    1  LIG1       -0.1745
     12 C           3.0460    1.8380    0.0000 C.ar    1  LIG1        0.0926
     13 C           4.0420    1.8960    0.0000 C.ar    1  LIG1        0.1154
     14 N           4.4960    2.7830    0.0000 N.ar    1  LIG1       -0.2410
     15 C           3.9500    3.6250    0.0000 C.ar    1  LIG1        0.0990
     16 C           2.9500    3.5670    0.0000 C.ar    1  LIG1        0.0220
     17 C           2.5000    2.6790    0.0000 C.ar    1  LIG1        0.0198
     18 O           1.0460    1.7250    0.0000 O.2     1  LIG1       -0.2689
     19 C           0.2540   -1.8330    0.0000 C.ar    1  LIG1        0.0400
     20 C          -0.2130   -2.7170    0.0000 C.ar    1  LIG1        0.0406
     21 C          -3.6580   -3.6210    0.0000 C.3     1  LIG1        0.0642
     22 C          -4.5000   -3.0710    0.0000 C.3     1  LIG1        0.0083
     23 C          -4.4500   -2.0790    0.0000 C.3     1  LIG1        0.0052
     24 C          -3.5540   -1.6250    0.0000 C.3     1  LIG1        0.0292
@<TRIPOS>BOND
     1     1     2   ar
     2     1     5   ar
     3     1    24    1
     4     2     3   ar
     5     2    21    1
     6     3     4   ar
     7     4     5   ar
     8     4    20   ar
     9     5     6   ar
    10     6     7   ar
    11     7     8    1
    12     7    19   ar
    13     8     9    1
    14     9    10    1
    15    10    11   am
    16    10    18    2
    17    11    12    1
    18    12    13   ar
    19    12    17   ar
    20    13    14   ar
    21    14    15   ar
    22    15    16   ar
    23    16    17   ar
    24    19    20   ar
    25    21    22    1
    26    22    23    1
    27    23    24    1
