@<TRIPOS>MOLECULE
25259_ChemDiv_6078-0827
 28 32 0 0 0
SMALL
GASTEIGER
Energy = 0

@<TRIPOS>ATOM
      1 C          -3.4830   -2.1670    0.0000 C.ar    1  LIG1        0.0112
      2 C          -3.5380   -3.1670    0.0000 C.ar    1  LIG1        0.1188
      3 O          -2.6040   -3.5290    0.0000 O.2     1  LIG1       -0.4581
      4 C          -1.9750   -2.7580    0.0000 C.ar    1  LIG1        0.1447
      5 C          -2.5170   -1.9130    0.0000 C.ar    1  LIG1        0.0362
      6 C          -2.0580   -1.0210    0.0000 C.ar    1  LIG1        0.0397
      7 C          -1.0580   -0.9670    0.0000 C.ar    1  LIG1        0.1395
      8 O          -0.6170   -0.0580    0.0000 O.3     1  LIG1       -0.4656
      9 C           0.3920    0.0130    0.0000 C.3     1  LIG1        0.2915
     10 C           0.8380    0.9080    0.0000 C.2     1  LIG1        0.2901
     11 N           1.8420    0.9670    0.0000 N.am    1  LIG1       -0.1745
     12 C           2.2960    1.8580    0.0000 C.ar    1  LIG1        0.0910
     13 C           3.2830    1.9040    0.0000 C.ar    1  LIG1        0.0965
     14 N           3.8250    1.0750    0.0000 N.ar    1  LIG1       -0.2425
     15 C           4.8170    1.1250    0.0000 C.ar    1  LIG1        0.0989
     16 C           5.2670    2.0170    0.0000 C.ar    1  LIG1        0.0207
     17 C           4.7250    2.8420    0.0000 C.ar    1  LIG1        0.0031
     18 C           3.7380    2.7920    0.0000 C.ar    1  LIG1        0.0190
     19 C           3.1920    3.6250    0.0000 C.ar    1  LIG1        0.0016
     20 C           2.1960    3.5710    0.0000 C.ar    1  LIG1        0.0014
     21 C           1.7500    2.6830    0.0000 C.ar    1  LIG1        0.0181
     22 O           0.2920    1.7500    0.0000 O.2     1  LIG1       -0.2689
     23 C          -0.5040   -1.8290    0.0000 C.ar    1  LIG1        0.0400
     24 C          -0.9710   -2.7170    0.0000 C.ar    1  LIG1        0.0406
     25 C          -4.4330   -3.6210    0.0000 C.3     1  LIG1        0.0642
     26 C          -5.2710   -3.0710    0.0000 C.3     1  LIG1        0.0083
     27 C          -5.2250   -2.0750    0.0000 C.3     1  LIG1        0.0052
     28 C          -4.3250   -1.6210    0.0000 C.3     1  LIG1        0.0292
@<TRIPOS>BOND
     1     1     2   ar
     2     1     5   ar
     3     1    28    1
     4     2     3   ar
     5     2    25    1
     6     3     4   ar
     7     4     5   ar
     8     4    24   ar
     9     5     6   ar
    10     6     7   ar
    11     7     8    1
    12     7    23   ar
    13     8     9    1
    14     9    10    1
    15    10    11   am
    16    10    22    2
    17    11    12    1
    18    12    13   ar
    19    12    21   ar
    20    13    14   ar
    21    13    18   ar
    22    14    15   ar
    23    15    16   ar
    24    16    17   ar
    25    17    18   ar
    26    18    19   ar
    27    19    20   ar
    28    20    21   ar
    29    23    24   ar
    30    25    26    1
    31    26    27    1
    32    27    28    1
