@<TRIPOS>MOLECULE
25255_ChemDiv_5132-0335
 29 32 0 0 0
SMALL
GASTEIGER
Energy = 0

@<TRIPOS>ATOM
      1 C          -3.3830   -2.8290    0.0000 C.ar    1  LIG1        0.0112
      2 C          -3.9000   -3.6630    0.0000 C.ar    1  LIG1        0.1188
      3 O          -3.2500   -4.4330    0.0000 O.2     1  LIG1       -0.4581
      4 C          -2.3130   -4.0670    0.0000 C.ar    1  LIG1        0.1447
      5 C          -2.3920   -3.0750    0.0000 C.ar    1  LIG1        0.0362
      6 C          -1.5710   -2.5170    0.0000 C.ar    1  LIG1        0.0397
      7 C          -0.6250   -2.9500    0.0000 C.ar    1  LIG1        0.1395
      8 O           0.2130   -2.4250    0.0000 O.3     1  LIG1       -0.4656
      9 C           0.2000   -1.4250    0.0000 C.3     1  LIG1        0.2915
     10 C           1.0380   -0.9170    0.0000 C.2     1  LIG1        0.2901
     11 N           1.0380    0.0920    0.0000 N.am    1  LIG1       -0.1761
     12 C           1.9080    0.6040    0.0000 C.ar    1  LIG1        0.0735
     13 C           1.9080    1.6040    0.0000 C.ar    1  LIG1        0.0168
     14 C           2.7710    2.1210    0.0000 C.ar    1  LIG1        0.0078
     15 C           3.6460    1.6040    0.0000 C.ar    1  LIG1        0.0757
     16 C           4.5170    2.0960    0.0000 C.2     1  LIG1        0.3412
     17 O           5.3580    1.5920    0.0000 O.2     1  LIG1       -0.2449
     18 O           4.5170    3.0920    0.0000 O.3     1  LIG1       -0.4454
     19 C           3.6460    3.5790    0.0000 C.3     1  LIG1        0.2089
     20 C           3.6790    4.5130    0.0000 C.3     1  LIG1        0.0513
     21 C           3.6460    0.6040    0.0000 C.ar    1  LIG1        0.0078
     22 C           2.7710    0.0920    0.0000 C.ar    1  LIG1        0.0168
     23 O           1.9080   -1.3880    0.0000 O.2     1  LIG1       -0.2689
     24 C          -0.5790   -3.9710    0.0000 C.ar    1  LIG1        0.0400
     25 C          -1.4080   -4.5130    0.0000 C.ar    1  LIG1        0.0406
     26 C          -4.9000   -3.6210    0.0000 C.3     1  LIG1        0.0642
     27 C          -5.3630   -2.7380    0.0000 C.3     1  LIG1        0.0083
     28 C          -4.8460   -1.8920    0.0000 C.3     1  LIG1        0.0052
     29 C          -3.8500   -1.9330    0.0000 C.3     1  LIG1        0.0292
@<TRIPOS>BOND
     1     1     2   ar
     2     1     5   ar
     3     1    29    1
     4     2     3   ar
     5     2    26    1
     6     3     4   ar
     7     4     5   ar
     8     4    25   ar
     9     5     6   ar
    10     6     7   ar
    11     7     8    1
    12     7    24   ar
    13     8     9    1
    14     9    10    1
    15    10    11   am
    16    10    23    2
    17    11    12    1
    18    12    13   ar
    19    12    22   ar
    20    13    14   ar
    21    14    15   ar
    22    15    16    1
    23    15    21   ar
    24    16    17    2
    25    16    18    1
    26    18    19    1
    27    19    20    1
    28    21    22   ar
    29    24    25   ar
    30    26    27    1
    31    27    28    1
    32    28    29    1
