@<TRIPOS>MOLECULE
25261_ChemDiv_8005-2881
 24 26 0 0 0
SMALL
GASTEIGER
Energy = 0

@<TRIPOS>ATOM
      1 C          -1.3540   -0.7210    0.0000 C.ar    1  LIG1        0.0680
      2 C          -0.3670   -0.7210    0.0000 C.ar    1  LIG1        0.0432
      3 C          -0.0460   -1.6670    0.0000 C.ar    1  LIG1        0.1482
      4 O          -0.8830   -2.2540    0.0000 O.2     1  LIG1       -0.4576
      5 C          -1.6460   -1.6670    0.0000 C.ar    1  LIG1        0.1255
      6 C          -2.6460   -1.9170    0.0000 C.3     1  LIG1        0.0650
      7 C          -3.3170   -1.1710    0.0000 C.3     1  LIG1        0.0144
      8 C          -3.0210   -0.2250    0.0000 C.3     1  LIG1        0.0697
      9 C          -2.0580   -0.0040    0.0000 C.2     1  LIG1        0.1758
     10 O          -1.7920    0.9460    0.0000 O.2     1  LIG1       -0.2912
     11 C          -4.2540   -0.8670    0.0000 C.3     1  LIG1        0.0009
     12 C          -3.9580   -1.9750    0.0000 C.3     1  LIG1        0.0009
     13 C           0.9750   -1.8420    0.0000 C.ar    1  LIG1        0.0782
     14 C           1.6500   -1.1000    0.0000 C.ar    1  LIG1        0.1858
     15 C           1.3250   -0.1500    0.0000 C.ar    1  LIG1        0.1830
     16 C           0.3460    0.0540    0.0000 C.ar    1  LIG1        0.0440
     17 O           1.9830    0.5960    0.0000 O.3     1  LIG1       -0.4210
     18 C           1.6790    1.5250    0.0000 C.2     1  LIG1        0.3221
     19 O           0.7000    1.6880    0.0000 O.2     1  LIG1       -0.2497
     20 C           2.3500    2.2580    0.0000 C.3     1  LIG1        0.1216
     21 O           2.6250   -1.2920    0.0000 O.3     1  LIG1       -0.4208
     22 C           3.2670   -0.5420    0.0000 C.2     1  LIG1        0.3221
     23 O           2.9210    0.3750    0.0000 O.2     1  LIG1       -0.2497
     24 C           4.2500   -0.7500    0.0000 C.3     1  LIG1        0.1216
@<TRIPOS>BOND
     1     1     2   ar
     2     1     5   ar
     3     1     9    1
     4     2     3   ar
     5     2    16   ar
     6     3     4   ar
     7     3    13   ar
     8     4     5   ar
     9     5     6    1
    10     6     7    1
    11     7     8    1
    12     7    11    1
    13     7    12    1
    14     8     9    1
    15     9    10    2
    16    13    14   ar
    17    14    15   ar
    18    14    21    1
    19    15    16   ar
    20    15    17    1
    21    17    18    1
    22    18    19    2
    23    18    20    1
    24    21    22    1
    25    22    23    2
    26    22    24    1
