@<TRIPOS>MOLECULE
25263_ChemDiv_8013-6869
 14 16 0 0 0
SMALL
GASTEIGER
Energy = 0

@<TRIPOS>ATOM
      1 C          -1.2670    0.4710    0.0000 C.ar    1  LIG1        0.0111
      2 C          -1.2670   -0.4750    0.0000 C.ar    1  LIG1        0.1188
      3 O          -0.4330   -0.9500    0.0000 O.2     1  LIG1       -0.4581
      4 C           0.4000   -0.4750    0.0000 C.ar    1  LIG1        0.1446
      5 C           0.4000    0.4710    0.0000 C.ar    1  LIG1        0.0345
      6 C           1.2290    0.9420    0.0000 C.ar    1  LIG1        0.0209
      7 C           2.0630    0.4710    0.0000 C.ar    1  LIG1        0.0893
      8 N           2.9250    0.9540    0.0000 N.pl3   1  LIG1       -0.1281
      9 C           2.0630   -0.4750    0.0000 C.ar    1  LIG1        0.0212
     10 C           1.2290   -0.9500    0.0000 C.ar    1  LIG1        0.0388
     11 C          -2.0960   -0.9500    0.0000 C.3     1  LIG1        0.0642
     12 C          -2.9290   -0.4750    0.0000 C.3     1  LIG1        0.0083
     13 C          -2.9290    0.4710    0.0000 C.3     1  LIG1        0.0052
     14 C          -2.0960    0.9420    0.0000 C.3     1  LIG1        0.0292
@<TRIPOS>BOND
     1     1     2   ar
     2     1     5   ar
     3     1    14    1
     4     2     3   ar
     5     2    11    1
     6     3     4   ar
     7     4     5   ar
     8     4    10   ar
     9     5     6   ar
    10     6     7   ar
    11     7     8    1
    12     7     9   ar
    13     9    10   ar
    14    11    12    1
    15    12    13    1
    16    13    14    1
