@<TRIPOS>MOLECULE
25269_ChemDiv_5846-0049
 25 27 0 0 0
SMALL
GASTEIGER
Energy = 0

@<TRIPOS>ATOM
      1 N          -0.2960   -0.6790    0.0000 N.ar    1  LIG1       -0.2063
      2 C          -1.2750   -0.7460    0.0000 C.ar    1  LIG1        0.1982
      3 N          -1.5250   -1.7170    0.0000 N.ar    1  LIG1       -0.1817
      4 S          -0.6630   -2.2630    0.0000 S.2     1  LIG1        0.0412
      5 C           0.1000   -1.5920    0.0000 C.ar    1  LIG1        0.1563
      6 S           1.0380   -1.9710    0.0000 S.3     1  LIG1       -0.0772
      7 C           1.8040   -1.3040    0.0000 C.3     1  LIG1        0.1491
      8 C           2.7330   -1.6750    0.0000 C.2     1  LIG1        0.2372
      9 N           3.5210   -1.0080    0.0000 N.am    1  LIG1       -0.2737
     10 C           3.3460   -0.0130    0.0000 C.3     1  LIG1        0.1255
     11 C           4.1170    0.6130    0.0000 C.3     1  LIG1        0.1636
     12 O           5.0460    0.2830    0.0000 O.3     1  LIG1       -0.3501
     13 C           5.2170   -0.7080    0.0000 C.3     1  LIG1        0.1636
     14 C           4.4500   -1.3420    0.0000 C.3     1  LIG1        0.1255
     15 O           2.9000   -2.6290    0.0000 O.2     1  LIG1       -0.2739
     16 S          -1.9420   -0.0130    0.0000 S.3     1  LIG1       -0.0653
     17 C          -1.6210    0.9460    0.0000 C.3     1  LIG1        0.1501
     18 C          -2.2830    1.6880    0.0000 C.2     1  LIG1        0.2372
     19 N          -3.2630    1.4920    0.0000 N.am    1  LIG1       -0.2737
     20 C          -3.5960    0.5460    0.0000 C.3     1  LIG1        0.1255
     21 C          -4.5750    0.3500    0.0000 C.3     1  LIG1        0.1636
     22 O          -5.2210    1.1290    0.0000 O.3     1  LIG1       -0.3501
     23 C          -4.9000    2.0500    0.0000 C.3     1  LIG1        0.1636
     24 C          -3.9170    2.2380    0.0000 C.3     1  LIG1        0.1255
     25 O          -1.9670    2.6330    0.0000 O.2     1  LIG1       -0.2739
@<TRIPOS>BOND
     1     1     2   ar
     2     1     5   ar
     3     2     3   ar
     4     2    16    1
     5     3     4   ar
     6     4     5   ar
     7     5     6    1
     8     6     7    1
     9     7     8    1
    10     8     9   am
    11     8    15    2
    12     9    10    1
    13     9    14    1
    14    10    11    1
    15    11    12    1
    16    12    13    1
    17    13    14    1
    18    16    17    1
    19    17    18    1
    20    18    19   am
    21    18    25    2
    22    19    20    1
    23    19    24    1
    24    20    21    1
    25    21    22    1
    26    22    23    1
    27    23    24    1
