@<TRIPOS>MOLECULE
25266_ChemDiv_6049-1363
 25 28 0 0 0
SMALL
GASTEIGER
Energy = 0

@<TRIPOS>ATOM
      1 C          -1.1330   -0.5420    0.0000 C.ar    1  LIG1        0.1855
      2 N          -0.7920    0.3500    0.0000 N.ar    1  LIG1       -0.2228
      3 C          -1.6000    0.9460    0.0000 C.ar    1  LIG1        0.0853
      4 C          -2.4080    0.3880    0.0000 C.ar    1  LIG1        0.0279
      5 S          -2.1130   -0.5420    0.0000 S.2     1  LIG1       -0.0541
      6 C          -3.4330    0.6630    0.0000 C.3     1  LIG1        0.0398
      7 C          -1.6000    1.9330    0.0000 C.ar    1  LIG1        0.0179
      8 C          -0.7420    2.4130    0.0000 C.ar    1  LIG1        0.0015
      9 C          -0.7250    3.4080    0.0000 C.ar    1  LIG1        0.0000
     10 C          -1.5830    3.9290    0.0000 C.ar    1  LIG1        0.0000
     11 C          -2.4330    3.4210    0.0000 C.ar    1  LIG1        0.0000
     12 C          -2.4500    2.4250    0.0000 C.ar    1  LIG1        0.0015
     13 N          -0.5380   -1.3830    0.0000 N.am    1  LIG1       -0.1543
     14 C           0.4540   -1.3830    0.0000 C.2     1  LIG1        0.2475
     15 C           0.9580   -2.2210    0.0000 C.3     1  LIG1        0.0881
     16 C           0.4830   -3.0630    0.0000 C.3     1  LIG1        0.0311
     17 C           0.9750   -3.9250    0.0000 C.2     1  LIG1       -0.0305
     18 C           1.9380   -3.9000    0.0000 C.2     1  LIG1       -0.0306
     19 C           2.4290   -3.0330    0.0000 C.3     1  LIG1        0.0277
     20 C           1.9380   -2.2210    0.0000 C.3     1  LIG1        0.0495
     21 C           2.4540   -1.3710    0.0000 C.2     1  LIG1        0.0508
     22 O           1.9790   -0.4630    0.0000 O.co2   1  LIG1       -0.5492
     23 O           3.4290   -1.4670    0.0000 O.co2   1  LIG1       -0.5492
     24 C           1.5000   -3.6250    0.0000 C.3     1  LIG1        0.0095
     25 O           0.9330   -0.5170    0.0000 O.2     1  LIG1       -0.2729
@<TRIPOS>BOND
     1     1     2   ar
     2     1     5   ar
     3     1    13    1
     4     2     3   ar
     5     3     4   ar
     6     3     7    1
     7     4     5   ar
     8     4     6    1
     9     7     8   ar
    10     7    12   ar
    11     8     9   ar
    12     9    10   ar
    13    10    11   ar
    14    11    12   ar
    15    13    14   am
    16    14    15    1
    17    14    25    2
    18    15    16    1
    19    15    20    1
    20    16    17    1
    21    16    24    1
    22    17    18    2
    23    18    19    1
    24    19    20    1
    25    19    24    1
    26    20    21    1
    27    21    22   ar
    28    21    23   ar
