@<TRIPOS>MOLECULE
25268_ChemDiv_6049-2904
 24 27 0 0 0
SMALL
GASTEIGER
Energy = 0

@<TRIPOS>ATOM
      1 C          -0.5290   -0.3170    0.0000 C.ar    1  LIG1        0.1858
      2 N          -1.5210   -0.1580    0.0000 N.ar    1  LIG1       -0.2220
      3 C          -1.6960    0.8170    0.0000 C.ar    1  LIG1        0.0958
      4 C          -2.5630    1.3000    0.0000 C.ar    1  LIG1        0.0485
      5 S          -2.7540    2.3420    0.0000 S.2     1  LIG1       -0.0740
      6 C          -3.7130    2.4460    0.0000 C.ar    1  LIG1        0.0870
      7 C          -4.1750    1.5750    0.0000 C.ar    1  LIG1        0.0185
      8 C          -3.4380    0.8580    0.0000 C.ar    1  LIG1        0.0094
      9 CL         -4.1880    3.3380    0.0000 Cl      1  LIG1       -0.0752
     10 C          -0.7960    1.2670    0.0000 C.ar    1  LIG1        0.0578
     11 S          -0.1000    0.5380    0.0000 S.2     1  LIG1       -0.0491
     12 N          -0.0290   -1.1920    0.0000 N.am    1  LIG1       -0.1543
     13 C           0.9710   -1.1920    0.0000 C.2     1  LIG1        0.2475
     14 C           1.9130   -1.5540    0.0000 C.3     1  LIG1        0.0881
     15 C           2.9960   -2.2250    0.0000 C.3     1  LIG1        0.0311
     16 C           3.1500   -3.3330    0.0000 C.2     1  LIG1       -0.0305
     17 C           3.6330   -3.3000    0.0000 C.2     1  LIG1       -0.0306
     18 C           3.5080   -2.1750    0.0000 C.3     1  LIG1        0.0277
     19 C           2.4710   -1.5130    0.0000 C.3     1  LIG1        0.0495
     20 C           2.6130   -0.5130    0.0000 C.2     1  LIG1        0.0508
     21 O           1.7920    0.1420    0.0000 O.co2   1  LIG1       -0.5492
     22 O           3.5710   -0.2210    0.0000 O.co2   1  LIG1       -0.5492
     23 C           4.1830   -1.4790    0.0000 C.3     1  LIG1        0.0095
     24 O           1.2830   -0.4960    0.0000 O.2     1  LIG1       -0.2729
@<TRIPOS>BOND
     1     1     2   ar
     2     1    11   ar
     3     1    12    1
     4     2     3   ar
     5     3     4    1
     6     3    10   ar
     7     4     5   ar
     8     4     8   ar
     9     5     6   ar
    10     6     7   ar
    11     6     9    1
    12     7     8   ar
    13    10    11   ar
    14    12    13   am
    15    13    14    1
    16    13    24    2
    17    14    15    1
    18    14    19    1
    19    15    16    1
    20    15    23    1
    21    16    17    2
    22    17    18    1
    23    18    19    1
    24    18    23    1
    25    19    20    1
    26    20    21   ar
    27    20    22   ar
