@<TRIPOS>MOLECULE
25271_ChemDiv_7151-0001
 25 26 0 0 0
SMALL
GASTEIGER
Energy = 0

@<TRIPOS>ATOM
      1 N           3.4580   -0.5170    0.0000 N.ar    1  LIG1       -0.2063
      2 C           2.8710   -1.3210    0.0000 C.ar    1  LIG1        0.1563
      3 S           3.4580   -2.1330    0.0000 S.2     1  LIG1        0.0412
      4 N           4.4080   -1.8290    0.0000 N.ar    1  LIG1       -0.1817
      5 C           4.4080   -0.8250    0.0000 C.ar    1  LIG1        0.1978
      6 S           5.2170   -0.2380    0.0000 S.3     1  LIG1       -0.0742
      7 C           6.1330   -0.6420    0.0000 C.3     1  LIG1        0.0772
      8 S           1.8710   -1.3210    0.0000 S.3     1  LIG1       -0.0785
      9 C           1.3710   -0.4580    0.0000 C.3     1  LIG1        0.1320
     10 C           0.3710   -0.4500    0.0000 C.2     1  LIG1        0.2556
     11 N          -0.1330    0.4130    0.0000 N.am    1  LIG1       -0.1785
     12 C          -1.1290    0.4130    0.0000 C.ar    1  LIG1        0.0734
     13 C          -1.6290   -0.4500    0.0000 C.ar    1  LIG1        0.0168
     14 C          -2.6290   -0.4500    0.0000 C.ar    1  LIG1        0.0078
     15 C          -3.1290    0.4080    0.0000 C.ar    1  LIG1        0.0757
     16 C          -4.1290    0.4080    0.0000 C.2     1  LIG1        0.3412
     17 O          -4.6290   -0.4580    0.0000 O.2     1  LIG1       -0.2449
     18 O          -4.6330    1.2710    0.0000 O.3     1  LIG1       -0.4454
     19 C          -5.6380    1.2670    0.0000 C.3     1  LIG1        0.2089
     20 C          -6.1330    2.1380    0.0000 C.3     1  LIG1        0.0513
     21 C          -2.6330    1.2750    0.0000 C.ar    1  LIG1        0.0078
     22 C          -1.6290    1.2750    0.0000 C.ar    1  LIG1        0.0168
     23 O          -0.1330   -1.3210    0.0000 O.2     1  LIG1       -0.2721
     24 C           1.8710    0.4130    0.0000 C.3     1  LIG1        0.0205
     25 C           1.3710    1.2750    0.0000 C.3     1  LIG1        0.0014
@<TRIPOS>BOND
     1     1     2   ar
     2     1     5   ar
     3     2     3   ar
     4     2     8    1
     5     3     4   ar
     6     4     5   ar
     7     5     6    1
     8     6     7    1
     9     8     9    1
    10     9    10    1
    11     9    24    1
    12    10    11   am
    13    10    23    2
    14    11    12    1
    15    12    13   ar
    16    12    22   ar
    17    13    14   ar
    18    14    15   ar
    19    15    16    1
    20    15    21   ar
    21    16    17    2
    22    16    18    1
    23    18    19    1
    24    19    20    1
    25    21    22   ar
    26    24    25    1
