@<TRIPOS>MOLECULE
25272_ChemDiv_8005-2972
 17 18 0 0 0
SMALL
GASTEIGER
Energy = 0

@<TRIPOS>ATOM
      1 C           0.7670   -0.6170    0.0000 C.ar    1  LIG1        0.1859
      2 N           0.4500    0.3500    0.0000 N.ar    1  LIG1       -0.2225
      3 C          -0.5630    0.3500    0.0000 C.ar    1  LIG1        0.0898
      4 C          -0.8580   -0.6290    0.0000 C.ar    1  LIG1        0.0573
      5 S          -0.0540   -1.2210    0.0000 S.2     1  LIG1       -0.0492
      6 C          -1.1500    1.1500    0.0000 C.ar    1  LIG1        0.0182
      7 C          -0.7750    2.0670    0.0000 C.ar    1  LIG1        0.0012
      8 C          -1.3420    2.8710    0.0000 C.ar    1  LIG1       -0.0042
      9 C          -2.3420    2.7710    0.0000 C.ar    1  LIG1       -0.0218
     10 C          -2.7290    1.8330    0.0000 C.ar    1  LIG1       -0.0042
     11 C          -2.1420    1.0540    0.0000 C.ar    1  LIG1        0.0012
     12 C          -2.9130    3.5670    0.0000 C.3     1  LIG1        0.0310
     13 N           1.7170   -0.9130    0.0000 N.am    1  LIG1       -0.1521
     14 C           1.9330   -1.8830    0.0000 C.2     1  LIG1        0.2809
     15 O           2.9080   -2.1170    0.0000 O.2     1  LIG1       -0.2701
     16 C           1.2210   -2.5880    0.0000 C.3     1  LIG1        0.2684
     17 O           1.4630   -3.5630    0.0000 O.3     1  LIG1       -0.2098
@<TRIPOS>BOND
     1     1     2   ar
     2     1     5   ar
     3     1    13    1
     4     2     3   ar
     5     3     4   ar
     6     3     6    1
     7     4     5   ar
     8     6     7   ar
     9     6    11   ar
    10     7     8   ar
    11     8     9   ar
    12     9    10   ar
    13     9    12    1
    14    10    11   ar
    15    13    14   am
    16    14    15    2
    17    14    16    1
    18    16    17    1
