@<TRIPOS>MOLECULE
25278_ChemDiv_8008-0615
 32 35 0 0 0
SMALL
GASTEIGER
Energy = 0

@<TRIPOS>ATOM
      1 N          -5.0460   -0.1290    0.0000 N.am    1  LIG1       -0.2081
      2 C          -5.0750   -1.0880    0.0000 C.2     1  LIG1        0.2356
      3 C          -6.0290   -1.3920    0.0000 C.3     1  LIG1        0.0956
      4 C          -6.5830   -0.5540    0.0000 C.3     1  LIG1        0.0956
      5 C          -5.9330    0.2130    0.0000 C.2     1  LIG1        0.2356
      6 O          -6.1630    1.2170    0.0000 O.2     1  LIG1       -0.2741
      7 O          -4.2580   -1.6710    0.0000 O.2     1  LIG1       -0.2741
      8 C          -4.1170    0.3880    0.0000 C.ar    1  LIG1        0.0606
      9 C          -3.3000   -0.1670    0.0000 C.ar    1  LIG1        0.0155
     10 C          -2.4170    0.3080    0.0000 C.ar    1  LIG1        0.0077
     11 C          -2.3960    1.3170    0.0000 C.ar    1  LIG1        0.0757
     12 C          -1.5170    1.8210    0.0000 C.2     1  LIG1        0.3417
     13 O          -0.6420    1.3290    0.0000 O.3     1  LIG1       -0.4352
     14 C           0.2380    1.8210    0.0000 C.3     1  LIG1        0.2949
     15 C           1.1170    1.3500    0.0000 C.2     1  LIG1        0.2919
     16 N           1.9920    1.8330    0.0000 N.am    1  LIG1       -0.1511
     17 C           2.8420    1.3500    0.0000 C.ar    1  LIG1        0.1859
     18 N           3.0670    0.3880    0.0000 N.ar    1  LIG1       -0.2225
     19 C           4.0920    0.3080    0.0000 C.ar    1  LIG1        0.0898
     20 C           4.4460    1.2170    0.0000 C.ar    1  LIG1        0.0573
     21 S           3.7170    1.9000    0.0000 S.2     1  LIG1       -0.0492
     22 C           4.6920   -0.4750    0.0000 C.ar    1  LIG1        0.0183
     23 C           5.6880   -0.3130    0.0000 C.ar    1  LIG1        0.0020
     24 C           6.3040   -1.1080    0.0000 C.ar    1  LIG1        0.0067
     25 C           5.9290   -2.0460    0.0000 C.ar    1  LIG1        0.0346
     26 C           4.9380   -2.1540    0.0000 C.ar    1  LIG1        0.0067
     27 C           4.3210   -1.3750    0.0000 C.ar    1  LIG1        0.0020
     28 BR          6.5830   -2.8380    0.0000 Br      1  LIG1       -0.0490
     29 O           1.1170    0.3880    0.0000 O.2     1  LIG1       -0.2689
     30 O          -1.5170    2.8420    0.0000 O.2     1  LIG1       -0.2449
     31 C          -3.2380    1.8500    0.0000 C.ar    1  LIG1        0.0077
     32 C          -4.1170    1.3500    0.0000 C.ar    1  LIG1        0.0155
@<TRIPOS>BOND
     1     1     2   am
     2     1     5   am
     3     1     8    1
     4     2     3    1
     5     2     7    2
     6     3     4    1
     7     4     5    1
     8     5     6    2
     9     8     9   ar
    10     8    32   ar
    11     9    10   ar
    12    10    11   ar
    13    11    12    1
    14    11    31   ar
    15    12    13    1
    16    12    30    2
    17    13    14    1
    18    14    15    1
    19    15    16   am
    20    15    29    2
    21    16    17    1
    22    17    18   ar
    23    17    21   ar
    24    18    19   ar
    25    19    20   ar
    26    19    22    1
    27    20    21   ar
    28    22    23   ar
    29    22    27   ar
    30    23    24   ar
    31    24    25   ar
    32    25    26   ar
    33    25    28    1
    34    26    27   ar
    35    31    32   ar
