@<TRIPOS>MOLECULE
25274_ChemDiv_8005-5937
 26 28 0 0 0
SMALL
GASTEIGER
Energy = 0

@<TRIPOS>ATOM
      1 N           4.5540    0.0580    0.0000 N.am    1  LIG1       -0.2187
      2 C           4.7420    1.0380    0.0000 C.2     1  LIG1        0.2323
      3 C           5.7500    1.1670    0.0000 C.3     1  LIG1        0.0953
      4 C           6.1670    0.2580    0.0000 C.3     1  LIG1        0.0953
      5 C           5.4380   -0.4080    0.0000 C.2     1  LIG1        0.2323
      6 O           5.5670   -1.4000    0.0000 O.2     1  LIG1       -0.2744
      7 O           4.0580    1.7290    0.0000 O.2     1  LIG1       -0.2744
      8 C           3.7000   -0.4580    0.0000 C.3     1  LIG1        0.2101
      9 C           2.8040    0.0130    0.0000 C.2     1  LIG1        0.3384
     10 O           2.8040    1.0130    0.0000 O.2     1  LIG1       -0.2482
     11 O           1.9460   -0.4830    0.0000 O.3     1  LIG1       -0.4371
     12 C           1.0750    0.0000    0.0000 C.3     1  LIG1        0.2946
     13 C           0.1920   -0.4920    0.0000 C.2     1  LIG1        0.2919
     14 N          -0.6960    0.0000    0.0000 N.am    1  LIG1       -0.1511
     15 C          -1.5790   -0.5170    0.0000 C.ar    1  LIG1        0.1859
     16 N          -2.5000   -0.1290    0.0000 N.ar    1  LIG1       -0.2225
     17 C          -3.1630   -0.8670    0.0000 C.ar    1  LIG1        0.0898
     18 C          -2.6540   -1.7250    0.0000 C.ar    1  LIG1        0.0573
     19 S          -1.6710   -1.5130    0.0000 S.2     1  LIG1       -0.0492
     20 C          -4.1540   -0.7880    0.0000 C.ar    1  LIG1        0.0182
     21 C          -4.5790    0.1170    0.0000 C.ar    1  LIG1        0.0015
     22 C          -5.5670    0.2000    0.0000 C.ar    1  LIG1        0.0000
     23 C          -6.1670   -0.6130    0.0000 C.ar    1  LIG1        0.0000
     24 C          -5.7210   -1.5040    0.0000 C.ar    1  LIG1        0.0000
     25 C          -4.7380   -1.5880    0.0000 C.ar    1  LIG1        0.0015
     26 O           0.2080   -1.5040    0.0000 O.2     1  LIG1       -0.2689
@<TRIPOS>BOND
     1     1     2   am
     2     1     5   am
     3     1     8    1
     4     2     3    1
     5     2     7    2
     6     3     4    1
     7     4     5    1
     8     5     6    2
     9     8     9    1
    10     9    10    2
    11     9    11    1
    12    11    12    1
    13    12    13    1
    14    13    14   am
    15    13    26    2
    16    14    15    1
    17    15    16   ar
    18    15    19   ar
    19    16    17   ar
    20    17    18   ar
    21    17    20    1
    22    18    19   ar
    23    20    21   ar
    24    20    25   ar
    25    21    22   ar
    26    22    23   ar
    27    23    24   ar
    28    24    25   ar
