@<TRIPOS>MOLECULE
25276_ChemDiv_8006-2477
 26 29 0 0 0
SMALL
GASTEIGER
Energy = 0

@<TRIPOS>ATOM
      1 C          -1.7130    0.4630    0.0000 C.ar    1  LIG1        0.1859
      2 N          -2.2210    1.2920    0.0000 N.ar    1  LIG1       -0.2225
      3 C          -3.2380    0.9960    0.0000 C.ar    1  LIG1        0.0898
      4 C          -3.2380   -0.0080    0.0000 C.ar    1  LIG1        0.0573
      5 S          -2.2960   -0.3290    0.0000 S.2     1  LIG1       -0.0492
      6 C          -4.0670    1.5750    0.0000 C.ar    1  LIG1        0.0182
      7 C          -3.9790    2.5630    0.0000 C.ar    1  LIG1        0.0015
      8 C          -4.8040    3.1210    0.0000 C.ar    1  LIG1        0.0000
      9 C          -5.7080    2.7040    0.0000 C.ar    1  LIG1        0.0000
     10 C          -5.7630    1.7130    0.0000 C.ar    1  LIG1        0.0000
     11 C          -4.9420    1.1670    0.0000 C.ar    1  LIG1        0.0015
     12 N          -0.7170    0.4630    0.0000 N.am    1  LIG1       -0.1511
     13 C          -0.2210   -0.4210    0.0000 C.2     1  LIG1        0.2918
     14 O          -0.7170   -1.2670    0.0000 O.2     1  LIG1       -0.2689
     15 C           0.7540   -0.4330    0.0000 C.3     1  LIG1        0.2916
     16 O           1.2500   -1.3080    0.0000 O.3     1  LIG1       -0.4656
     17 C           2.2500   -1.3250    0.0000 C.ar    1  LIG1        0.1393
     18 C           2.7500   -2.1960    0.0000 C.ar    1  LIG1        0.0369
     19 C           3.7670   -2.2130    0.0000 C.ar    1  LIG1        0.0030
     20 C           4.3000   -1.3630    0.0000 C.ar    1  LIG1        0.0002
     21 C           3.7920   -0.4630    0.0000 C.ar    1  LIG1        0.0031
     22 C           2.7790   -0.4630    0.0000 C.ar    1  LIG1        0.0369
     23 C           5.2960   -1.3670    0.0000 C.ar    1  LIG1        0.0000
     24 C           5.7580   -2.2670    0.0000 C.ar    1  LIG1        0.0000
     25 C           5.2380   -3.1170    0.0000 C.ar    1  LIG1        0.0000
     26 C           4.2460   -3.0750    0.0000 C.ar    1  LIG1        0.0001
@<TRIPOS>BOND
     1     1     2   ar
     2     1     5   ar
     3     1    12    1
     4     2     3   ar
     5     3     4   ar
     6     3     6    1
     7     4     5   ar
     8     6     7   ar
     9     6    11   ar
    10     7     8   ar
    11     8     9   ar
    12     9    10   ar
    13    10    11   ar
    14    12    13   am
    15    13    14    2
    16    13    15    1
    17    15    16    1
    18    16    17    1
    19    17    18   ar
    20    17    22   ar
    21    18    19   ar
    22    19    20   ar
    23    19    26   ar
    24    20    21   ar
    25    20    23   ar
    26    21    22   ar
    27    23    24   ar
    28    24    25   ar
    29    25    26   ar
