@<TRIPOS>MOLECULE
25270_ChemDiv_7100-0868
 28 30 0 0 0
SMALL
GASTEIGER
Energy = 0

@<TRIPOS>ATOM
      1 N          -1.0580   -1.2040    0.0000 N.ar    1  LIG1       -0.2228
      2 C          -0.7580   -2.1580    0.0000 C.ar    1  LIG1        0.1792
      3 S          -1.5580   -2.7380    0.0000 S.2     1  LIG1       -0.0496
      4 C          -2.3670   -2.1580    0.0000 C.ar    1  LIG1        0.0573
      5 C          -2.0670   -1.2040    0.0000 C.ar    1  LIG1        0.0898
      6 C          -2.6500   -0.3880    0.0000 C.ar    1  LIG1        0.0183
      7 C          -3.6460   -0.4960    0.0000 C.ar    1  LIG1        0.0028
      8 C          -4.2420    0.3040    0.0000 C.ar    1  LIG1        0.0166
      9 C          -3.8330    1.2290    0.0000 C.ar    1  LIG1        0.0734
     10 N          -4.4250    2.0460    0.0000 N.am    1  LIG1       -0.1792
     11 C          -5.4210    1.9290    0.0000 C.2     1  LIG1        0.2461
     12 O          -5.8210    1.0170    0.0000 O.2     1  LIG1       -0.2730
     13 C          -6.0000    2.7420    0.0000 C.3     1  LIG1        0.0968
     14 C          -2.8290    1.3420    0.0000 C.ar    1  LIG1        0.0166
     15 C          -2.2380    0.5290    0.0000 C.ar    1  LIG1        0.0028
     16 N           0.2000   -2.4670    0.0000 N.pl3   1  LIG1       -0.2144
     17 C           0.9500   -1.7880    0.0000 C.3     1  LIG1        0.1190
     18 C           1.8920   -2.1000    0.0000 C.3     1  LIG1        0.0498
     19 C           2.6290   -1.4380    0.0000 C.ar    1  LIG1       -0.0172
     20 C           3.5750   -1.7420    0.0000 C.ar    1  LIG1        0.0358
     21 C           4.3210   -1.0750    0.0000 C.ar    1  LIG1        0.1721
     22 C           4.1080   -0.1080    0.0000 C.ar    1  LIG1        0.1724
     23 C           3.1630    0.2040    0.0000 C.ar    1  LIG1        0.0397
     24 C           2.4250   -0.4580    0.0000 C.ar    1  LIG1       -0.0009
     25 O           4.8540    0.5670    0.0000 O.3     1  LIG1       -0.4684
     26 C           4.6420    1.5460    0.0000 C.3     1  LIG1        0.2526
     27 O           5.2670   -1.3880    0.0000 O.3     1  LIG1       -0.4684
     28 C           6.0000   -0.7210    0.0000 C.3     1  LIG1        0.2526
@<TRIPOS>BOND
     1     1     2   ar
     2     1     5   ar
     3     2     3   ar
     4     2    16    1
     5     3     4   ar
     6     4     5   ar
     7     5     6    1
     8     6     7   ar
     9     6    15   ar
    10     7     8   ar
    11     8     9   ar
    12     9    10    1
    13     9    14   ar
    14    10    11   am
    15    11    12    2
    16    11    13    1
    17    14    15   ar
    18    16    17    1
    19    17    18    1
    20    18    19    1
    21    19    20   ar
    22    19    24   ar
    23    20    21   ar
    24    21    22   ar
    25    21    27    1
    26    22    23   ar
    27    22    25    1
    28    23    24   ar
    29    25    26    1
    30    27    28    1
