@<TRIPOS>MOLECULE
25273_ChemDiv_7297-0011
 22 23 0 0 0
SMALL
GASTEIGER
Energy = 0

@<TRIPOS>ATOM
      1 N           3.1960   -0.5290    0.0000 N.ar    1  LIG1       -0.2063
      2 C           4.1460   -0.8580    0.0000 C.ar    1  LIG1        0.1978
      3 N           4.1420   -1.8540    0.0000 N.ar    1  LIG1       -0.1817
      4 S           3.1830   -2.1540    0.0000 S.2     1  LIG1        0.0412
      5 C           2.6040   -1.3290    0.0000 C.ar    1  LIG1        0.1564
      6 S           1.5960   -1.3250    0.0000 S.3     1  LIG1       -0.0751
      7 C           1.1130   -0.4540    0.0000 C.3     1  LIG1        0.1737
      8 C           0.1130   -0.4420    0.0000 C.2     1  LIG1        0.3330
      9 O          -0.3790    0.4330    0.0000 O.3     1  LIG1       -0.4235
     10 C          -1.3790    0.4330    0.0000 C.ar    1  LIG1        0.1486
     11 C          -1.8750   -0.4380    0.0000 C.ar    1  LIG1        0.0389
     12 C          -2.8670   -0.4380    0.0000 C.ar    1  LIG1        0.0197
     13 C          -3.3830    0.4330    0.0000 C.ar    1  LIG1        0.0736
     14 N          -4.3790    0.4330    0.0000 N.am    1  LIG1       -0.1792
     15 C          -4.8750    1.2960    0.0000 C.2     1  LIG1        0.2461
     16 O          -4.3790    2.1580    0.0000 O.2     1  LIG1       -0.2730
     17 C          -5.8710    1.2960    0.0000 C.3     1  LIG1        0.0968
     18 C          -2.8750    1.3000    0.0000 C.ar    1  LIG1        0.0197
     19 C          -1.8750    1.3000    0.0000 C.ar    1  LIG1        0.0389
     20 O          -0.4000   -1.3000    0.0000 O.2     1  LIG1       -0.2487
     21 S           5.0080   -0.3670    0.0000 S.3     1  LIG1       -0.0742
     22 C           5.8670   -0.8790    0.0000 C.3     1  LIG1        0.0772
@<TRIPOS>BOND
     1     1     2   ar
     2     1     5   ar
     3     2     3   ar
     4     2    21    1
     5     3     4   ar
     6     4     5   ar
     7     5     6    1
     8     6     7    1
     9     7     8    1
    10     8     9    1
    11     8    20    2
    12     9    10    1
    13    10    11   ar
    14    10    19   ar
    15    11    12   ar
    16    12    13   ar
    17    13    14    1
    18    13    18   ar
    19    14    15   am
    20    15    16    2
    21    15    17    1
    22    18    19   ar
    23    21    22    1
