@<TRIPOS>MOLECULE
25280_ChemDiv_8009-1105
 29 32 0 0 0
SMALL
GASTEIGER
Energy = 0

@<TRIPOS>ATOM
      1 N           3.7130   -0.3080    0.0000 N.am    1  LIG1       -0.2229
      2 C           4.6290   -0.7080    0.0000 C.2     1  LIG1        0.2551
      3 C           5.3210   -0.0420    0.0000 C.ar    1  LIG1        0.0584
      4 C           4.8710    0.8580    0.0000 C.ar    1  LIG1        0.0584
      5 C           3.9130    0.7290    0.0000 C.2     1  LIG1        0.2551
      6 O           3.1420    1.3830    0.0000 O.2     1  LIG1       -0.2695
      7 C           5.4500    1.7170    0.0000 C.ar    1  LIG1        0.0047
      8 C           6.4420    1.6540    0.0000 C.ar    1  LIG1        0.0001
      9 C           6.9040    0.7500    0.0000 C.ar    1  LIG1        0.0001
     10 C           6.3710   -0.1130    0.0000 C.ar    1  LIG1        0.0047
     11 O           4.7500   -1.7130    0.0000 O.2     1  LIG1       -0.2695
     12 C           2.8080   -0.7250    0.0000 C.3     1  LIG1        0.1015
     13 C           1.9540   -0.2170    0.0000 C.3     1  LIG1        0.0225
     14 C           1.0960   -0.6790    0.0000 C.3     1  LIG1        0.0114
     15 C           0.2290   -0.0830    0.0000 C.3     1  LIG1        0.0873
     16 C          -0.6380   -0.5500    0.0000 C.2     1  LIG1        0.2473
     17 N          -1.4830   -0.0170    0.0000 N.am    1  LIG1       -0.1543
     18 C          -2.3500   -0.4540    0.0000 C.ar    1  LIG1        0.1858
     19 N          -3.2500    0.0040    0.0000 N.ar    1  LIG1       -0.2225
     20 C          -3.9580   -0.7250    0.0000 C.ar    1  LIG1        0.0898
     21 C          -3.4880   -1.6000    0.0000 C.ar    1  LIG1        0.0573
     22 S          -2.4830   -1.4540    0.0000 S.2     1  LIG1       -0.0492
     23 C          -4.9420   -0.6380    0.0000 C.ar    1  LIG1        0.0182
     24 C          -5.5170   -1.3880    0.0000 C.ar    1  LIG1        0.0015
     25 C          -6.4830   -1.3170    0.0000 C.ar    1  LIG1        0.0000
     26 C          -6.9040   -0.4790    0.0000 C.ar    1  LIG1        0.0000
     27 C          -6.3330    0.3500    0.0000 C.ar    1  LIG1        0.0000
     28 C          -5.3580    0.2880    0.0000 C.ar    1  LIG1        0.0015
     29 O          -0.7040   -1.5630    0.0000 O.2     1  LIG1       -0.2729
@<TRIPOS>BOND
     1     1     2   am
     2     1     5   am
     3     1    12    1
     4     2     3    1
     5     2    11    2
     6     3     4   ar
     7     3    10   ar
     8     4     5    1
     9     4     7   ar
    10     5     6    2
    11     7     8   ar
    12     8     9   ar
    13     9    10   ar
    14    12    13    1
    15    13    14    1
    16    14    15    1
    17    15    16    1
    18    16    17   am
    19    16    29    2
    20    17    18    1
    21    18    19   ar
    22    18    22   ar
    23    19    20   ar
    24    20    21   ar
    25    20    23    1
    26    21    22   ar
    27    23    24   ar
    28    23    28   ar
    29    24    25   ar
    30    25    26   ar
    31    26    27   ar
    32    27    28   ar
