@<TRIPOS>MOLECULE
25298_ChemDiv_K603-0014
 21 24 0 0 0
SMALL
GASTEIGER
Energy = 0

@<TRIPOS>ATOM
      1 N           0.5170   -0.4630    0.0000 N.am    1  LIG1       -0.2081
      2 C           1.4500   -0.8710    0.0000 C.2     1  LIG1        0.2354
      3 C           2.1040   -0.1290    0.0000 C.3     1  LIG1        0.0907
      4 C           1.6000    0.7380    0.0000 C.3     1  LIG1        0.0903
      5 C           0.6210    0.5130    0.0000 C.2     1  LIG1        0.2354
      6 O          -0.1330    1.1920    0.0000 O.2     1  LIG1       -0.2741
      7 C           2.0880    1.6000    0.0000 C.3     1  LIG1        0.0308
      8 C           3.0960    1.6170    0.0000 C.2     1  LIG1       -0.0305
      9 C           3.6000    0.7380    0.0000 C.2     1  LIG1       -0.0302
     10 C           3.1000   -0.1250    0.0000 C.3     1  LIG1        0.0353
     11 C           1.5750    2.4630    0.0000 C.3     1  LIG1        0.0052
     12 O           1.6670   -1.8540    0.0000 O.2     1  LIG1       -0.2741
     13 C          -0.3460   -0.9500    0.0000 C.ar    1  LIG1        0.0603
     14 C          -1.2080   -0.4500    0.0000 C.ar    1  LIG1        0.0107
     15 C          -2.0630   -0.9500    0.0000 C.ar    1  LIG1       -0.0249
     16 C          -2.0630   -1.9580    0.0000 C.ar    1  LIG1       -0.0260
     17 C          -1.2080   -2.4580    0.0000 C.ar    1  LIG1       -0.0033
     18 C          -0.3460   -1.9630    0.0000 C.ar    1  LIG1        0.0150
     19 C          -3.0170   -2.2630    0.0000 C.3     1  LIG1        0.0264
     20 C          -3.6040   -1.4630    0.0000 C.3     1  LIG1        0.0093
     21 C          -3.0170   -0.6500    0.0000 C.3     1  LIG1        0.0264
@<TRIPOS>BOND
     1     1     2   am
     2     1     5   am
     3     1    13    1
     4     2     3    1
     5     2    12    2
     6     3     4    1
     7     3    10    1
     8     4     5    1
     9     4     7    1
    10     5     6    2
    11     7     8    1
    12     7    11    1
    13     8     9    2
    14     9    10    1
    15    13    14   ar
    16    13    18   ar
    17    14    15   ar
    18    15    16   ar
    19    15    21    1
    20    16    17   ar
    21    16    19    1
    22    17    18   ar
    23    19    20    1
    24    20    21    1
