@<TRIPOS>MOLECULE
25293_ChemDiv_0443-0198
 34 37 0 0 0
SMALL
GASTEIGER
Energy = 0

@<TRIPOS>ATOM
      1 C           1.9960   -0.3630    0.0000 C.ar    1  LIG1        0.0566
      2 C           2.5170    0.5250    0.0000 C.2     1  LIG1        0.2491
      3 N           1.9960    1.3710    0.0000 N.am    1  LIG1       -0.2761
      4 C           2.4830    2.2250    0.0000 C.3     1  LIG1        0.0938
      5 C           1.9580    3.0500    0.0000 C.3     1  LIG1        0.0233
      6 C           1.0130    1.3500    0.0000 C.3     1  LIG1        0.0938
      7 C           0.5330    0.5000    0.0000 C.3     1  LIG1        0.0233
      8 O           3.5380    0.5000    0.0000 O.2     1  LIG1       -0.2699
      9 C           0.9830   -0.3630    0.0000 C.ar    1  LIG1        0.0252
     10 C           0.5330   -1.2460    0.0000 C.ar    1  LIG1        0.0990
     11 N           1.0130   -2.1080    0.0000 N.ar    1  LIG1       -0.2438
     12 C           2.0330   -2.0830    0.0000 C.ar    1  LIG1        0.0814
     13 C           2.5170   -1.2080    0.0000 C.ar    1  LIG1        0.0221
     14 C           3.4960   -1.2080    0.0000 C.ar    1  LIG1        0.0016
     15 C           4.0040   -2.0830    0.0000 C.ar    1  LIG1        0.0001
     16 C           3.5380   -2.9290    0.0000 C.ar    1  LIG1        0.0015
     17 C           2.5420   -2.9540    0.0000 C.ar    1  LIG1        0.0191
     18 C          -0.4880   -1.2790    0.0000 C.ar    1  LIG1        0.0990
     19 N          -0.9670   -2.1460    0.0000 N.ar    1  LIG1       -0.2438
     20 C          -1.9880   -2.1790    0.0000 C.ar    1  LIG1        0.0814
     21 C          -2.5080   -1.3040    0.0000 C.ar    1  LIG1        0.0221
     22 C          -1.9880   -0.4330    0.0000 C.ar    1  LIG1        0.0566
     23 C          -2.5080    0.4420    0.0000 C.2     1  LIG1        0.2491
     24 N          -2.0210    1.3080    0.0000 N.am    1  LIG1       -0.2761
     25 C          -2.5330    2.1500    0.0000 C.3     1  LIG1        0.0938
     26 C          -3.5380    2.1500    0.0000 C.3     1  LIG1        0.0233
     27 C          -1.0290    1.3460    0.0000 C.3     1  LIG1        0.0938
     28 C          -0.5630    2.2080    0.0000 C.3     1  LIG1        0.0233
     29 O          -3.5210    0.4420    0.0000 O.2     1  LIG1       -0.2699
     30 C          -1.0040   -0.4000    0.0000 C.ar    1  LIG1        0.0252
     31 C          -3.4880   -1.3040    0.0000 C.ar    1  LIG1        0.0016
     32 C          -4.0080   -2.1790    0.0000 C.ar    1  LIG1        0.0001
     33 C          -3.4630   -3.0460    0.0000 C.ar    1  LIG1        0.0015
     34 C          -2.4710   -3.0460    0.0000 C.ar    1  LIG1        0.0191
@<TRIPOS>BOND
     1     1     2    1
     2     1     9   ar
     3     1    13   ar
     4     2     3   am
     5     2     8    2
     6     3     4    1
     7     3     6    1
     8     4     5    1
     9     6     7    1
    10     9    10   ar
    11    10    11   ar
    12    10    18    1
    13    11    12   ar
    14    12    13   ar
    15    12    17   ar
    16    13    14   ar
    17    14    15   ar
    18    15    16   ar
    19    16    17   ar
    20    18    19   ar
    21    18    30   ar
    22    19    20   ar
    23    20    21   ar
    24    20    34   ar
    25    21    22   ar
    26    21    31   ar
    27    22    23    1
    28    22    30   ar
    29    23    24   am
    30    23    29    2
    31    24    25    1
    32    24    27    1
    33    25    26    1
    34    27    28    1
    35    31    32   ar
    36    32    33   ar
    37    33    34   ar
