@<TRIPOS>MOLECULE
25308_ChemDiv_K655-0102
 28 32 0 0 0
SMALL
GASTEIGER
Energy = 0

@<TRIPOS>ATOM
      1 N           0.9830    1.3080    0.0000 N.am    1  LIG1       -0.2081
      2 C           1.1830    2.2710    0.0000 C.2     1  LIG1        0.2354
      3 C           2.1670    2.4000    0.0000 C.3     1  LIG1        0.0903
      4 C           2.5920    1.4920    0.0000 C.3     1  LIG1        0.0903
      5 C           1.8580    0.8080    0.0000 C.2     1  LIG1        0.2354
      6 O           1.9880   -0.1880    0.0000 O.2     1  LIG1       -0.2741
      7 C           3.5750    1.4290    0.0000 C.3     1  LIG1        0.0311
      8 C           4.1670    2.2330    0.0000 C.2     1  LIG1       -0.0305
      9 C           3.7420    3.1420    0.0000 C.2     1  LIG1       -0.0305
     10 C           2.7420    3.2170    0.0000 C.3     1  LIG1        0.0311
     11 C           2.9380    2.2330    0.0000 C.3     1  LIG1        0.0096
     12 O           0.4880    3.0130    0.0000 O.2     1  LIG1       -0.2741
     13 C           0.1380    0.7960    0.0000 C.ar    1  LIG1        0.0608
     14 C           0.1500   -0.2040    0.0000 C.ar    1  LIG1        0.0198
     15 C          -0.7080   -0.7210    0.0000 C.ar    1  LIG1        0.0548
     16 C          -0.7080   -1.7130    0.0000 C.2     1  LIG1        0.2491
     17 N          -1.5710   -2.2130    0.0000 N.am    1  LIG1       -0.2760
     18 C          -2.4380   -1.7080    0.0000 C.3     1  LIG1        0.0757
     19 C          -3.3130   -2.1960    0.0000 C.3     1  LIG1        0.0198
     20 C          -4.1710   -1.6830    0.0000 C.3     1  LIG1        0.0017
     21 C          -4.1710   -0.7040    0.0000 C.3     1  LIG1        0.0001
     22 C          -3.3130   -0.2040    0.0000 C.3     1  LIG1        0.0017
     23 C          -2.4380   -0.7210    0.0000 C.3     1  LIG1        0.0198
     24 C          -1.5710   -3.2130    0.0000 C.3     1  LIG1        0.1151
     25 O           0.1710   -2.2130    0.0000 O.2     1  LIG1       -0.2699
     26 C          -1.5880   -0.2210    0.0000 C.ar    1  LIG1        0.0046
     27 C          -1.5880    0.7880    0.0000 C.ar    1  LIG1        0.0014
     28 C          -0.7380    1.2920    0.0000 C.ar    1  LIG1        0.0153
@<TRIPOS>BOND
     1     1     2   am
     2     1     5   am
     3     1    13    1
     4     2     3    1
     5     2    12    2
     6     3     4    1
     7     3    10    1
     8     4     5    1
     9     4     7    1
    10     5     6    2
    11     7     8    1
    12     7    11    1
    13     8     9    2
    14     9    10    1
    15    10    11    1
    16    13    14   ar
    17    13    28   ar
    18    14    15   ar
    19    15    16    1
    20    15    26   ar
    21    16    17   am
    22    16    25    2
    23    17    18    1
    24    17    24    1
    25    18    19    1
    26    18    23    1
    27    19    20    1
    28    20    21    1
    29    21    22    1
    30    22    23    1
    31    26    27   ar
    32    27    28   ar
