@<TRIPOS>MOLECULE
25300_ChemDiv_K603-0038
 20 22 0 0 0
SMALL
GASTEIGER
Energy = 0

@<TRIPOS>ATOM
      1 N           0.1790    0.0420    0.0000 N.am    1  LIG1       -0.2081
      2 C           1.1080   -0.3670    0.0000 C.2     1  LIG1        0.2354
      3 C           1.7670    0.3710    0.0000 C.3     1  LIG1        0.0907
      4 C           1.2630    1.2420    0.0000 C.3     1  LIG1        0.0903
      5 C           0.2830    1.0130    0.0000 C.2     1  LIG1        0.2354
      6 O          -0.4750    1.6920    0.0000 O.2     1  LIG1       -0.2741
      7 C           1.7500    2.1000    0.0000 C.3     1  LIG1        0.0308
      8 C           2.7580    2.1170    0.0000 C.2     1  LIG1       -0.0305
      9 C           3.2630    1.2420    0.0000 C.2     1  LIG1       -0.0302
     10 C           2.7630    0.3790    0.0000 C.3     1  LIG1        0.0353
     11 C           1.2380    2.9630    0.0000 C.3     1  LIG1        0.0052
     12 O           1.3250   -1.3500    0.0000 O.2     1  LIG1       -0.2741
     13 C          -0.6830   -0.4500    0.0000 C.ar    1  LIG1        0.0603
     14 C          -0.6830   -1.4460    0.0000 C.ar    1  LIG1        0.0108
     15 C          -1.5460   -1.9460    0.0000 C.ar    1  LIG1       -0.0245
     16 C          -2.4000   -1.4580    0.0000 C.ar    1  LIG1       -0.0257
     17 C          -2.4040   -0.4500    0.0000 C.ar    1  LIG1       -0.0033
     18 C          -1.5460    0.0420    0.0000 C.ar    1  LIG1        0.0150
     19 C          -3.2670   -1.9630    0.0000 C.3     1  LIG1        0.0307
     20 C          -1.5460   -2.9580    0.0000 C.3     1  LIG1        0.0307
@<TRIPOS>BOND
     1     1     2   am
     2     1     5   am
     3     1    13    1
     4     2     3    1
     5     2    12    2
     6     3     4    1
     7     3    10    1
     8     4     5    1
     9     4     7    1
    10     5     6    2
    11     7     8    1
    12     7    11    1
    13     8     9    2
    14     9    10    1
    15    13    14   ar
    16    13    18   ar
    17    14    15   ar
    18    15    16   ar
    19    15    20    1
    20    16    17   ar
    21    16    19    1
    22    17    18   ar
