@<TRIPOS>MOLECULE
25324_ChemDiv_0590-0316
 30 32 0 0 0
SMALL
GASTEIGER
Energy = 0

@<TRIPOS>ATOM
      1 S           2.9040    0.3790    0.0000 S.O2    1  LIG1        0.0633
      2 C           1.8880    0.4460    0.0000 C.ar    1  LIG1        0.1222
      3 C           1.4210    1.3250    0.0000 C.ar    1  LIG1        0.0201
      4 C           0.4130    1.3250    0.0000 C.ar    1  LIG1        0.0059
      5 C          -0.1460    0.4710    0.0000 C.ar    1  LIG1        0.0555
      6 C          -1.1250    0.4460    0.0000 C.2     1  LIG1        0.2707
      7 N          -1.6540    1.3000    0.0000 N.am    1  LIG1       -0.1505
      8 C          -2.6420    1.2830    0.0000 C.ar    1  LIG1        0.1861
      9 N          -3.2250    0.4710    0.0000 N.ar    1  LIG1       -0.2194
     10 C          -4.1540    0.7580    0.0000 C.ar    1  LIG1        0.1231
     11 C          -4.1540    1.7790    0.0000 C.ar    1  LIG1        0.0528
     12 S          -3.2250    2.0710    0.0000 S.2     1  LIG1       -0.0496
     13 C          -5.0250    2.2710    0.0000 C.ar    1  LIG1        0.0083
     14 C          -5.9000    1.7790    0.0000 C.ar    1  LIG1        0.0037
     15 C          -5.9000    0.7580    0.0000 C.ar    1  LIG1        0.0385
     16 C          -5.0250    0.2630    0.0000 C.ar    1  LIG1        0.1567
     17 O          -5.0750   -0.5670    0.0000 O.3     1  LIG1       -0.4699
     18 C          -5.9710   -1.0040    0.0000 C.3     1  LIG1        0.2525
     19 O          -1.6250   -0.4670    0.0000 O.2     1  LIG1       -0.2679
     20 C           0.3580   -0.4210    0.0000 C.ar    1  LIG1        0.0059
     21 C           1.3580   -0.4210    0.0000 C.ar    1  LIG1        0.0201
     22 N           3.9040    0.4080    0.0000 N.3     1  LIG1       -0.1555
     23 C           4.4170   -0.5210    0.0000 C.3     1  LIG1        0.0958
     24 C           3.8500   -1.3750    0.0000 C.3     1  LIG1        0.0191
     25 C           4.3130   -2.2670    0.0000 C.3     1  LIG1        0.0015
     26 C           4.4330    1.2460    0.0000 C.3     1  LIG1        0.0958
     27 C           5.4500    1.2460    0.0000 C.3     1  LIG1        0.0191
     28 C           5.9670    2.1000    0.0000 C.3     1  LIG1        0.0015
     29 O           2.8880   -0.6130    0.0000 O.2     1  LIG1       -0.1528
     30 O           2.9460    1.3960    0.0000 O.2     1  LIG1       -0.1528
@<TRIPOS>BOND
     1     1     2    1
     2     1    22    1
     3     1    29    2
     4     1    30    2
     5     2     3   ar
     6     2    21   ar
     7     3     4   ar
     8     4     5   ar
     9     5     6    1
    10     5    20   ar
    11     6     7   am
    12     6    19    2
    13     7     8    1
    14     8     9   ar
    15     8    12   ar
    16     9    10   ar
    17    10    11   ar
    18    10    16   ar
    19    11    12   ar
    20    11    13   ar
    21    13    14   ar
    22    14    15   ar
    23    15    16   ar
    24    16    17    1
    25    17    18    1
    26    20    21   ar
    27    22    23    1
    28    22    26    1
    29    23    24    1
    30    24    25    1
    31    26    27    1
    32    27    28    1
