@<TRIPOS>MOLECULE
25328_ChemDiv_D103-1794
 28 31 0 0 0
SMALL
GASTEIGER
Energy = 0

@<TRIPOS>ATOM
      1 C           0.2040    1.4830    0.0000 C.ar    1  LIG1        0.1861
      2 N           0.0790    2.4790    0.0000 N.ar    1  LIG1       -0.2225
      3 C          -0.8920    2.6750    0.0000 C.ar    1  LIG1        0.0895
      4 C          -1.3920    1.8170    0.0000 C.ar    1  LIG1        0.0528
      5 S          -0.7210    1.0750    0.0000 S.2     1  LIG1       -0.0496
      6 C          -2.3830    1.8170    0.0000 C.ar    1  LIG1        0.0450
      7 C          -2.8880    2.6750    0.0000 C.ar    1  LIG1        0.1391
      8 C          -2.3880    3.5380    0.0000 C.ar    1  LIG1        0.0385
      9 C          -1.3920    3.5460    0.0000 C.ar    1  LIG1        0.0228
     10 O          -3.8880    2.6670    0.0000 O.3     1  LIG1       -0.4754
     11 C          -4.3790    1.8000    0.0000 C.3     1  LIG1        0.2055
     12 C          -5.3790    1.8000    0.0000 C.3     1  LIG1        0.0512
     13 N           1.0630    0.9830    0.0000 N.am    1  LIG1       -0.1479
     14 C           1.0630   -0.0170    0.0000 C.2     1  LIG1        0.3055
     15 C           1.9250   -0.5290    0.0000 C.ar    1  LIG1        0.2035
     16 O           1.9250   -1.5290    0.0000 O.2     1  LIG1       -0.4489
     17 C           2.7830   -2.0290    0.0000 C.ar    1  LIG1        0.1445
     18 C           3.6500   -1.5380    0.0000 C.ar    1  LIG1        0.0729
     19 C           3.6670   -0.5290    0.0000 C.ar    1  LIG1        0.2018
     20 C           2.8000   -0.0250    0.0000 C.ar    1  LIG1        0.0844
     21 O           4.5380   -0.0420    0.0000 O.2     1  LIG1       -0.2864
     22 C           4.5250   -2.0420    0.0000 C.ar    1  LIG1        0.0020
     23 C           4.5130   -3.0420    0.0000 C.ar    1  LIG1       -0.0219
     24 C           3.6380   -3.5420    0.0000 C.ar    1  LIG1       -0.0055
     25 C           2.7750   -3.0250    0.0000 C.ar    1  LIG1        0.0125
     26 C           1.9130   -3.5210    0.0000 C.3     1  LIG1        0.0342
     27 C           5.3750   -3.5420    0.0000 C.3     1  LIG1        0.0310
     28 O           0.2040   -0.5290    0.0000 O.2     1  LIG1       -0.2646
@<TRIPOS>BOND
     1     1     2   ar
     2     1     5   ar
     3     1    13    1
     4     2     3   ar
     5     3     4   ar
     6     3     9   ar
     7     4     5   ar
     8     4     6   ar
     9     6     7   ar
    10     7     8   ar
    11     7    10    1
    12     8     9   ar
    13    10    11    1
    14    11    12    1
    15    13    14   am
    16    14    15    1
    17    14    28    2
    18    15    16   ar
    19    15    20   ar
    20    16    17   ar
    21    17    18   ar
    22    17    25   ar
    23    18    19   ar
    24    18    22   ar
    25    19    20   ar
    26    19    21    2
    27    22    23   ar
    28    23    24   ar
    29    23    27    1
    30    24    25   ar
    31    25    26    1
