@<TRIPOS>MOLECULE
25334_ChemDiv_0557-0504
 27 30 0 0 0
SMALL
GASTEIGER
Energy = 0

@<TRIPOS>ATOM
      1 N          -2.5420   -0.7750    0.0000 N.am    1  LIG1       -0.2011
      2 C          -2.3960   -1.7250    0.0000 C.2     1  LIG1        0.2589
      3 C          -3.2630   -2.1750    0.0000 C.ar    1  LIG1        0.0587
      4 C          -3.9830   -1.4630    0.0000 C.ar    1  LIG1        0.0587
      5 C          -3.5250   -0.5880    0.0000 C.2     1  LIG1        0.2589
      6 O          -3.9830    0.3130    0.0000 O.2     1  LIG1       -0.2691
      7 C          -4.9250   -1.7250    0.0000 C.ar    1  LIG1        0.0047
      8 C          -5.1880   -2.6880    0.0000 C.ar    1  LIG1        0.0002
      9 C          -4.4920   -3.3750    0.0000 C.ar    1  LIG1        0.0002
     10 C          -3.5250   -3.1130    0.0000 C.ar    1  LIG1        0.0047
     11 O          -1.4960   -2.1750    0.0000 O.2     1  LIG1       -0.2691
     12 C          -1.7420   -0.1670    0.0000 C.ar    1  LIG1        0.0612
     13 C          -1.8540    0.8130    0.0000 C.ar    1  LIG1        0.0154
     14 C          -1.0380    1.3960    0.0000 C.ar    1  LIG1        0.0044
     15 C          -0.1210    1.0250    0.0000 C.ar    1  LIG1        0.0418
     16 C           0.6960    1.6080    0.0000 C.2     1  LIG1        0.2511
     17 C           1.5960    1.2380    0.0000 C.3     1  LIG1        0.3922
     18 N           2.3880    1.7920    0.0000 N.ar    1  LIG1       -0.1529
     19 C           3.2880    1.3960    0.0000 C.ar    1  LIG1        0.2860
     20 C           4.0960    2.0040    0.0000 C.ar    1  LIG1        0.0480
     21 C           3.9960    2.9580    0.0000 C.ar    1  LIG1        0.0081
     22 C           3.1080    3.3790    0.0000 C.ar    1  LIG1        0.0755
     23 C           2.2630    2.8040    0.0000 C.ar    1  LIG1        0.2905
     24 C           5.1830    1.6000    0.0000 C.3     1  LIG1        0.0375
     25 O           0.5670    2.6250    0.0000 O.2     1  LIG1       -0.2840
     26 C           0.0080    0.0460    0.0000 C.ar    1  LIG1        0.0044
     27 C          -0.8080   -0.5630    0.0000 C.ar    1  LIG1        0.0154
@<TRIPOS>BOND
     1     1     2   am
     2     1     5   am
     3     1    12    1
     4     2     3    1
     5     2    11    2
     6     3     4   ar
     7     3    10   ar
     8     4     5    1
     9     4     7   ar
    10     5     6    2
    11     7     8   ar
    12     8     9   ar
    13     9    10   ar
    14    12    13   ar
    15    12    27   ar
    16    13    14   ar
    17    14    15   ar
    18    15    16    1
    19    15    26   ar
    20    16    17    1
    21    16    25    2
    22    17    18    1
    23    18    19   ar
    24    18    23   ar
    25    19    20   ar
    26    20    21   ar
    27    20    24    1
    28    21    22   ar
    29    22    23   ar
    30    26    27   ar
