@<TRIPOS>MOLECULE
25346_ChemDiv_D103-2389
 24 27 0 0 0
SMALL
GASTEIGER
Energy = 0

@<TRIPOS>ATOM
      1 C          -0.1210    1.4670    0.0000 C.ar    1  LIG1        0.1861
      2 N          -0.2380    2.4670    0.0000 N.ar    1  LIG1       -0.2225
      3 C          -1.2170    2.6750    0.0000 C.ar    1  LIG1        0.0894
      4 C          -1.7170    1.8040    0.0000 C.ar    1  LIG1        0.0506
      5 S          -1.0420    1.0580    0.0000 S.2     1  LIG1       -0.0497
      6 C          -2.7040    1.8000    0.0000 C.ar    1  LIG1        0.0195
      7 C          -3.2130    2.6630    0.0000 C.ar    1  LIG1        0.0583
      8 C          -2.7130    3.5290    0.0000 C.ar    1  LIG1        0.0130
      9 C          -1.7170    3.5380    0.0000 C.ar    1  LIG1        0.0205
     10 CL         -4.2080    2.6630    0.0000 Cl      1  LIG1       -0.0822
     11 N           0.7460    0.9710    0.0000 N.am    1  LIG1       -0.1479
     12 C           0.7460   -0.0290    0.0000 C.2     1  LIG1        0.3055
     13 C           1.6080   -0.5380    0.0000 C.ar    1  LIG1        0.2035
     14 C           2.4670   -0.0290    0.0000 C.ar    1  LIG1        0.0844
     15 C           3.3420   -0.5420    0.0000 C.ar    1  LIG1        0.2018
     16 C           3.3290   -1.5380    0.0000 C.ar    1  LIG1        0.0735
     17 C           2.4540   -2.0330    0.0000 C.ar    1  LIG1        0.1485
     18 O           1.6040   -1.5330    0.0000 O.2     1  LIG1       -0.4486
     19 C           2.4540   -3.0290    0.0000 C.ar    1  LIG1        0.0376
     20 C           3.3170   -3.5330    0.0000 C.ar    1  LIG1        0.0031
     21 C           4.1880   -3.0460    0.0000 C.ar    1  LIG1        0.0003
     22 C           4.1920   -2.0380    0.0000 C.ar    1  LIG1        0.0062
     23 O           4.2040   -0.0420    0.0000 O.2     1  LIG1       -0.2864
     24 O          -0.1210   -0.5380    0.0000 O.2     1  LIG1       -0.2646
@<TRIPOS>BOND
     1     1     2   ar
     2     1     5   ar
     3     1    11    1
     4     2     3   ar
     5     3     4   ar
     6     3     9   ar
     7     4     5   ar
     8     4     6   ar
     9     6     7   ar
    10     7     8   ar
    11     7    10    1
    12     8     9   ar
    13    11    12   am
    14    12    13    1
    15    12    24    2
    16    13    14   ar
    17    13    18   ar
    18    14    15   ar
    19    15    16   ar
    20    15    23    2
    21    16    17   ar
    22    16    22   ar
    23    17    18   ar
    24    17    19   ar
    25    19    20   ar
    26    20    21   ar
    27    21    22   ar
