@<TRIPOS>MOLECULE
25340_ChemDiv_0570-0041
 16 17 0 0 0
SMALL
GASTEIGER
Energy = 0

@<TRIPOS>ATOM
      1 C           0.8630   -1.6630    0.0000 C.ar    1  LIG1        0.0844
      2 S           0.3000   -2.4750    0.0000 S.2     1  LIG1       -0.0824
      3 C          -0.6460   -2.1750    0.0000 C.ar    1  LIG1        0.0296
      4 C          -0.6460   -1.1420    0.0000 C.ar    1  LIG1        0.0066
      5 C           0.3000   -0.8500    0.0000 C.ar    1  LIG1        0.0116
      6 C          -1.5210   -0.6630    0.0000 C.ar    1  LIG1        0.0005
      7 C          -2.3830   -1.1420    0.0000 C.ar    1  LIG1        0.0000
      8 C          -2.3830   -2.1750    0.0000 C.ar    1  LIG1        0.0005
      9 C          -1.5210   -2.6670    0.0000 C.ar    1  LIG1        0.0065
     10 C           1.8960   -1.6630    0.0000 C.2     1  LIG1        0.2708
     11 O           2.3790   -2.5290    0.0000 O.2     1  LIG1       -0.2678
     12 N           2.3790   -0.8000    0.0000 N.am    1  LIG1       -0.2012
     13 C           1.8960    0.0750    0.0000 C.3     1  LIG1        0.1155
     14 C           2.3790    0.9380    0.0000 C.3     1  LIG1        0.0234
     15 C           1.8960    1.8000    0.0000 C.3     1  LIG1        0.0018
     16 C           2.3790    2.6710    0.0000 C.3     1  LIG1        0.0001
@<TRIPOS>BOND
     1     1     2   ar
     2     1     5   ar
     3     1    10    1
     4     2     3   ar
     5     3     4   ar
     6     3     9   ar
     7     4     5   ar
     8     4     6   ar
     9     6     7   ar
    10     7     8   ar
    11     8     9   ar
    12    10    11    2
    13    10    12   am
    14    12    13    1
    15    13    14    1
    16    14    15    1
    17    15    16    1
