@<TRIPOS>MOLECULE
25351_ChemDiv_1080-0556
 28 31 0 0 0
SMALL
GASTEIGER
Energy = 0

@<TRIPOS>ATOM
      1 C          -0.7040    0.3580    0.0000 C.3     1  LIG1        0.0551
      2 C          -0.2040   -0.3920    0.0000 C.3     1  LIG1        0.1182
      3 C           0.2750    0.3500    0.0000 C.3     1  LIG1        0.1182
      4 C          -0.7290    1.6920    0.0000 C.3     1  LIG1        0.0551
      5 C          -1.4630    1.4880    0.0000 C.ar    1  LIG1       -0.0215
      6 C          -1.4630    0.5540    0.0000 C.ar    1  LIG1       -0.0215
      7 C          -2.2630    0.0960    0.0000 C.ar    1  LIG1       -0.0042
      8 C          -3.0670    0.5710    0.0000 C.ar    1  LIG1       -0.0003
      9 C          -3.0670    1.4880    0.0000 C.ar    1  LIG1       -0.0003
     10 C          -2.2630    1.9540    0.0000 C.ar    1  LIG1       -0.0042
     11 C          -0.2250    2.3750    0.0000 C.ar    1  LIG1       -0.0215
     12 C           0.2920    1.6540    0.0000 C.ar    1  LIG1       -0.0215
     13 C           1.3330    1.7080    0.0000 C.ar    1  LIG1       -0.0042
     14 C           1.7290    2.6290    0.0000 C.ar    1  LIG1       -0.0003
     15 C           1.1460    3.4540    0.0000 C.ar    1  LIG1       -0.0003
     16 C           0.1500    3.3460    0.0000 C.ar    1  LIG1       -0.0042
     17 C           1.1920   -0.0290    0.0000 C.2     1  LIG1        0.3175
     18 O           1.3540   -1.0290    0.0000 O.3     1  LIG1       -0.4523
     19 C           2.2960   -1.3790    0.0000 C.3     1  LIG1        0.1691
     20 C           3.0630   -0.7330    0.0000 C.3     1  LIG1        0.0473
     21 C           2.4630   -2.3630    0.0000 C.3     1  LIG1        0.0473
     22 O           1.9960    0.5540    0.0000 O.2     1  LIG1       -0.2501
     23 C          -0.2040   -1.3920    0.0000 C.2     1  LIG1        0.3175
     24 O          -1.0460   -1.9290    0.0000 O.3     1  LIG1       -0.4523
     25 C          -1.0040   -2.9250    0.0000 C.3     1  LIG1        0.1691
     26 C          -1.8420   -3.4500    0.0000 C.3     1  LIG1        0.0473
     27 C          -0.1460   -3.3880    0.0000 C.3     1  LIG1        0.0473
     28 O           0.6670   -1.8830    0.0000 O.2     1  LIG1       -0.2501
@<TRIPOS>BOND
     1     1     2    1
     2     1     6    1
     3     1    12    1
     4     2     3    1
     5     2    23    1
     6     3     4    1
     7     3    17    1
     8     4     5    1
     9     4    11    1
    10     5     6   ar
    11     5    10   ar
    12     6     7   ar
    13     7     8   ar
    14     8     9   ar
    15     9    10   ar
    16    11    12   ar
    17    11    16   ar
    18    12    13   ar
    19    13    14   ar
    20    14    15   ar
    21    15    16   ar
    22    17    18    1
    23    17    22    2
    24    18    19    1
    25    19    20    1
    26    19    21    1
    27    23    24    1
    28    23    28    2
    29    24    25    1
    30    25    26    1
    31    25    27    1
