@<TRIPOS>MOLECULE
25352_ChemDiv_D233-0731
 28 30 0 0 0
SMALL
GASTEIGER
Energy = 0

@<TRIPOS>ATOM
      1 C          -0.4960    0.4460    0.0000 C.ar    1  LIG1        0.1658
      2 N          -1.0960    1.2630    0.0000 N.ar    1  LIG1       -0.2239
      3 C          -2.0460    0.9500    0.0000 C.ar    1  LIG1        0.0893
      4 C          -2.0500   -0.0500    0.0000 C.ar    1  LIG1        0.0510
      5 S          -1.1000   -0.3630    0.0000 S.2     1  LIG1       -0.0513
      6 C          -2.9080   -0.5330    0.0000 C.ar    1  LIG1        0.0264
      7 C          -3.7670   -0.0380    0.0000 C.ar    1  LIG1        0.1063
      8 S          -4.6420   -0.5330    0.0000 S.O2    1  LIG1        0.0105
      9 O          -5.1420    0.3250    0.0000 O.2     1  LIG1       -0.1686
     10 O          -4.1420   -1.4040    0.0000 O.2     1  LIG1       -0.1686
     11 C          -5.5040   -1.0330    0.0000 C.3     1  LIG1        0.1816
     12 C          -3.7670    0.9580    0.0000 C.ar    1  LIG1        0.0199
     13 C          -2.9040    1.4580    0.0000 C.ar    1  LIG1        0.0210
     14 N           0.5040    0.4460    0.0000 N.am    1  LIG1       -0.2593
     15 C           1.0040   -0.4290    0.0000 C.2     1  LIG1        0.2696
     16 C           2.0000   -0.4290    0.0000 C.ar    1  LIG1        0.1489
     17 N           2.5000    0.4330    0.0000 N.ar    1  LIG1       -0.2157
     18 C           3.5040    0.4380    0.0000 C.ar    1  LIG1        0.1902
     19 N           4.0040   -0.4380    0.0000 N.ar    1  LIG1       -0.2188
     20 C           3.4960   -1.3040    0.0000 C.ar    1  LIG1        0.1141
     21 C           2.5000   -1.3000    0.0000 C.ar    1  LIG1        0.0989
     22 CL          1.9960   -2.1630    0.0000 Cl      1  LIG1       -0.0789
     23 S           4.0040    1.3080    0.0000 S.3     1  LIG1       -0.0766
     24 C           5.0040    1.3080    0.0000 C.3     1  LIG1        0.0549
     25 C           5.5000    2.1670    0.0000 C.3     1  LIG1        0.0121
     26 C           5.5000    0.4380    0.0000 C.3     1  LIG1        0.0121
     27 O           0.5000   -1.2880    0.0000 O.2     1  LIG1       -0.2681
     28 H           1.0040    1.3080    0.0000 H       1  LIG1        0.1571
@<TRIPOS>BOND
     1     1     2   ar
     2     1     5   ar
     3     1    14    1
     4     2     3   ar
     5     3     4   ar
     6     3    13   ar
     7     4     5   ar
     8     4     6   ar
     9     6     7   ar
    10     7     8    1
    11     7    12   ar
    12     8     9    2
    13     8    10    2
    14     8    11    1
    15    12    13   ar
    16    14    15   am
    17    14    28    1
    18    15    16    1
    19    15    27    2
    20    16    17   ar
    21    16    21   ar
    22    17    18   ar
    23    18    19   ar
    24    18    23    1
    25    19    20   ar
    26    20    21   ar
    27    21    22    1
    28    23    24    1
    29    24    25    1
    30    24    26    1
