@<TRIPOS>MOLECULE
25359_ChemDiv_1502-0790
 16 17 0 0 0
SMALL
GASTEIGER
Energy = 0

@<TRIPOS>ATOM
      1 N          -0.1460    0.2750    0.0000 N.ar    1  LIG1       -0.2413
      2 C           0.4500    1.0830    0.0000 C.ar    1  LIG1        0.2543
      3 O          -0.1460    1.8880    0.0000 O.2     1  LIG1       -0.4305
      4 C          -1.0920    1.5790    0.0000 C.ar    1  LIG1        0.1635
      5 C          -1.0920    0.5880    0.0000 C.ar    1  LIG1        0.1026
      6 C          -1.9630    0.0880    0.0000 C.ar    1  LIG1        0.0206
      7 C          -2.8210    0.5960    0.0000 C.ar    1  LIG1        0.0017
      8 C          -2.8210    1.5670    0.0000 C.ar    1  LIG1        0.0032
      9 C          -1.9630    2.0750    0.0000 C.ar    1  LIG1        0.0391
     10 S           1.4460    1.0960    0.0000 S.2     1  LIG1        0.0096
     11 C           0.1710   -0.6960    0.0000 C.3     1  LIG1        0.2606
     12 N           1.1540   -0.9130    0.0000 N.4     1  LIG1        0.3956
     13 C           1.4630   -1.8580    0.0000 C.3     1  LIG1        0.1416
     14 C           2.4420   -2.0710    0.0000 C.3     1  LIG1        0.0689
     15 C           1.8330   -0.1670    0.0000 C.3     1  LIG1        0.1416
     16 C           2.8170   -0.3750    0.0000 C.3     1  LIG1        0.0689
@<TRIPOS>BOND
     1     1     2   ar
     2     1     5   ar
     3     1    11    1
     4     2     3   ar
     5     2    10    2
     6     3     4   ar
     7     4     5   ar
     8     4     9   ar
     9     5     6   ar
    10     6     7   ar
    11     7     8   ar
    12     8     9   ar
    13    11    12    1
    14    12    13    1
    15    12    15    1
    16    13    14    1
    17    15    16    1
