@<TRIPOS>MOLECULE
25353_ChemDiv_8009-0808
 21 24 0 0 0
SMALL
GASTEIGER
Energy = 0

@<TRIPOS>ATOM
      1 C           1.2880    0.4540    0.0000 C.3     1  LIG1        0.1189
      2 C          -1.0920    0.3040    0.0000 C.3     1  LIG1        0.0620
      3 C          -0.4130   -0.1040    0.0000 C.ar    1  LIG1       -0.0207
      4 C          -0.4130   -0.8790    0.0000 C.ar    1  LIG1       -0.0220
      5 C          -0.9460   -1.3580    0.0000 C.3     1  LIG1        0.0453
      6 C           1.3540   -1.4210    0.0000 C.3     1  LIG1        0.0288
      7 C          -1.6250   -0.9670    0.0000 C.ar    1  LIG1       -0.0220
      8 C          -1.6250   -0.1750    0.0000 C.ar    1  LIG1       -0.0207
      9 C          -2.3080    0.2330    0.0000 C.ar    1  LIG1       -0.0042
     10 C          -3.0080   -0.1750    0.0000 C.ar    1  LIG1       -0.0003
     11 C          -3.0080   -0.9880    0.0000 C.ar    1  LIG1       -0.0003
     12 C          -2.3080   -1.3750    0.0000 C.ar    1  LIG1       -0.0043
     13 C           0.2750   -1.2830    0.0000 C.ar    1  LIG1       -0.0043
     14 C           0.9750   -0.8960    0.0000 C.ar    1  LIG1       -0.0003
     15 C           0.9750   -0.0830    0.0000 C.ar    1  LIG1       -0.0003
     16 C           0.2920    0.3040    0.0000 C.ar    1  LIG1       -0.0042
     17 C           0.4830    0.7880    0.0000 C.2     1  LIG1        0.0635
     18 O          -0.3830    1.4250    0.0000 O.co2   1  LIG1       -0.5481
     19 O          -0.6210    0.7080    0.0000 O.co2   1  LIG1       -0.5481
     20 C           2.1380    0.7080    0.0000 C.1     1  LIG1        0.0771
     21 N           3.0040    0.9170    0.0000 N.1     1  LIG1       -0.1955
@<TRIPOS>BOND
     1     1     2    1
     2     1     6    1
     3     1    17    1
     4     1    20    1
     5     2     3    1
     6     2     8    1
     7     3     4   ar
     8     3    16   ar
     9     4     5    1
    10     4    13   ar
    11     5     6    1
    12     5     7    1
    13     7     8   ar
    14     7    12   ar
    15     8     9   ar
    16     9    10   ar
    17    10    11   ar
    18    11    12   ar
    19    13    14   ar
    20    14    15   ar
    21    15    16   ar
    22    17    18   ar
    23    17    19   ar
    24    20    21    3
