@<TRIPOS>MOLECULE
25358_ChemDiv_E676-1564
 26 29 0 0 0
SMALL
GASTEIGER
Energy = 0

@<TRIPOS>ATOM
      1 C          -0.0040    0.3630    0.0000 C.ar    1  LIG1        0.1692
      2 N           0.8630   -0.1460    0.0000 N.am    1  LIG1       -0.2286
      3 C           1.7250    0.3630    0.0000 C.2     1  LIG1        0.2604
      4 C           2.5880   -0.1460    0.0000 C.ar    1  LIG1        0.0838
      5 S           2.7080   -1.1500    0.0000 S.2     1  LIG1       -0.0756
      6 C           3.6830   -1.3500    0.0000 C.ar    1  LIG1        0.0639
      7 C           4.1750   -0.4790    0.0000 C.ar    1  LIG1        0.0139
      8 C           3.5130    0.2580    0.0000 C.ar    1  LIG1        0.0121
      9 BR          4.1170   -2.2710    0.0000 Br      1  LIG1       -0.0419
     10 O           1.7250    1.3540    0.0000 O.2     1  LIG1       -0.2690
     11 C           0.8630   -1.1460    0.0000 C.3     1  LIG1        0.1628
     12 C          -0.0040   -1.6460    0.0000 C.3     1  LIG1        0.1615
     13 N          -0.0040   -2.6460    0.0000 N.4     1  LIG1        0.3881
     14 C           0.8630   -3.1460    0.0000 C.3     1  LIG1        0.2026
     15 C          -0.8670   -3.1460    0.0000 C.3     1  LIG1        0.2026
     16 N          -0.9250   -0.0460    0.0000 N.ar    1  LIG1       -0.2236
     17 C          -1.5920    0.6960    0.0000 C.ar    1  LIG1        0.0925
     18 C          -1.0920    1.5580    0.0000 C.ar    1  LIG1        0.0530
     19 S          -0.1080    1.3630    0.0000 S.2     1  LIG1       -0.0511
     20 C          -1.6000    2.4210    0.0000 C.ar    1  LIG1        0.0482
     21 C          -2.5920    2.4080    0.0000 C.ar    1  LIG1        0.1770
     22 C          -3.0750    1.5460    0.0000 C.ar    1  LIG1        0.1780
     23 C          -2.5880    0.6880    0.0000 C.ar    1  LIG1        0.0598
     24 O          -4.0580    1.7460    0.0000 O.3     1  LIG1       -0.4346
     25 C          -4.1790    2.7420    0.0000 C.3     1  LIG1        0.4294
     26 O          -3.2670    3.1500    0.0000 O.3     1  LIG1       -0.4346
@<TRIPOS>BOND
     1     1     2    1
     2     1    16   ar
     3     1    19   ar
     4     2     3   am
     5     2    11    1
     6     3     4    1
     7     3    10    2
     8     4     5   ar
     9     4     8   ar
    10     5     6   ar
    11     6     7   ar
    12     6     9    1
    13     7     8   ar
    14    11    12    1
    15    12    13    1
    16    13    14    1
    17    13    15    1
    18    16    17   ar
    19    17    18   ar
    20    17    23   ar
    21    18    19   ar
    22    18    20   ar
    23    20    21   ar
    24    21    22   ar
    25    21    26    1
    26    22    23   ar
    27    22    24    1
    28    24    25    1
    29    25    26    1
