@<TRIPOS>MOLECULE
25357_ChemDiv_0469-0623
 18 19 0 0 0
SMALL
GASTEIGER
Energy = 0

@<TRIPOS>ATOM
      1 N           0.5420   -0.9210    0.0000 N.ar    1  LIG1       -0.2413
      2 C           1.1380   -1.7330    0.0000 C.ar    1  LIG1        0.2543
      3 O           0.5420   -2.5250    0.0000 O.2     1  LIG1       -0.4305
      4 C          -0.4130   -2.2250    0.0000 C.ar    1  LIG1        0.1635
      5 C          -0.4130   -1.2170    0.0000 C.ar    1  LIG1        0.1026
      6 C          -1.2710   -0.7040    0.0000 C.ar    1  LIG1        0.0206
      7 C          -2.1380   -1.2170    0.0000 C.ar    1  LIG1        0.0017
      8 C          -2.1380   -2.2250    0.0000 C.ar    1  LIG1        0.0032
      9 C          -1.2710   -2.7170    0.0000 C.ar    1  LIG1        0.0391
     10 S           2.1460   -1.7330    0.0000 S.2     1  LIG1        0.0096
     11 C           0.9540   -0.0080    0.0000 C.3     1  LIG1        0.2606
     12 N           0.3630    0.8210    0.0000 N.4     1  LIG1        0.3956
     13 C          -0.6170    0.7460    0.0000 C.3     1  LIG1        0.1414
     14 C          -1.1880    1.5540    0.0000 C.3     1  LIG1        0.0628
     15 C          -2.1920    1.4790    0.0000 C.3     1  LIG1        0.0063
     16 C           0.7750    1.7130    0.0000 C.3     1  LIG1        0.1414
     17 C           1.7630    1.8000    0.0000 C.3     1  LIG1        0.0628
     18 C           2.1880    2.7210    0.0000 C.3     1  LIG1        0.0063
@<TRIPOS>BOND
     1     1     2   ar
     2     1     5   ar
     3     1    11    1
     4     2     3   ar
     5     2    10    2
     6     3     4   ar
     7     4     5   ar
     8     4     9   ar
     9     5     6   ar
    10     6     7   ar
    11     7     8   ar
    12     8     9   ar
    13    11    12    1
    14    12    13    1
    15    12    16    1
    16    13    14    1
    17    14    15    1
    18    16    17    1
    19    17    18    1
