@<TRIPOS>MOLECULE
25368_ChemDiv_0570-0092
 25 28 0 0 0
SMALL
GASTEIGER
Energy = 0

@<TRIPOS>ATOM
      1 N          -0.0960    1.3040    0.0000 N.am    1  LIG1       -0.2326
      2 C          -0.1630    0.3040    0.0000 C.2     1  LIG1        0.2909
      3 C           0.6830   -0.2670    0.0000 C.3     1  LIG1        0.2256
      4 N           0.6170   -1.3000    0.0000 N.4     1  LIG1        0.3844
      5 C          -0.3040   -1.6290    0.0000 C.3     1  LIG1        0.1392
      6 C          -0.6290   -2.5830    0.0000 C.3     1  LIG1        0.0627
      7 C          -0.0580   -3.4380    0.0000 C.3     1  LIG1        0.0063
      8 C           0.8630   -3.5040    0.0000 C.3     1  LIG1        0.0063
      9 C           1.5750   -2.7920    0.0000 C.3     1  LIG1        0.0627
     10 C           1.4790   -1.8330    0.0000 C.3     1  LIG1        0.1392
     11 O          -1.0540   -0.1670    0.0000 O.2     1  LIG1       -0.2678
     12 C           0.8330    1.6630    0.0000 C.ar    1  LIG1        0.0582
     13 C           1.1540    2.6170    0.0000 C.ar    1  LIG1        0.0140
     14 C           0.5880    3.4420    0.0000 C.2     1  LIG1        0.0013
     15 C          -0.4130    3.5080    0.0000 C.2     1  LIG1        0.0013
     16 C          -1.0540    2.8250    0.0000 C.ar    1  LIG1        0.0140
     17 C          -0.9500    1.8380    0.0000 C.ar    1  LIG1        0.0582
     18 C          -1.7670    1.2250    0.0000 C.ar    1  LIG1        0.0152
     19 C          -2.7000    1.6170    0.0000 C.ar    1  LIG1        0.0013
     20 C          -2.7960    2.6170    0.0000 C.ar    1  LIG1        0.0001
     21 C          -1.9880    3.2210    0.0000 C.ar    1  LIG1        0.0012
     22 C           2.1080    2.8630    0.0000 C.ar    1  LIG1        0.0012
     23 C           2.7920    2.1130    0.0000 C.ar    1  LIG1        0.0001
     24 C           2.5080    1.1580    0.0000 C.ar    1  LIG1        0.0013
     25 C           1.5080    0.9500    0.0000 C.ar    1  LIG1        0.0152
@<TRIPOS>BOND
     1     1     2   am
     2     1    12    1
     3     1    17    1
     4     2     3    1
     5     2    11    2
     6     3     4    1
     7     4     5    1
     8     4    10    1
     9     5     6    1
    10     6     7    1
    11     7     8    1
    12     8     9    1
    13     9    10    1
    14    12    13   ar
    15    12    25   ar
    16    13    14    1
    17    13    22   ar
    18    14    15    2
    19    15    16    1
    20    16    17   ar
    21    16    21   ar
    22    17    18   ar
    23    18    19   ar
    24    19    20   ar
    25    20    21   ar
    26    22    23   ar
    27    23    24   ar
    28    24    25   ar
