@<TRIPOS>MOLECULE
25364_ChemDiv_4364-0210
 25 28 0 0 0
SMALL
GASTEIGER
Energy = 0

@<TRIPOS>ATOM
      1 C          -0.1960    0.8920    0.0000 C.2     1  LIG1        0.3247
      2 O           0.6630    0.4130    0.0000 O.3     1  LIG1       -0.4514
      3 C           1.5210    0.9130    0.0000 C.3     1  LIG1        0.1803
      4 C           2.3580    0.3790    0.0000 C.3     1  LIG1        0.1004
      5 C           3.2920    0.7080    0.0000 C.3     1  LIG1        0.0907
      6 N           2.9130    1.7750    0.0000 N.4     1  LIG1        0.3736
      7 C           2.1170    2.5960    0.0000 C.3     1  LIG1        0.0907
      8 C           1.4330    1.9500    0.0000 C.3     1  LIG1        0.1004
      9 C           3.0880    2.4630    0.0000 C.3     1  LIG1        0.0627
     10 C           3.6170    1.6710    0.0000 C.3     1  LIG1        0.0627
     11 C           2.0790    1.2460    0.0000 C.3     1  LIG1        0.2016
     12 C          -1.0420    0.3790    0.0000 C.3     1  LIG1        0.1435
     13 C          -1.0420   -0.6080    0.0000 C.ar    1  LIG1       -0.0079
     14 C          -1.8920   -1.1210    0.0000 C.ar    1  LIG1       -0.0034
     15 C          -1.8750   -2.1130    0.0000 C.ar    1  LIG1       -0.0003
     16 C          -1.0130   -2.5920    0.0000 C.ar    1  LIG1       -0.0000
     17 C          -0.1710   -2.0830    0.0000 C.ar    1  LIG1       -0.0003
     18 C          -0.1710   -1.0920    0.0000 C.ar    1  LIG1       -0.0034
     19 C          -1.9170    0.8630    0.0000 C.ar    1  LIG1       -0.0079
     20 C          -1.9000    1.8670    0.0000 C.ar    1  LIG1       -0.0034
     21 C          -2.7630    2.3630    0.0000 C.ar    1  LIG1       -0.0003
     22 C          -3.6210    1.8670    0.0000 C.ar    1  LIG1       -0.0000
     23 C          -3.6210    0.8750    0.0000 C.ar    1  LIG1       -0.0003
     24 C          -2.7630    0.3790    0.0000 C.ar    1  LIG1       -0.0034
     25 O          -0.2130    1.8830    0.0000 O.2     1  LIG1       -0.2494
@<TRIPOS>BOND
     1     1     2    1
     2     1    12    1
     3     1    25    2
     4     2     3    1
     5     3     4    1
     6     3     8    1
     7     4     5    1
     8     5     6    1
     9     5    10    1
    10     6     7    1
    11     6    11    1
    12     7     8    1
    13     7     9    1
    14     9    10    1
    15    12    13    1
    16    12    19    1
    17    13    14   ar
    18    13    18   ar
    19    14    15   ar
    20    15    16   ar
    21    16    17   ar
    22    17    18   ar
    23    19    20   ar
    24    19    24   ar
    25    20    21   ar
    26    21    22   ar
    27    22    23   ar
    28    23    24   ar
