@<TRIPOS>MOLECULE
25362_ChemDiv_4364-0156
 26 29 0 0 0
SMALL
GASTEIGER
Energy = 0

@<TRIPOS>ATOM
      1 N           2.8460    1.1210    0.0000 N.4     1  LIG1        0.2980
      2 C           2.2920    2.0330    0.0000 C.3     1  LIG1        0.0625
      3 C           1.4830    1.5210    0.0000 C.3     1  LIG1        0.0988
      4 C           1.3830    0.4750    0.0000 C.3     1  LIG1        0.1803
      5 O           0.4500    0.1250    0.0000 O.3     1  LIG1       -0.4514
      6 C          -0.3170    0.7710    0.0000 C.2     1  LIG1        0.3247
      7 C          -1.2630    0.4210    0.0000 C.3     1  LIG1        0.1435
      8 C          -1.4460   -0.5630    0.0000 C.ar    1  LIG1       -0.0079
      9 C          -2.3960   -0.8710    0.0000 C.ar    1  LIG1       -0.0034
     10 C          -2.5960   -1.8540    0.0000 C.ar    1  LIG1       -0.0003
     11 C          -1.8460   -2.5210    0.0000 C.ar    1  LIG1       -0.0000
     12 C          -0.9040   -2.2040    0.0000 C.ar    1  LIG1       -0.0003
     13 C          -0.7040   -1.2250    0.0000 C.ar    1  LIG1       -0.0034
     14 C          -2.0460    1.0380    0.0000 C.ar    1  LIG1       -0.0079
     15 C          -2.9130    0.5250    0.0000 C.ar    1  LIG1       -0.0034
     16 C          -3.7790    1.0380    0.0000 C.ar    1  LIG1       -0.0003
     17 C          -3.7790    2.0330    0.0000 C.ar    1  LIG1       -0.0000
     18 C          -2.9130    2.5250    0.0000 C.ar    1  LIG1       -0.0003
     19 C          -2.0460    2.0330    0.0000 C.ar    1  LIG1       -0.0034
     20 O          -0.1540    1.7540    0.0000 O.2     1  LIG1       -0.2494
     21 C           2.1080   -0.2130    0.0000 C.3     1  LIG1        0.0988
     22 C           3.1080   -0.0750    0.0000 C.3     1  LIG1        0.0625
     23 C           3.5960    0.8380    0.0000 C.3     1  LIG1        0.0611
     24 C           3.2250    1.7250    0.0000 C.3     1  LIG1        0.0611
     25 C           3.7750    1.4880    0.0000 C.3     1  LIG1        0.1702
     26 C           2.2130    0.7420    0.0000 C.3     1  LIG1        0.1702
@<TRIPOS>BOND
     1     1     2    1
     2     1    22    1
     3     1    25    1
     4     1    26    1
     5     2     3    1
     6     2    24    1
     7     3     4    1
     8     4     5    1
     9     4    21    1
    10     5     6    1
    11     6     7    1
    12     6    20    2
    13     7     8    1
    14     7    14    1
    15     8     9   ar
    16     8    13   ar
    17     9    10   ar
    18    10    11   ar
    19    11    12   ar
    20    12    13   ar
    21    14    15   ar
    22    14    19   ar
    23    15    16   ar
    24    16    17   ar
    25    17    18   ar
    26    18    19   ar
    27    21    22    1
    28    22    23    1
    29    23    24    1
