@<TRIPOS>MOLECULE
25366_ChemDiv_6264-0458
 22 24 0 0 0
SMALL
GASTEIGER
Energy = 0

@<TRIPOS>ATOM
      1 N           2.8380    1.0380    0.0000 N.4     1  LIG1        0.2980
      2 C           2.0380    1.8580    0.0000 C.3     1  LIG1        0.0625
      3 C           1.3460    1.2000    0.0000 C.3     1  LIG1        0.0988
      4 C           1.4460    0.1790    0.0000 C.3     1  LIG1        0.1802
      5 O           0.6000   -0.3290    0.0000 O.3     1  LIG1       -0.4516
      6 C          -0.2670    0.1460    0.0000 C.2     1  LIG1        0.3231
      7 C          -1.1040   -0.3630    0.0000 C.3     1  LIG1        0.1541
      8 C          -1.9750    0.1210    0.0000 C.ar    1  LIG1       -0.0094
      9 C          -1.9580    1.1170    0.0000 C.ar    1  LIG1       -0.0037
     10 C          -2.8170    1.6130    0.0000 C.ar    1  LIG1       -0.0003
     11 C          -3.6710    1.1170    0.0000 C.ar    1  LIG1       -0.0000
     12 C          -3.6710    0.1290    0.0000 C.ar    1  LIG1       -0.0003
     13 C          -2.8170   -0.3630    0.0000 C.ar    1  LIG1       -0.0037
     14 C          -1.0920   -1.3460    0.0000 C.3     1  LIG1        0.1975
     15 O          -1.9460   -1.8540    0.0000 O.3     1  LIG1       -0.2194
     16 O          -0.2830    1.1330    0.0000 O.2     1  LIG1       -0.2497
     17 C           2.2710   -0.3630    0.0000 C.3     1  LIG1        0.0988
     18 C           3.2080   -0.0330    0.0000 C.3     1  LIG1        0.0625
     19 C           3.5380    0.9250    0.0000 C.3     1  LIG1        0.0611
     20 C           3.0040    1.7330    0.0000 C.3     1  LIG1        0.0611
     21 C           2.0040    0.5000    0.0000 C.3     1  LIG1        0.1702
     22 C           3.6670    1.5630    0.0000 C.3     1  LIG1        0.1702
@<TRIPOS>BOND
     1     1     2    1
     2     1    18    1
     3     1    21    1
     4     1    22    1
     5     2     3    1
     6     2    20    1
     7     3     4    1
     8     4     5    1
     9     4    17    1
    10     5     6    1
    11     6     7    1
    12     6    16    2
    13     7     8    1
    14     7    14    1
    15     8     9   ar
    16     8    13   ar
    17     9    10   ar
    18    10    11   ar
    19    11    12   ar
    20    12    13   ar
    21    14    15    1
    22    17    18    1
    23    18    19    1
    24    19    20    1
