@<TRIPOS>MOLECULE
25379_ChemDiv_8002-4428
 18 20 0 0 0
SMALL
GASTEIGER
Energy = 0

@<TRIPOS>ATOM
      1 N           1.0000   -0.7920    0.0000 N.ar    1  LIG1       -0.2413
      2 C           1.5750   -1.6080    0.0000 C.ar    1  LIG1        0.2543
      3 O           1.0000   -2.4170    0.0000 O.2     1  LIG1       -0.4305
      4 C           0.0420   -2.1040    0.0000 C.ar    1  LIG1        0.1644
      5 C           0.0420   -1.1130    0.0000 C.ar    1  LIG1        0.1026
      6 C          -0.8330   -0.6170    0.0000 C.ar    1  LIG1        0.0214
      7 C          -1.6960   -1.1130    0.0000 C.ar    1  LIG1        0.0131
      8 C          -1.6960   -2.1040    0.0000 C.ar    1  LIG1        0.0608
      9 C          -0.8330   -2.6000    0.0000 C.ar    1  LIG1        0.0505
     10 CL         -2.5920   -2.5790    0.0000 Cl      1  LIG1       -0.0821
     11 S           2.5880   -1.6250    0.0000 S.2     1  LIG1        0.0096
     12 C           1.3330    0.1630    0.0000 C.3     1  LIG1        0.2606
     13 N           0.6540    0.9170    0.0000 N.4     1  LIG1        0.3956
     14 C           0.9540    1.8630    0.0000 C.3     1  LIG1        0.1414
     15 C           0.2830    2.6040    0.0000 C.3     1  LIG1        0.0630
     16 C          -0.6710    2.4080    0.0000 C.3     1  LIG1        0.0123
     17 C          -0.9830    1.4540    0.0000 C.3     1  LIG1        0.0630
     18 C          -0.3080    0.7210    0.0000 C.3     1  LIG1        0.1414
@<TRIPOS>BOND
     1     1     2   ar
     2     1     5   ar
     3     1    12    1
     4     2     3   ar
     5     2    11    2
     6     3     4   ar
     7     4     5   ar
     8     4     9   ar
     9     5     6   ar
    10     6     7   ar
    11     7     8   ar
    12     8     9   ar
    13     8    10    1
    14    12    13    1
    15    13    14    1
    16    13    18    1
    17    14    15    1
    18    15    16    1
    19    16    17    1
    20    17    18    1
