@<TRIPOS>MOLECULE
25372_ChemDiv_2574-0179
 22 24 0 0 0
SMALL
GASTEIGER
Energy = 0

@<TRIPOS>ATOM
      1 N           0.2250    0.5250    0.0000 N.am    1  LIG1       -0.2218
      2 C           0.4460   -0.4380    0.0000 C.2     1  LIG1        0.3147
      3 N          -0.2920   -1.1420    0.0000 N.am    1  LIG1       -0.2635
      4 C          -0.0540   -2.0960    0.0000 C.3     1  LIG1        0.0950
      5 C          -0.7670   -2.7710    0.0000 C.3     1  LIG1        0.0233
      6 C          -1.2460   -0.8790    0.0000 C.3     1  LIG1        0.0950
      7 C          -1.9500   -1.5710    0.0000 C.3     1  LIG1        0.0233
      8 O           1.3920   -0.6920    0.0000 O.2     1  LIG1       -0.2517
      9 C          -0.7500    0.7460    0.0000 C.ar    1  LIG1        0.0595
     10 C          -1.1790    1.6330    0.0000 C.ar    1  LIG1        0.0141
     11 C          -0.7500    2.5580    0.0000 C.2     1  LIG1        0.0013
     12 C           0.2250    2.7750    0.0000 C.2     1  LIG1        0.0013
     13 C           1.0080    2.1500    0.0000 C.ar    1  LIG1        0.0141
     14 C           1.0080    1.1540    0.0000 C.ar    1  LIG1        0.0595
     15 C           1.8750    0.6330    0.0000 C.ar    1  LIG1        0.0153
     16 C           2.7460    1.1540    0.0000 C.ar    1  LIG1        0.0013
     17 C           2.7460    2.1500    0.0000 C.ar    1  LIG1        0.0001
     18 C           1.8750    2.6630    0.0000 C.ar    1  LIG1        0.0012
     19 C          -2.1880    1.6960    0.0000 C.ar    1  LIG1        0.0012
     20 C          -2.7500    0.8500    0.0000 C.ar    1  LIG1        0.0001
     21 C          -2.3210   -0.0170    0.0000 C.ar    1  LIG1        0.0013
     22 C          -1.3130   -0.1000    0.0000 C.ar    1  LIG1        0.0153
@<TRIPOS>BOND
     1     1     2   am
     2     1     9    1
     3     1    14    1
     4     2     3   am
     5     2     8    2
     6     3     4    1
     7     3     6    1
     8     4     5    1
     9     6     7    1
    10     9    10   ar
    11     9    22   ar
    12    10    11    1
    13    10    19   ar
    14    11    12    2
    15    12    13    1
    16    13    14   ar
    17    13    18   ar
    18    14    15   ar
    19    15    16   ar
    20    16    17   ar
    21    17    18   ar
    22    19    20   ar
    23    20    21   ar
    24    21    22   ar
