@<TRIPOS>MOLECULE
25375_ChemDiv_2729-0859
 33 36 0 0 0
SMALL
GASTEIGER
Energy = 0

@<TRIPOS>ATOM
      1 N           2.2960   -0.4920    0.0000 N.ar    1  LIG1       -0.3264
      2 C           2.8880    0.3170    0.0000 C.ar    1  LIG1        0.0405
      3 C           2.2960    1.1420    0.0000 C.ar    1  LIG1        0.0479
      4 C           1.3460    0.8380    0.0000 C.ar    1  LIG1        0.0227
      5 C           1.3460   -0.1830    0.0000 C.ar    1  LIG1        0.0602
      6 C           0.4880   -0.6790    0.0000 C.ar    1  LIG1        0.0203
      7 C          -0.3750   -0.1460    0.0000 C.ar    1  LIG1        0.0391
      8 C          -0.3750    0.8040    0.0000 C.ar    1  LIG1        0.1489
      9 O          -1.2670    1.2960    0.0000 O.3     1  LIG1       -0.4210
     10 C          -2.1290    0.7380    0.0000 C.2     1  LIG1        0.3487
     11 C          -2.0710   -0.2420    0.0000 C.ar    1  LIG1        0.1106
     12 C          -2.9330   -0.7630    0.0000 C.ar    1  LIG1        0.1546
     13 O          -3.8210   -0.3000    0.0000 O.3     1  LIG1       -0.4239
     14 C          -4.6540   -0.8580    0.0000 C.2     1  LIG1        0.3220
     15 O          -5.5500   -0.3960    0.0000 O.2     1  LIG1       -0.2497
     16 C          -4.5880   -1.8380    0.0000 C.3     1  LIG1        0.1216
     17 C          -2.8960   -1.7540    0.0000 C.ar    1  LIG1        0.0378
     18 C          -2.0130   -2.2420    0.0000 C.ar    1  LIG1        0.0031
     19 C          -1.1460   -1.7210    0.0000 C.ar    1  LIG1        0.0004
     20 C          -1.2040   -0.7040    0.0000 C.ar    1  LIG1        0.0095
     21 O          -2.9920    1.2000    0.0000 O.2     1  LIG1       -0.2444
     22 C           0.4880    1.3210    0.0000 C.ar    1  LIG1        0.0392
     23 C           2.6040    2.0920    0.0000 C.2     1  LIG1        0.1746
     24 O           3.5670    2.3170    0.0000 O.2     1  LIG1       -0.2913
     25 C           1.9290    2.8380    0.0000 C.3     1  LIG1        0.0773
     26 C           3.8750    0.3170    0.0000 C.3     1  LIG1        0.0501
     27 C           2.6040   -1.4710    0.0000 C.3     1  LIG1        0.1324
     28 C           3.5790   -1.6790    0.0000 C.ar    1  LIG1        0.0004
     29 C           4.2580   -0.9330    0.0000 C.ar    1  LIG1       -0.0024
     30 C           5.2210   -1.1460    0.0000 C.ar    1  LIG1       -0.0003
     31 C           5.5460   -2.0880    0.0000 C.ar    1  LIG1       -0.0000
     32 C           4.8540   -2.8330    0.0000 C.ar    1  LIG1       -0.0003
     33 C           3.8880   -2.6250    0.0000 C.ar    1  LIG1       -0.0024
@<TRIPOS>BOND
     1     1     2   ar
     2     1     5   ar
     3     1    27    1
     4     2     3   ar
     5     2    26    1
     6     3     4   ar
     7     3    23    1
     8     4     5   ar
     9     4    22   ar
    10     5     6   ar
    11     6     7   ar
    12     7     8   ar
    13     8     9    1
    14     8    22   ar
    15     9    10    1
    16    10    11    1
    17    10    21    2
    18    11    12   ar
    19    11    20   ar
    20    12    13    1
    21    12    17   ar
    22    13    14    1
    23    14    15    2
    24    14    16    1
    25    17    18   ar
    26    18    19   ar
    27    19    20   ar
    28    23    24    2
    29    23    25    1
    30    27    28    1
    31    28    29   ar
    32    28    33   ar
    33    29    30   ar
    34    30    31   ar
    35    31    32   ar
    36    32    33   ar
