@<TRIPOS>MOLECULE
25370_ChemDiv_1646-0141
 24 26 0 0 0
SMALL
GASTEIGER
Energy = 0

@<TRIPOS>ATOM
      1 N           0.3710    1.5580    0.0000 N.am    1  LIG1       -0.2206
      2 C           0.3580    0.5830    0.0000 C.2     1  LIG1        0.3308
      3 O           1.2210    0.0500    0.0000 O.2     1  LIG1       -0.2501
      4 N          -0.5290    0.1290    0.0000 N.am    1  LIG1       -0.1877
      5 C          -0.5290   -0.8580    0.0000 C.3     1  LIG1        0.1230
      6 C          -1.4330   -1.3130    0.0000 C.3     1  LIG1        0.0861
      7 C          -1.4170   -2.2830    0.0000 C.3     1  LIG1        0.1410
      8 N          -2.3420   -2.7630    0.0000 N.4     1  LIG1        0.3867
      9 C          -3.1830   -2.2460    0.0000 C.3     1  LIG1        0.2025
     10 C          -2.3420   -3.7500    0.0000 C.3     1  LIG1        0.2025
     11 C           1.2790    2.0040    0.0000 C.ar    1  LIG1        0.0596
     12 C           1.4790    3.0080    0.0000 C.ar    1  LIG1        0.0141
     13 C           0.8000    3.7540    0.0000 C.2     1  LIG1        0.0013
     14 C          -0.1710    3.7540    0.0000 C.2     1  LIG1        0.0013
     15 C          -0.7880    2.9580    0.0000 C.ar    1  LIG1        0.0141
     16 C          -0.5290    1.9630    0.0000 C.ar    1  LIG1        0.0596
     17 C          -1.2460    1.2920    0.0000 C.ar    1  LIG1        0.0153
     18 C          -2.2330    1.5540    0.0000 C.ar    1  LIG1        0.0013
     19 C          -2.4750    2.5250    0.0000 C.ar    1  LIG1        0.0001
     20 C          -1.7580    3.2330    0.0000 C.ar    1  LIG1        0.0012
     21 C           2.4170    3.3210    0.0000 C.ar    1  LIG1        0.0012
     22 C           3.1790    2.6540    0.0000 C.ar    1  LIG1        0.0001
     23 C           2.9670    1.6830    0.0000 C.ar    1  LIG1        0.0013
     24 C           2.0130    1.3630    0.0000 C.ar    1  LIG1        0.0153
@<TRIPOS>BOND
     1     1     2   am
     2     1    11    1
     3     1    16    1
     4     2     3    2
     5     2     4   am
     6     4     5    1
     7     5     6    1
     8     6     7    1
     9     7     8    1
    10     8     9    1
    11     8    10    1
    12    11    12   ar
    13    11    24   ar
    14    12    13    1
    15    12    21   ar
    16    13    14    2
    17    14    15    1
    18    15    16   ar
    19    15    20   ar
    20    16    17   ar
    21    17    18   ar
    22    18    19   ar
    23    19    20   ar
    24    21    22   ar
    25    22    23   ar
    26    23    24   ar
