@<TRIPOS>MOLECULE
25373_ChemDiv_0519-0339
 25 27 0 0 0
SMALL
GASTEIGER
Energy = 0

@<TRIPOS>ATOM
      1 N           0.8330   -0.4880    0.0000 N.ar    1  LIG1       -0.2785
      2 C           1.6670    0.1130    0.0000 C.ar    1  LIG1        0.0410
      3 C           1.3460    1.0630    0.0000 C.ar    1  LIG1       -0.0030
      4 C           0.3170    1.0630    0.0000 C.ar    1  LIG1        0.0167
      5 C           0.0080    0.0960    0.0000 C.ar    1  LIG1        0.0664
      6 C          -0.9540   -0.1040    0.0000 C.ar    1  LIG1        0.0207
      7 C          -1.6250    0.6330    0.0000 C.ar    1  LIG1        0.0384
      8 C          -1.3250    1.5880    0.0000 C.ar    1  LIG1        0.1388
      9 C          -0.3420    1.8170    0.0000 C.ar    1  LIG1        0.0381
     10 O          -1.9920    2.3040    0.0000 O.3     1  LIG1       -0.4714
     11 C          -1.6920    3.2540    0.0000 C.3     1  LIG1        0.2525
     12 C           1.9330    1.8540    0.0000 C.3     1  LIG1        0.0691
     13 C           1.5500    2.7540    0.0000 C.2     1  LIG1        0.0548
     14 O           0.5330    2.8580    0.0000 O.co2   1  LIG1       -0.5488
     15 O           2.1750    3.5040    0.0000 O.co2   1  LIG1       -0.5488
     16 C           2.6250   -0.1580    0.0000 C.3     1  LIG1        0.0501
     17 C           0.8330   -1.4920    0.0000 C.2     1  LIG1        0.2644
     18 C          -0.0380   -1.9830    0.0000 C.ar    1  LIG1        0.0565
     19 C          -0.0380   -2.9830    0.0000 C.ar    1  LIG1        0.0056
     20 C          -0.8880   -3.4750    0.0000 C.ar    1  LIG1        0.0115
     21 C          -1.7580   -2.9880    0.0000 C.ar    1  LIG1        0.0577
     22 C          -1.7580   -1.9830    0.0000 C.ar    1  LIG1        0.0115
     23 C          -0.9040   -1.5080    0.0000 C.ar    1  LIG1        0.0056
     24 CL         -2.6290   -3.5000    0.0000 Cl      1  LIG1       -0.0822
     25 O           1.7330   -1.9830    0.0000 O.2     1  LIG1       -0.2666
@<TRIPOS>BOND
     1     1     2   ar
     2     1     5   ar
     3     1    17   am
     4     2     3   ar
     5     2    16    1
     6     3     4   ar
     7     3    12    1
     8     4     5   ar
     9     4     9   ar
    10     5     6   ar
    11     6     7   ar
    12     7     8   ar
    13     8     9   ar
    14     8    10    1
    15    10    11    1
    16    12    13    1
    17    13    14   ar
    18    13    15   ar
    19    17    18    1
    20    17    25    2
    21    18    19   ar
    22    18    23   ar
    23    19    20   ar
    24    20    21   ar
    25    21    22   ar
    26    21    24    1
    27    22    23   ar
