@<TRIPOS>MOLECULE
25374_ChemDiv_3966-0068
 24 26 0 0 0
SMALL
GASTEIGER
Energy = 0

@<TRIPOS>ATOM
      1 N           0.9920   -0.3500    0.0000 N.am    1  LIG1       -0.2037
      2 C           0.5170   -1.2540    0.0000 C.2     1  LIG1        0.4125
      3 O           1.0330   -2.1040    0.0000 O.2     1  LIG1       -0.2255
      4 O          -0.4790   -1.2540    0.0000 O.3     1  LIG1       -0.4339
      5 C          -0.9670   -0.3920    0.0000 C.3     1  LIG1        0.2163
      6 C          -1.9670   -0.3920    0.0000 C.3     1  LIG1        0.1101
      7 C          -2.5080    0.4960    0.0000 C.3     1  LIG1        0.1431
      8 N          -3.5000    0.4960    0.0000 N.4     1  LIG1        0.3868
      9 C          -4.0000    1.3130    0.0000 C.3     1  LIG1        0.2025
     10 C          -3.9670   -0.4040    0.0000 C.3     1  LIG1        0.2025
     11 C           2.0040   -0.3750    0.0000 C.ar    1  LIG1        0.0612
     12 C           2.6460    0.4080    0.0000 C.ar    1  LIG1        0.0141
     13 C           2.4540    1.3710    0.0000 C.2     1  LIG1        0.0013
     14 C           1.5290    1.8080    0.0000 C.2     1  LIG1        0.0013
     15 C           0.6380    1.4330    0.0000 C.ar    1  LIG1        0.0141
     16 C           0.3960    0.4290    0.0000 C.ar    1  LIG1        0.0612
     17 C          -0.5670    0.1630    0.0000 C.ar    1  LIG1        0.0153
     18 C          -1.2880    0.8830    0.0000 C.ar    1  LIG1        0.0013
     19 C          -1.0380    1.8500    0.0000 C.ar    1  LIG1        0.0001
     20 C          -0.1000    2.1080    0.0000 C.ar    1  LIG1        0.0012
     21 C           3.6580    0.2170    0.0000 C.ar    1  LIG1        0.0012
     22 C           3.9960   -0.6880    0.0000 C.ar    1  LIG1        0.0001
     23 C           3.3500   -1.4670    0.0000 C.ar    1  LIG1        0.0013
     24 C           2.3420   -1.2960    0.0000 C.ar    1  LIG1        0.0153
@<TRIPOS>BOND
     1     1     2   am
     2     1    11    1
     3     1    16    1
     4     2     3    2
     5     2     4    1
     6     4     5    1
     7     5     6    1
     8     6     7    1
     9     7     8    1
    10     8     9    1
    11     8    10    1
    12    11    12   ar
    13    11    24   ar
    14    12    13    1
    15    12    21   ar
    16    13    14    2
    17    14    15    1
    18    15    16   ar
    19    15    20   ar
    20    16    17   ar
    21    17    18   ar
    22    18    19   ar
    23    19    20   ar
    24    21    22   ar
    25    22    23   ar
    26    23    24   ar
