@<TRIPOS>MOLECULE
25378_ChemDiv_E676-3367
 30 32 0 0 0
SMALL
GASTEIGER
Energy = 0

@<TRIPOS>ATOM
      1 C          -1.5080    0.7880    0.0000 C.ar    1  LIG1        0.1692
      2 N          -0.6330    0.2790    0.0000 N.am    1  LIG1       -0.2290
      3 C           0.2290    0.7880    0.0000 C.2     1  LIG1        0.2543
      4 C           1.0920    0.2790    0.0000 C.ar    1  LIG1        0.0540
      5 C           1.9580    0.7880    0.0000 C.ar    1  LIG1        0.0047
      6 C           2.8210    0.2710    0.0000 C.ar    1  LIG1        0.0066
      7 C           2.8330   -0.7210    0.0000 C.ar    1  LIG1        0.0757
      8 C           3.6960   -1.2420    0.0000 C.2     1  LIG1        0.3413
      9 O           3.6830   -2.2420    0.0000 O.2     1  LIG1       -0.2449
     10 O           4.5580   -0.7420    0.0000 O.3     1  LIG1       -0.4413
     11 C           4.5750    0.2710    0.0000 C.3     1  LIG1        0.2560
     12 C           1.9540   -1.2130    0.0000 C.ar    1  LIG1        0.0066
     13 C           1.0920   -0.7130    0.0000 C.ar    1  LIG1        0.0047
     14 O           0.2290    1.7750    0.0000 O.2     1  LIG1       -0.2695
     15 C          -0.6330   -0.7210    0.0000 C.3     1  LIG1        0.1628
     16 C          -1.5080   -1.2210    0.0000 C.3     1  LIG1        0.1609
     17 N          -1.5080   -2.2210    0.0000 N.4     1  LIG1        0.3786
     18 C          -2.3710   -2.7210    0.0000 C.3     1  LIG1        0.1388
     19 C          -3.2330   -2.2210    0.0000 C.3     1  LIG1        0.0688
     20 C          -0.6330   -2.7210    0.0000 C.3     1  LIG1        0.1388
     21 C          -0.6330   -3.7170    0.0000 C.3     1  LIG1        0.0688
     22 N          -2.4210    0.3790    0.0000 N.ar    1  LIG1       -0.2237
     23 C          -3.0960    1.1210    0.0000 C.ar    1  LIG1        0.0893
     24 C          -2.5880    1.9830    0.0000 C.ar    1  LIG1        0.0506
     25 S          -1.6040    1.7750    0.0000 S.2     1  LIG1       -0.0511
     26 C          -3.0830    2.8460    0.0000 C.ar    1  LIG1        0.0195
     27 C          -4.0790    2.8460    0.0000 C.ar    1  LIG1        0.0583
     28 C          -4.5790    1.9830    0.0000 C.ar    1  LIG1        0.0130
     29 C          -4.0790    1.1210    0.0000 C.ar    1  LIG1        0.0205
     30 CL         -4.5790    3.7210    0.0000 Cl      1  LIG1       -0.0822
@<TRIPOS>BOND
     1     1     2    1
     2     1    22   ar
     3     1    25   ar
     4     2     3   am
     5     2    15    1
     6     3     4    1
     7     3    14    2
     8     4     5   ar
     9     4    13   ar
    10     5     6   ar
    11     6     7   ar
    12     7     8    1
    13     7    12   ar
    14     8     9    2
    15     8    10    1
    16    10    11    1
    17    12    13   ar
    18    15    16    1
    19    16    17    1
    20    17    18    1
    21    17    20    1
    22    18    19    1
    23    20    21    1
    24    22    23   ar
    25    23    24   ar
    26    23    29   ar
    27    24    25   ar
    28    24    26   ar
    29    26    27   ar
    30    27    28   ar
    31    27    30    1
    32    28    29   ar
