@<TRIPOS>MOLECULE
25376_ChemDiv_4119-0091
 24 27 0 0 0
SMALL
GASTEIGER
Energy = 0

@<TRIPOS>ATOM
      1 N          -0.0920    1.1630    0.0000 N.am    1  LIG1       -0.2206
      2 C          -0.1830    0.1630    0.0000 C.2     1  LIG1        0.3307
      3 N           0.6380   -0.4130    0.0000 N.am    1  LIG1       -0.1897
      4 C           0.5500   -1.4040    0.0000 C.3     1  LIG1        0.0969
      5 C          -0.3540   -1.8210    0.0000 C.3     1  LIG1        0.0217
      6 C          -0.4420   -2.8080    0.0000 C.3     1  LIG1        0.0018
      7 C           0.3710   -3.3880    0.0000 C.3     1  LIG1        0.0001
      8 C           1.2750   -2.9670    0.0000 C.3     1  LIG1        0.0018
      9 C           1.3670   -1.9710    0.0000 C.3     1  LIG1        0.0217
     10 O          -1.0960   -0.2630    0.0000 O.2     1  LIG1       -0.2501
     11 C           0.8460    1.5210    0.0000 C.ar    1  LIG1        0.0596
     12 C           1.1500    2.4750    0.0000 C.ar    1  LIG1        0.0141
     13 C           0.6040    3.3040    0.0000 C.2     1  LIG1        0.0013
     14 C          -0.3960    3.3920    0.0000 C.2     1  LIG1        0.0013
     15 C          -1.0830    2.6790    0.0000 C.ar    1  LIG1        0.0141
     16 C          -0.9540    1.6830    0.0000 C.ar    1  LIG1        0.0596
     17 C          -1.7500    1.0750    0.0000 C.ar    1  LIG1        0.0153
     18 C          -2.6750    1.4630    0.0000 C.ar    1  LIG1        0.0013
     19 C          -2.8080    2.4540    0.0000 C.ar    1  LIG1        0.0001
     20 C          -2.0130    3.0630    0.0000 C.ar    1  LIG1        0.0012
     21 C           2.1290    2.6830    0.0000 C.ar    1  LIG1        0.0012
     22 C           2.8040    1.9420    0.0000 C.ar    1  LIG1        0.0001
     23 C           2.4880    0.9920    0.0000 C.ar    1  LIG1        0.0013
     24 C           1.5210    0.7830    0.0000 C.ar    1  LIG1        0.0153
@<TRIPOS>BOND
     1     1     2   am
     2     1    11    1
     3     1    16    1
     4     2     3   am
     5     2    10    2
     6     3     4    1
     7     4     5    1
     8     4     9    1
     9     5     6    1
    10     6     7    1
    11     7     8    1
    12     8     9    1
    13    11    12   ar
    14    11    24   ar
    15    12    13    1
    16    12    21   ar
    17    13    14    2
    18    14    15    1
    19    15    16   ar
    20    15    20   ar
    21    16    17   ar
    22    17    18   ar
    23    18    19   ar
    24    19    20   ar
    25    21    22   ar
    26    22    23   ar
    27    23    24   ar
