@<TRIPOS>MOLECULE
25384_ChemDiv_0599-0740
 16 18 0 0 0
SMALL
GASTEIGER
Energy = 0

@<TRIPOS>ATOM
      1 N           0.6250   -0.7710    0.0000 N.ar    1  LIG1       -0.3232
      2 C           1.2580    0.0000    0.0000 C.ar    1  LIG1        0.0910
      3 C           0.7420    0.8580    0.0000 C.ar    1  LIG1       -0.0022
      4 C          -0.2330    0.6080    0.0000 C.ar    1  LIG1        0.0130
      5 C          -0.2630   -0.3960    0.0000 C.ar    1  LIG1        0.0597
      6 C          -1.1460   -0.8580    0.0000 C.ar    1  LIG1        0.0169
      7 C          -1.9790   -0.3420    0.0000 C.ar    1  LIG1       -0.0028
      8 C          -1.9500    0.6630    0.0000 C.ar    1  LIG1       -0.0218
      9 C          -1.0670    1.1130    0.0000 C.ar    1  LIG1       -0.0031
     10 C          -2.8380    1.2040    0.0000 C.3     1  LIG1        0.0310
     11 C           1.2000    1.7170    0.0000 C.3     1  LIG1        0.0284
     12 C           2.2000    1.7750    0.0000 C.3     1  LIG1        0.0129
     13 C           2.7460    0.9460    0.0000 C.3     1  LIG1        0.0710
     14 C           2.2920    0.0580    0.0000 C.2     1  LIG1        0.1884
     15 O           2.8330   -0.8000    0.0000 O.2     1  LIG1       -0.2898
     16 C           0.8290   -1.7710    0.0000 C.3     1  LIG1        0.1305
@<TRIPOS>BOND
     1     1     2   ar
     2     1     5   ar
     3     1    16    1
     4     2     3   ar
     5     2    14    1
     6     3     4   ar
     7     3    11    1
     8     4     5   ar
     9     4     9   ar
    10     5     6   ar
    11     6     7   ar
    12     7     8   ar
    13     8     9   ar
    14     8    10    1
    15    11    12    1
    16    12    13    1
    17    13    14    1
    18    14    15    2
