@<TRIPOS>MOLECULE
25388_ChemDiv_3472-2250
 20 22 0 0 0
SMALL
GASTEIGER
Energy = 0

@<TRIPOS>ATOM
      1 N           0.8830   -0.6670    0.0000 N.ar    1  LIG1       -0.3252
      2 C           1.7210   -0.1960    0.0000 C.ar    1  LIG1        0.0910
      3 C           1.7210    0.7500    0.0000 C.ar    1  LIG1       -0.0022
      4 C           0.0420    0.7500    0.0000 C.ar    1  LIG1        0.0130
      5 C           0.0420   -0.1960    0.0000 C.ar    1  LIG1        0.0596
      6 C          -0.7880   -0.6670    0.0000 C.ar    1  LIG1        0.0169
      7 C          -1.6250   -0.1960    0.0000 C.ar    1  LIG1       -0.0028
      8 C          -1.6250    0.7500    0.0000 C.ar    1  LIG1       -0.0227
      9 C          -0.7880    1.2290    0.0000 C.ar    1  LIG1       -0.0031
     10 C          -2.4880    1.2460    0.0000 C.3     1  LIG1        0.0189
     11 C          -3.3880    1.7040    0.0000 C.3     1  LIG1        0.0044
     12 C          -2.0500    2.1500    0.0000 C.3     1  LIG1        0.0044
     13 C          -2.9210    0.3630    0.0000 C.3     1  LIG1        0.0044
     14 C           2.5630    1.2290    0.0000 C.3     1  LIG1        0.0284
     15 C           3.3830    0.7500    0.0000 C.3     1  LIG1        0.0129
     16 C           3.3830   -0.1960    0.0000 C.3     1  LIG1        0.0710
     17 C           2.5630   -0.6670    0.0000 C.2     1  LIG1        0.1884
     18 O           2.5630   -1.6580    0.0000 O.2     1  LIG1       -0.2898
     19 C           0.8830   -1.6580    0.0000 C.3     1  LIG1        0.1062
     20 C           0.0380   -2.1460    0.0000 C.3     1  LIG1        0.0265
@<TRIPOS>BOND
     1     1     2   ar
     2     1     5   ar
     3     1    19    1
     4     2     3   ar
     5     2    17    1
     6     3     4   ar
     7     3    14    1
     8     4     5   ar
     9     4     9   ar
    10     5     6   ar
    11     6     7   ar
    12     7     8   ar
    13     8     9   ar
    14     8    10    1
    15    10    11    1
    16    10    12    1
    17    10    13    1
    18    14    15    1
    19    15    16    1
    20    16    17    1
    21    17    18    2
    22    19    20    1
