@<TRIPOS>MOLECULE
25382_ChemDiv_E677-1546
 26 29 0 0 0
SMALL
GASTEIGER
Energy = 0

@<TRIPOS>ATOM
      1 C          -0.0040    0.8580    0.0000 C.ar    1  LIG1        0.1690
      2 N           0.8630    0.3460    0.0000 N.am    1  LIG1       -0.2345
      3 C           1.7250    0.8580    0.0000 C.2     1  LIG1        0.2602
      4 C           2.5880    0.3460    0.0000 C.ar    1  LIG1        0.0834
      5 S           2.7080   -0.6500    0.0000 S.2     1  LIG1       -0.0819
      6 C           3.6790   -0.8540    0.0000 C.ar    1  LIG1        0.0356
      7 C           4.1750    0.0080    0.0000 C.ar    1  LIG1        0.0076
      8 C           3.5080    0.7580    0.0000 C.ar    1  LIG1        0.0116
      9 O           1.7250    1.8460    0.0000 O.2     1  LIG1       -0.2690
     10 C           0.8630   -0.6500    0.0000 C.3     1  LIG1        0.1066
     11 C          -0.0040   -1.1500    0.0000 C.3     1  LIG1        0.0846
     12 C          -0.0040   -2.1500    0.0000 C.3     1  LIG1        0.1410
     13 N          -0.8670   -2.6500    0.0000 N.4     1  LIG1        0.3867
     14 C          -1.7380   -2.1500    0.0000 C.3     1  LIG1        0.2025
     15 C          -0.8670   -3.6500    0.0000 C.3     1  LIG1        0.2025
     16 N          -0.9250    0.4500    0.0000 N.ar    1  LIG1       -0.2236
     17 C          -1.5920    1.1920    0.0000 C.ar    1  LIG1        0.0925
     18 C          -1.0920    2.0580    0.0000 C.ar    1  LIG1        0.0530
     19 S          -0.1080    1.8540    0.0000 S.2     1  LIG1       -0.0511
     20 C          -1.6000    2.9170    0.0000 C.ar    1  LIG1        0.0482
     21 C          -2.6000    2.9040    0.0000 C.ar    1  LIG1        0.1770
     22 C          -3.0920    2.0420    0.0000 C.ar    1  LIG1        0.1780
     23 C          -2.5830    1.1790    0.0000 C.ar    1  LIG1        0.0598
     24 O          -4.0670    2.2380    0.0000 O.3     1  LIG1       -0.4346
     25 C          -4.1790    3.2380    0.0000 C.3     1  LIG1        0.4294
     26 O          -3.2710    3.6540    0.0000 O.3     1  LIG1       -0.4346
@<TRIPOS>BOND
     1     1     2    1
     2     1    16   ar
     3     1    19   ar
     4     2     3   am
     5     2    10    1
     6     3     4    1
     7     3     9    2
     8     4     5   ar
     9     4     8   ar
    10     5     6   ar
    11     6     7   ar
    12     7     8   ar
    13    10    11    1
    14    11    12    1
    15    12    13    1
    16    13    14    1
    17    13    15    1
    18    16    17   ar
    19    17    18   ar
    20    17    23   ar
    21    18    19   ar
    22    18    20   ar
    23    20    21   ar
    24    21    22   ar
    25    21    26    1
    26    22    23   ar
    27    22    24    1
    28    24    25    1
    29    25    26    1
