@<TRIPOS>MOLECULE
25389_ChemDiv_0485-0353
 34 36 0 0 0
SMALL
GASTEIGER
Energy = 0

@<TRIPOS>ATOM
      1 S          -4.1040    0.6290    0.0000 S.O2    1  LIG1       -0.0565
      2 N          -5.1080    0.6290    0.0000 N.pl3   1  LIG1       -0.5138
      3 C          -5.5920   -0.2290    0.0000 C.ar    1  LIG1        0.0278
      4 S          -5.3040   -1.1750    0.0000 S.2     1  LIG1       -0.0738
      5 C          -6.1040   -1.7460    0.0000 C.ar    1  LIG1        0.1094
      6 N          -6.9000   -1.1750    0.0000 N.ar    1  LIG1       -0.1471
      7 N          -6.5880   -0.2290    0.0000 N.ar    1  LIG1       -0.1653
      8 C          -6.1290   -2.7500    0.0000 C.3     1  LIG1        0.0544
      9 C          -5.2750   -3.2380    0.0000 C.3     1  LIG1        0.0073
     10 C          -3.1040    0.6290    0.0000 C.ar    1  LIG1        0.0894
     11 C          -2.6080    1.4880    0.0000 C.ar    1  LIG1        0.0182
     12 C          -1.6040    1.5250    0.0000 C.ar    1  LIG1        0.0179
     13 C          -1.0960    0.6290    0.0000 C.ar    1  LIG1        0.0738
     14 N          -0.0580    0.6290    0.0000 N.am    1  LIG1       -0.1754
     15 C           0.4250    1.4880    0.0000 C.2     1  LIG1        0.2690
     16 C           1.4290    1.4880    0.0000 C.ar    1  LIG1        0.0555
     17 C           1.9130    2.3460    0.0000 C.ar    1  LIG1        0.0059
     18 C           2.9130    2.3460    0.0000 C.ar    1  LIG1        0.0201
     19 C           3.4330    1.4580    0.0000 C.ar    1  LIG1        0.1222
     20 S           4.4330    1.4880    0.0000 S.O2    1  LIG1        0.0633
     21 N           5.4380    1.4880    0.0000 N.3     1  LIG1       -0.1555
     22 C           5.9210    2.3830    0.0000 C.3     1  LIG1        0.0958
     23 C           5.4380    3.2420    0.0000 C.3     1  LIG1        0.0206
     24 C           5.9210    0.6290    0.0000 C.3     1  LIG1        0.0958
     25 C           6.9000    0.6000    0.0000 C.3     1  LIG1        0.0206
     26 O           4.4130    2.4920    0.0000 O.2     1  LIG1       -0.1528
     27 O           4.4330    0.4830    0.0000 O.2     1  LIG1       -0.1528
     28 C           2.8880    0.6000    0.0000 C.ar    1  LIG1        0.0201
     29 C           1.9130    0.6000    0.0000 C.ar    1  LIG1        0.0059
     30 O          -0.0580    2.3830    0.0000 O.2     1  LIG1       -0.2680
     31 C          -1.5790   -0.2290    0.0000 C.ar    1  LIG1        0.0179
     32 C          -2.5830   -0.2290    0.0000 C.ar    1  LIG1        0.0182
     33 O          -4.1040    1.6290    0.0000 O.2     1  LIG1       -0.1841
     34 O          -4.1040   -0.3750    0.0000 O.2     1  LIG1       -0.1841
@<TRIPOS>BOND
     1     1     2    1
     2     1    10    1
     3     1    33    2
     4     1    34    2
     5     2     3    1
     6     3     4   ar
     7     3     7   ar
     8     4     5   ar
     9     5     6   ar
    10     5     8    1
    11     6     7   ar
    12     8     9    1
    13    10    11   ar
    14    10    32   ar
    15    11    12   ar
    16    12    13   ar
    17    13    14    1
    18    13    31   ar
    19    14    15   am
    20    15    16    1
    21    15    30    2
    22    16    17   ar
    23    16    29   ar
    24    17    18   ar
    25    18    19   ar
    26    19    20    1
    27    19    28   ar
    28    20    21    1
    29    20    26    2
    30    20    27    2
    31    21    22    1
    32    21    24    1
    33    22    23    1
    34    24    25    1
    35    28    29   ar
    36    31    32   ar
