@<TRIPOS>MOLECULE
25381_ChemDiv_0469-0646
 21 23 0 0 0
SMALL
GASTEIGER
Energy = 0

@<TRIPOS>ATOM
      1 N          -0.1290   -1.0710    0.0000 N.ar    1  LIG1       -0.2577
      2 C           0.4710   -1.8710    0.0000 C.ar    1  LIG1        0.1755
      3 N          -0.1290   -2.6630    0.0000 N.ar    1  LIG1       -0.2210
      4 C          -1.0920   -2.3580    0.0000 C.ar    1  LIG1        0.0993
      5 C          -1.0920   -1.3670    0.0000 C.ar    1  LIG1        0.0843
      6 C          -1.9460   -0.8500    0.0000 C.ar    1  LIG1        0.0190
      7 C          -2.8210   -1.3670    0.0000 C.ar    1  LIG1        0.0016
      8 C          -2.8210   -2.3580    0.0000 C.ar    1  LIG1        0.0016
      9 C          -1.9460   -2.8500    0.0000 C.ar    1  LIG1        0.0206
     10 S           1.4880   -1.8710    0.0000 S.3     1  LIG1       -0.0763
     11 C           1.9500   -2.7380    0.0000 C.3     1  LIG1        0.0772
     12 C           0.1920   -0.1420    0.0000 C.3     1  LIG1        0.2601
     13 N          -0.4580    0.6130    0.0000 N.4     1  LIG1        0.4037
     14 C          -0.1380    1.5460    0.0000 C.3     1  LIG1        0.1693
     15 C           0.8210    1.7380    0.0000 C.ar    1  LIG1        0.0345
     16 C           1.1580    2.6880    0.0000 C.ar    1  LIG1        0.0014
     17 C           2.1630    2.8540    0.0000 C.ar    1  LIG1       -0.0001
     18 C           2.8170    2.0790    0.0000 C.ar    1  LIG1       -0.0000
     19 C           2.4670    1.1500    0.0000 C.ar    1  LIG1       -0.0001
     20 C           1.4750    0.9670    0.0000 C.ar    1  LIG1        0.0014
     21 C          -1.4380    0.3750    0.0000 C.3     1  LIG1        0.2056
@<TRIPOS>BOND
     1     1     2   ar
     2     1     5   ar
     3     1    12    1
     4     2     3   ar
     5     2    10    1
     6     3     4   ar
     7     4     5   ar
     8     4     9   ar
     9     5     6   ar
    10     6     7   ar
    11     7     8   ar
    12     8     9   ar
    13    10    11    1
    14    12    13    1
    15    13    14    1
    16    13    21    1
    17    14    15    1
    18    15    16   ar
    19    15    20   ar
    20    16    17   ar
    21    17    18   ar
    22    18    19   ar
    23    19    20   ar
