@<TRIPOS>MOLECULE
25383_ChemDiv_0478-0700
 23 26 0 0 0
SMALL
GASTEIGER
Energy = 0

@<TRIPOS>ATOM
      1 C           0.3670    0.5670    0.0000 C.ar    1  LIG1        0.1476
      2 N          -0.5130    0.9710    0.0000 N.ar    1  LIG1       -0.2264
      3 C          -1.1960    0.2290    0.0000 C.ar    1  LIG1        0.1003
      4 C          -0.7000   -0.6420    0.0000 C.ar    1  LIG1        0.0830
      5 N           0.2830   -0.4380    0.0000 N.ar    1  LIG1       -0.2903
      6 C           1.0210   -1.0960    0.0000 C.ar    1  LIG1        0.0654
      7 C           1.9750   -0.7920    0.0000 C.ar    1  LIG1        0.0176
      8 C           2.7250   -1.4500    0.0000 C.ar    1  LIG1        0.0015
      9 C           2.5250   -2.4420    0.0000 C.ar    1  LIG1        0.0001
     10 C           1.5580   -2.7420    0.0000 C.ar    1  LIG1        0.0015
     11 C           0.8170   -2.0750    0.0000 C.ar    1  LIG1        0.0176
     12 C          -1.1960   -1.5080    0.0000 C.ar    1  LIG1        0.0205
     13 C          -2.1960   -1.5080    0.0000 C.ar    1  LIG1        0.0196
     14 C          -2.7040   -0.6420    0.0000 C.ar    1  LIG1        0.0907
     15 C          -2.1960    0.2290    0.0000 C.ar    1  LIG1        0.0387
     16 N          -3.6960   -0.6420    0.0000 N.pl3   1  LIG1       -0.1280
     17 C           1.2170    1.1080    0.0000 C.ar    1  LIG1        0.0346
     18 C           2.1000    0.6540    0.0000 C.ar    1  LIG1        0.0044
     19 C           2.9420    1.2000    0.0000 C.ar    1  LIG1        0.0182
     20 C           2.8710    2.2040    0.0000 C.ar    1  LIG1        0.0891
     21 N           3.6920    2.7460    0.0000 N.pl3   1  LIG1       -0.1281
     22 C           1.9880    2.6580    0.0000 C.ar    1  LIG1        0.0182
     23 C           1.1460    2.1080    0.0000 C.ar    1  LIG1        0.0044
@<TRIPOS>BOND
     1     1     2   ar
     2     1     5   ar
     3     1    17    1
     4     2     3   ar
     5     3     4   ar
     6     3    15   ar
     7     4     5   ar
     8     4    12   ar
     9     5     6    1
    10     6     7   ar
    11     6    11   ar
    12     7     8   ar
    13     8     9   ar
    14     9    10   ar
    15    10    11   ar
    16    12    13   ar
    17    13    14   ar
    18    14    15   ar
    19    14    16    1
    20    17    18   ar
    21    17    23   ar
    22    18    19   ar
    23    19    20   ar
    24    20    21    1
    25    20    22   ar
    26    22    23   ar
