@<TRIPOS>MOLECULE
25380_ChemDiv_E676-4353
 27 30 0 0 0
SMALL
GASTEIGER
Energy = 0

@<TRIPOS>ATOM
      1 C          -0.0170    0.8630    0.0000 C.ar    1  LIG1        0.1693
      2 N           0.8540    0.3580    0.0000 N.am    1  LIG1       -0.2265
      3 C           1.7290    0.8630    0.0000 C.2     1  LIG1        0.2891
      4 C           2.5920    0.3580    0.0000 C.ar    1  LIG1        0.1991
      5 O           2.7000   -0.6250    0.0000 O.2     1  LIG1       -0.4458
      6 C           3.6920   -0.8380    0.0000 C.ar    1  LIG1        0.1798
      7 C           4.1750    0.0170    0.0000 C.ar    1  LIG1        0.0440
      8 C           3.5250    0.7750    0.0000 C.ar    1  LIG1        0.0455
      9 O           1.7290    1.8580    0.0000 O.2     1  LIG1       -0.2662
     10 C           0.8540   -0.6420    0.0000 C.3     1  LIG1        0.1629
     11 C          -0.0170   -1.1420    0.0000 C.3     1  LIG1        0.1609
     12 N          -0.0170   -2.1420    0.0000 N.4     1  LIG1        0.3786
     13 C          -0.8750   -2.6460    0.0000 C.3     1  LIG1        0.1388
     14 C          -1.7380   -2.1420    0.0000 C.3     1  LIG1        0.0688
     15 C           0.8540   -2.6460    0.0000 C.3     1  LIG1        0.1388
     16 C           0.8540   -3.6460    0.0000 C.3     1  LIG1        0.0688
     17 N          -0.9250    0.4540    0.0000 N.ar    1  LIG1       -0.2236
     18 C          -1.6000    1.1960    0.0000 C.ar    1  LIG1        0.0925
     19 C          -1.1000    2.0710    0.0000 C.ar    1  LIG1        0.0530
     20 S          -0.1210    1.8750    0.0000 S.2     1  LIG1       -0.0511
     21 C          -1.6000    2.9250    0.0000 C.ar    1  LIG1        0.0482
     22 C          -2.6080    2.9130    0.0000 C.ar    1  LIG1        0.1770
     23 C          -3.1040    2.0580    0.0000 C.ar    1  LIG1        0.1780
     24 C          -2.5920    1.1920    0.0000 C.ar    1  LIG1        0.0598
     25 O          -4.0750    2.2540    0.0000 O.3     1  LIG1       -0.4346
     26 C          -4.1790    3.2460    0.0000 C.3     1  LIG1        0.4294
     27 O          -3.2750    3.6500    0.0000 O.3     1  LIG1       -0.4346
@<TRIPOS>BOND
     1     1     2    1
     2     1    17   ar
     3     1    20   ar
     4     2     3   am
     5     2    10    1
     6     3     4    1
     7     3     9    2
     8     4     5   ar
     9     4     8   ar
    10     5     6   ar
    11     6     7   ar
    12     7     8   ar
    13    10    11    1
    14    11    12    1
    15    12    13    1
    16    12    15    1
    17    13    14    1
    18    15    16    1
    19    17    18   ar
    20    18    19   ar
    21    18    24   ar
    22    19    20   ar
    23    19    21   ar
    24    21    22   ar
    25    22    23   ar
    26    22    27    1
    27    23    24   ar
    28    23    25    1
    29    25    26    1
    30    26    27    1
