@<TRIPOS>MOLECULE
25392_ChemDiv_4401-0082
 24 26 0 0 0
SMALL
GASTEIGER
Energy = 0

@<TRIPOS>ATOM
      1 N           0.4290    1.2380    0.0000 N.ar    1  LIG1       -0.3223
      2 C           1.2710    1.7210    0.0000 C.ar    1  LIG1        0.0911
      3 C           1.2630    2.6920    0.0000 C.ar    1  LIG1       -0.0021
      4 C          -0.4080    2.6830    0.0000 C.ar    1  LIG1        0.0141
      5 C          -0.4080    1.7210    0.0000 C.ar    1  LIG1        0.0598
      6 C          -1.2580    1.2250    0.0000 C.ar    1  LIG1        0.0180
      7 C          -2.1000    1.7130    0.0000 C.ar    1  LIG1        0.0129
      8 C          -2.1000    2.6920    0.0000 C.ar    1  LIG1        0.0578
      9 C          -1.2500    3.1710    0.0000 C.ar    1  LIG1        0.0126
     10 CL         -2.9460    3.1710    0.0000 Cl      1  LIG1       -0.0822
     11 C           2.1000    3.1710    0.0000 C.3     1  LIG1        0.0284
     12 C           2.9420    2.6920    0.0000 C.3     1  LIG1        0.0129
     13 C           2.9420    1.7290    0.0000 C.3     1  LIG1        0.0710
     14 C           2.1000    1.2460    0.0000 C.2     1  LIG1        0.1884
     15 O           2.0960    0.2670    0.0000 O.2     1  LIG1       -0.2898
     16 C           0.4290    0.2580    0.0000 C.3     1  LIG1        0.1451
     17 C          -0.4080   -0.2330    0.0000 C.3     1  LIG1        0.2306
     18 C          -0.4080   -1.2130    0.0000 C.3     1  LIG1        0.1739
     19 N          -1.2500   -1.7130    0.0000 N.4     1  LIG1        0.3793
     20 C          -1.2500   -2.6880    0.0000 C.3     1  LIG1        0.1389
     21 C          -0.4040   -3.1670    0.0000 C.3     1  LIG1        0.0688
     22 C          -2.1040   -1.2210    0.0000 C.3     1  LIG1        0.1389
     23 C          -2.1040   -0.2380    0.0000 C.3     1  LIG1        0.0688
     24 O          -1.2580    0.2540    0.0000 O.3     1  LIG1       -0.2146
@<TRIPOS>BOND
     1     1     2   ar
     2     1     5   ar
     3     1    16    1
     4     2     3   ar
     5     2    14    1
     6     3     4   ar
     7     3    11    1
     8     4     5   ar
     9     4     9   ar
    10     5     6   ar
    11     6     7   ar
    12     7     8   ar
    13     8     9   ar
    14     8    10    1
    15    11    12    1
    16    12    13    1
    17    13    14    1
    18    14    15    2
    19    16    17    1
    20    17    18    1
    21    17    24    1
    22    18    19    1
    23    19    20    1
    24    19    22    1
    25    20    21    1
    26    22    23    1
