@<TRIPOS>MOLECULE
25398_ChemDiv_4480-0943
 23 26 0 0 0
SMALL
GASTEIGER
Energy = 0

@<TRIPOS>ATOM
      1 N           0.0630    0.3960    0.0000 N.am    1  LIG1       -0.2218
      2 C           0.0630   -0.5830    0.0000 C.2     1  LIG1        0.3147
      3 N           0.9250   -1.0580    0.0000 N.am    1  LIG1       -0.2635
      4 C           0.9250   -2.0830    0.0000 C.3     1  LIG1        0.0950
      5 C           1.8290   -2.5790    0.0000 C.3     1  LIG1        0.0216
      6 C           2.7000   -2.0460    0.0000 C.3     1  LIG1        0.0035
      7 C           2.7000   -1.0460    0.0000 C.3     1  LIG1        0.0216
      8 C           1.7830   -0.5580    0.0000 C.3     1  LIG1        0.0950
      9 O          -0.7000   -1.0460    0.0000 O.2     1  LIG1       -0.2517
     10 C          -0.8420    0.8080    0.0000 C.ar    1  LIG1        0.0595
     11 C          -1.0830    1.7460    0.0000 C.ar    1  LIG1        0.0141
     12 C          -0.4830    2.5830    0.0000 C.2     1  LIG1        0.0013
     13 C           0.5040    2.5830    0.0000 C.2     1  LIG1        0.0013
     14 C           1.1420    1.7920    0.0000 C.ar    1  LIG1        0.0141
     15 C           0.9250    0.8250    0.0000 C.ar    1  LIG1        0.0595
     16 C           1.6460    0.1750    0.0000 C.ar    1  LIG1        0.0153
     17 C           2.6250    0.4960    0.0000 C.ar    1  LIG1        0.0013
     18 C           2.8210    1.4880    0.0000 C.ar    1  LIG1        0.0001
     19 C           2.1040    2.1330    0.0000 C.ar    1  LIG1        0.0012
     20 C          -2.0460    2.0790    0.0000 C.ar    1  LIG1        0.0012
     21 C          -2.8250    1.3580    0.0000 C.ar    1  LIG1        0.0001
     22 C          -2.5540    0.3960    0.0000 C.ar    1  LIG1        0.0013
     23 C          -1.6210    0.1210    0.0000 C.ar    1  LIG1        0.0153
@<TRIPOS>BOND
     1     1     2   am
     2     1    10    1
     3     1    15    1
     4     2     3   am
     5     2     9    2
     6     3     4    1
     7     3     8    1
     8     4     5    1
     9     5     6    1
    10     6     7    1
    11     7     8    1
    12    10    11   ar
    13    10    23   ar
    14    11    12    1
    15    11    20   ar
    16    12    13    2
    17    13    14    1
    18    14    15   ar
    19    14    19   ar
    20    15    16   ar
    21    16    17   ar
    22    17    18   ar
    23    18    19   ar
    24    20    21   ar
    25    21    22   ar
    26    22    23   ar
