@<TRIPOS>MOLECULE
25390_ChemDiv_4401-0080
 26 29 0 0 0
SMALL
GASTEIGER
Energy = 0

@<TRIPOS>ATOM
      1 N           0.4250    1.9710    0.0000 N.ar    1  LIG1       -0.3225
      2 C           1.2670    2.4630    0.0000 C.ar    1  LIG1        0.0911
      3 C           1.2670    3.4250    0.0000 C.ar    1  LIG1       -0.0022
      4 C          -0.4170    3.4250    0.0000 C.ar    1  LIG1        0.0130
      5 C          -0.4170    2.4580    0.0000 C.ar    1  LIG1        0.0597
      6 C          -1.2580    1.9580    0.0000 C.ar    1  LIG1        0.0169
      7 C          -2.1000    2.4580    0.0000 C.ar    1  LIG1       -0.0028
      8 C          -2.1000    3.4250    0.0000 C.ar    1  LIG1       -0.0218
      9 C          -1.2460    3.9130    0.0000 C.ar    1  LIG1       -0.0031
     10 C          -2.9540    3.9250    0.0000 C.3     1  LIG1        0.0310
     11 C           2.1080    3.9130    0.0000 C.3     1  LIG1        0.0284
     12 C           2.9500    3.4330    0.0000 C.3     1  LIG1        0.0129
     13 C           2.9500    2.4630    0.0000 C.3     1  LIG1        0.0710
     14 C           2.1080    1.9790    0.0000 C.2     1  LIG1        0.1884
     15 O           2.1080    1.0080    0.0000 O.2     1  LIG1       -0.2898
     16 C           0.4380    0.9960    0.0000 C.3     1  LIG1        0.1407
     17 C          -0.4170    0.5040    0.0000 C.3     1  LIG1        0.1958
     18 C          -0.4170   -0.4880    0.0000 C.3     1  LIG1        0.1470
     19 N          -1.2460   -0.9750    0.0000 N.pl3   1  LIG1       -0.2348
     20 C          -1.2460   -1.9630    0.0000 C.ar    1  LIG1        0.0654
     21 C          -2.1000   -2.4500    0.0000 C.ar    1  LIG1        0.0161
     22 C          -2.1000   -3.4330    0.0000 C.ar    1  LIG1        0.0013
     23 C          -1.2380   -3.9210    0.0000 C.ar    1  LIG1        0.0001
     24 C          -0.3960   -3.4210    0.0000 C.ar    1  LIG1        0.0013
     25 C          -0.4040   -2.4420    0.0000 C.ar    1  LIG1        0.0161
     26 O          -1.2580    0.9830    0.0000 O.3     1  LIG1       -0.2191
@<TRIPOS>BOND
     1     1     2   ar
     2     1     5   ar
     3     1    16    1
     4     2     3   ar
     5     2    14    1
     6     3     4   ar
     7     3    11    1
     8     4     5   ar
     9     4     9   ar
    10     5     6   ar
    11     6     7   ar
    12     7     8   ar
    13     8     9   ar
    14     8    10    1
    15    11    12    1
    16    12    13    1
    17    13    14    1
    18    14    15    2
    19    16    17    1
    20    17    18    1
    21    17    26    1
    22    18    19    1
    23    19    20    1
    24    20    21   ar
    25    20    25   ar
    26    21    22   ar
    27    22    23   ar
    28    23    24   ar
    29    24    25   ar
