@<TRIPOS>MOLECULE
25397_ChemDiv_4929-0002
 32 34 0 0 0
SMALL
GASTEIGER
Energy = 0

@<TRIPOS>ATOM
      1 C           2.3130    1.1290    0.0000 C.ar    1  LIG1        0.0887
      2 C           2.9080    0.3170    0.0000 C.ar    1  LIG1        0.0440
      3 N           2.3130   -0.4880    0.0000 N.ar    1  LIG1       -0.3262
      4 C           1.3580   -0.1830    0.0000 C.ar    1  LIG1        0.0603
      5 C           1.3580    0.8250    0.0000 C.ar    1  LIG1        0.0261
      6 C           0.4880    1.3250    0.0000 C.ar    1  LIG1        0.0386
      7 C          -0.3710    0.8210    0.0000 C.ar    1  LIG1        0.1388
      8 O          -1.2380    1.3130    0.0000 O.3     1  LIG1       -0.4725
      9 C          -2.1080    0.8210    0.0000 C.3     1  LIG1        0.2445
     10 C          -2.9750    1.3130    0.0000 C.3     1  LIG1        0.2574
     11 C          -3.8330    0.8210    0.0000 C.3     1  LIG1        0.2370
     12 N          -3.8330   -0.1830    0.0000 N.4     1  LIG1        0.4412
     13 C          -4.7000   -0.6960    0.0000 C.3     1  LIG1        0.0979
     14 C          -5.5710   -1.1790    0.0000 C.3     1  LIG1        0.0627
     15 C          -4.1960   -1.5500    0.0000 C.3     1  LIG1        0.0627
     16 C          -5.2000    0.1830    0.0000 C.3     1  LIG1        0.0627
     17 O          -2.9750    2.3080    0.0000 O.3     1  LIG1       -0.2124
     18 C          -0.3710   -0.1830    0.0000 C.ar    1  LIG1        0.0384
     19 C           0.4880   -0.6960    0.0000 C.ar    1  LIG1        0.0203
     20 C           2.6290   -1.4420    0.0000 C.3     1  LIG1        0.1324
     21 C           3.6000   -1.6500    0.0000 C.ar    1  LIG1        0.0004
     22 C           3.9130   -2.5960    0.0000 C.ar    1  LIG1       -0.0024
     23 C           4.8960   -2.8210    0.0000 C.ar    1  LIG1       -0.0003
     24 C           5.5670   -2.0670    0.0000 C.ar    1  LIG1       -0.0000
     25 C           5.2460   -1.1210    0.0000 C.ar    1  LIG1       -0.0003
     26 C           4.2710   -0.9130    0.0000 C.ar    1  LIG1       -0.0024
     27 C           3.9040    0.3170    0.0000 C.3     1  LIG1        0.0502
     28 C           2.6290    2.0790    0.0000 C.2     1  LIG1        0.3423
     29 O           1.9630    2.8250    0.0000 O.2     1  LIG1       -0.2449
     30 O           3.6000    2.2830    0.0000 O.3     1  LIG1       -0.4454
     31 C           4.2750    1.5540    0.0000 C.3     1  LIG1        0.2089
     32 C           5.2460    1.7630    0.0000 C.3     1  LIG1        0.0513
@<TRIPOS>BOND
     1     1     2   ar
     2     1     5   ar
     3     1    28    1
     4     2     3   ar
     5     2    27    1
     6     3     4   ar
     7     3    20    1
     8     4     5   ar
     9     4    19   ar
    10     5     6   ar
    11     6     7   ar
    12     7     8    1
    13     7    18   ar
    14     8     9    1
    15     9    10    1
    16    10    11    1
    17    10    17    1
    18    11    12    1
    19    12    13    1
    20    13    14    1
    21    13    15    1
    22    13    16    1
    23    18    19   ar
    24    20    21    1
    25    21    22   ar
    26    21    26   ar
    27    22    23   ar
    28    23    24   ar
    29    24    25   ar
    30    25    26   ar
    31    28    29    2
    32    28    30    1
    33    30    31    1
    34    31    32    1
