@<TRIPOS>MOLECULE
25399_ChemDiv_4929-0003
 35 37 0 0 0
SMALL
GASTEIGER
Energy = 0

@<TRIPOS>ATOM
      1 C           2.7420    1.1290    0.0000 C.ar    1  LIG1        0.0887
      2 C           3.3420    0.3170    0.0000 C.ar    1  LIG1        0.0440
      3 N           2.7420   -0.4880    0.0000 N.ar    1  LIG1       -0.3262
      4 C           1.7920   -0.1830    0.0000 C.ar    1  LIG1        0.0603
      5 C           1.7920    0.8250    0.0000 C.ar    1  LIG1        0.0261
      6 C           0.9210    1.3250    0.0000 C.ar    1  LIG1        0.0386
      7 C           0.0630    0.8210    0.0000 C.ar    1  LIG1        0.1388
      8 O          -0.8040    1.3080    0.0000 O.3     1  LIG1       -0.4725
      9 C          -1.6750    0.8210    0.0000 C.3     1  LIG1        0.2445
     10 C          -2.5380    1.3080    0.0000 C.3     1  LIG1        0.2574
     11 C          -3.4000    0.8210    0.0000 C.3     1  LIG1        0.2374
     12 N          -3.4000   -0.1830    0.0000 N.4     1  LIG1        0.4473
     13 C          -4.2670   -0.6920    0.0000 C.3     1  LIG1        0.1904
     14 C          -5.1330   -1.1790    0.0000 C.3     1  LIG1        0.2435
     15 O          -6.0000   -0.6670    0.0000 O.3     1  LIG1       -0.2138
     16 C          -3.7630   -1.5500    0.0000 C.3     1  LIG1        0.2435
     17 O          -4.2790   -2.4130    0.0000 O.3     1  LIG1       -0.2138
     18 C          -4.7670    0.1830    0.0000 C.3     1  LIG1        0.2435
     19 O          -4.2670    1.0460    0.0000 O.3     1  LIG1       -0.2138
     20 O          -2.5380    2.3080    0.0000 O.3     1  LIG1       -0.2124
     21 C           0.0630   -0.1830    0.0000 C.ar    1  LIG1        0.0384
     22 C           0.9210   -0.6920    0.0000 C.ar    1  LIG1        0.0203
     23 C           3.0630   -1.4420    0.0000 C.3     1  LIG1        0.1324
     24 C           4.0330   -1.6500    0.0000 C.ar    1  LIG1        0.0004
     25 C           4.7000   -0.9130    0.0000 C.ar    1  LIG1       -0.0024
     26 C           5.6790   -1.1170    0.0000 C.ar    1  LIG1       -0.0003
     27 C           5.9960   -2.0670    0.0000 C.ar    1  LIG1       -0.0000
     28 C           5.3290   -2.8170    0.0000 C.ar    1  LIG1       -0.0003
     29 C           4.3420   -2.5960    0.0000 C.ar    1  LIG1       -0.0024
     30 C           4.3380    0.3170    0.0000 C.3     1  LIG1        0.0502
     31 C           3.0630    2.0790    0.0000 C.2     1  LIG1        0.3423
     32 O           2.3960    2.8210    0.0000 O.2     1  LIG1       -0.2449
     33 O           4.0330    2.2830    0.0000 O.3     1  LIG1       -0.4454
     34 C           4.7040    1.5540    0.0000 C.3     1  LIG1        0.2089
     35 C           5.6790    1.7580    0.0000 C.3     1  LIG1        0.0513
@<TRIPOS>BOND
     1     1     2   ar
     2     1     5   ar
     3     1    31    1
     4     2     3   ar
     5     2    30    1
     6     3     4   ar
     7     3    23    1
     8     4     5   ar
     9     4    22   ar
    10     5     6   ar
    11     6     7   ar
    12     7     8    1
    13     7    21   ar
    14     8     9    1
    15     9    10    1
    16    10    11    1
    17    10    20    1
    18    11    12    1
    19    12    13    1
    20    13    14    1
    21    13    16    1
    22    13    18    1
    23    14    15    1
    24    16    17    1
    25    18    19    1
    26    21    22   ar
    27    23    24    1
    28    24    25   ar
    29    24    29   ar
    30    25    26   ar
    31    26    27   ar
    32    27    28   ar
    33    28    29   ar
    34    31    32    2
    35    31    33    1
    36    33    34    1
    37    34    35    1
