@<TRIPOS>MOLECULE
25394_ChemDiv_4480-0784
 26 29 0 0 0
SMALL
GASTEIGER
Energy = 0

@<TRIPOS>ATOM
      1 N           1.2000   -0.3630    0.0000 N.am    1  LIG1       -0.2324
      2 C           2.1000    0.0500    0.0000 C.ar    1  LIG1        0.0582
      3 C           2.3080    1.0290    0.0000 C.ar    1  LIG1        0.0140
      4 C           1.7170    1.8460    0.0000 C.2     1  LIG1        0.0013
      5 C           0.7000    1.8460    0.0000 C.2     1  LIG1        0.0013
      6 C           0.1080    1.0670    0.0000 C.ar    1  LIG1        0.0140
      7 C           0.3290    0.0710    0.0000 C.ar    1  LIG1        0.0582
      8 C          -0.4250   -0.5830    0.0000 C.ar    1  LIG1        0.0152
      9 C          -1.3460   -0.2880    0.0000 C.ar    1  LIG1        0.0013
     10 C          -1.6040    0.6920    0.0000 C.ar    1  LIG1        0.0001
     11 C          -0.8460    1.3790    0.0000 C.ar    1  LIG1        0.0012
     12 C           3.2920    1.3040    0.0000 C.ar    1  LIG1        0.0012
     13 C           4.0170    0.6040    0.0000 C.ar    1  LIG1        0.0001
     14 C           3.8000   -0.3170    0.0000 C.ar    1  LIG1        0.0013
     15 C           2.8170   -0.6080    0.0000 C.ar    1  LIG1        0.0152
     16 C           1.2000   -1.3500    0.0000 C.2     1  LIG1        0.2970
     17 O           2.0630   -1.8420    0.0000 O.2     1  LIG1       -0.2675
     18 C           0.3670   -1.8420    0.0000 C.3     1  LIG1        0.2881
     19 N          -0.5330   -1.3380    0.0000 N.4     1  LIG1        0.4596
     20 C          -1.3920   -1.8330    0.0000 C.3     1  LIG1        0.2292
     21 C          -2.2580   -1.3380    0.0000 C.ar    1  LIG1        0.0402
     22 C          -3.1040   -1.8170    0.0000 C.ar    1  LIG1        0.0016
     23 C          -4.0210   -1.2960    0.0000 C.ar    1  LIG1       -0.0001
     24 C          -4.0210   -0.3330    0.0000 C.ar    1  LIG1       -0.0000
     25 C          -3.1130    0.1830    0.0000 C.ar    1  LIG1       -0.0001
     26 C          -2.2460   -0.3130    0.0000 C.ar    1  LIG1        0.0016
@<TRIPOS>BOND
     1     1     2    1
     2     1     7    1
     3     1    16   am
     4     2     3   ar
     5     2    15   ar
     6     3     4    1
     7     3    12   ar
     8     4     5    2
     9     5     6    1
    10     6     7   ar
    11     6    11   ar
    12     7     8   ar
    13     8     9   ar
    14     9    10   ar
    15    10    11   ar
    16    12    13   ar
    17    13    14   ar
    18    14    15   ar
    19    16    17    2
    20    16    18    1
    21    18    19    1
    22    19    20    1
    23    20    21    1
    24    21    22   ar
    25    21    26   ar
    26    22    23   ar
    27    23    24   ar
    28    24    25   ar
    29    25    26   ar
