@<TRIPOS>MOLECULE
25406_ChemDiv_2574-0183
 26 28 0 0 0
SMALL
GASTEIGER
Energy = 0

@<TRIPOS>ATOM
      1 N          -1.5080    0.1880    0.0000 N.am    1  LIG1       -0.2224
      2 C          -1.2880   -0.8130    0.0000 C.2     1  LIG1        0.3148
      3 N          -2.0500   -1.4710    0.0000 N.am    1  LIG1       -0.2600
      4 C          -2.9670   -1.1330    0.0000 C.3     1  LIG1        0.1165
      5 C          -1.8500   -2.4420    0.0000 C.3     1  LIG1        0.1165
      6 O          -0.3380   -1.1330    0.0000 O.2     1  LIG1       -0.2517
      7 C          -0.7130    0.8170    0.0000 C.ar    1  LIG1        0.0569
      8 C           0.1540    0.3250    0.0000 C.ar    1  LIG1        0.0317
      9 C           1.0210    0.8170    0.0000 C.ar    1  LIG1        0.0779
     10 N           1.8790    0.3130    0.0000 N.am    1  LIG1       -0.1424
     11 C           2.7380    0.8000    0.0000 C.2     1  LIG1        0.4254
     12 O           2.7380    1.8080    0.0000 O.2     1  LIG1       -0.2242
     13 O           3.5330    0.2580    0.0000 O.3     1  LIG1       -0.4333
     14 C           4.4170    0.6790    0.0000 C.3     1  LIG1        0.2103
     15 C           4.4920    1.6750    0.0000 C.3     1  LIG1        0.0513
     16 C           1.0210    1.8170    0.0000 C.ar    1  LIG1        0.0165
     17 C           0.1540    2.3330    0.0000 C.ar    1  LIG1       -0.0017
     18 C          -0.7130    1.8170    0.0000 C.ar    1  LIG1       -0.0077
     19 C          -1.5080    2.4460    0.0000 C.3     1  LIG1        0.0323
     20 C          -2.4790    2.2250    0.0000 C.3     1  LIG1        0.0323
     21 C          -2.9170    1.3080    0.0000 C.ar    1  LIG1       -0.0078
     22 C          -2.4790    0.4080    0.0000 C.ar    1  LIG1        0.0556
     23 C          -3.0500   -0.4330    0.0000 C.ar    1  LIG1        0.0150
     24 C          -4.0500   -0.3540    0.0000 C.ar    1  LIG1        0.0013
     25 C          -4.4960    0.5170    0.0000 C.ar    1  LIG1       -0.0002
     26 C          -3.9170    1.3580    0.0000 C.ar    1  LIG1       -0.0030
@<TRIPOS>BOND
     1     1     2   am
     2     1     7    1
     3     1    22    1
     4     2     3   am
     5     2     6    2
     6     3     4    1
     7     3     5    1
     8     7     8   ar
     9     7    18   ar
    10     8     9   ar
    11     9    10    1
    12     9    16   ar
    13    10    11   am
    14    11    12    2
    15    11    13    1
    16    13    14    1
    17    14    15    1
    18    16    17   ar
    19    17    18   ar
    20    18    19    1
    21    19    20    1
    22    20    21    1
    23    21    22   ar
    24    21    26   ar
    25    22    23   ar
    26    23    24   ar
    27    24    25   ar
    28    25    26   ar
