@<TRIPOS>MOLECULE
25403_ChemDiv_8004-2665
 27 29 0 0 0
SMALL
GASTEIGER
Energy = 0

@<TRIPOS>ATOM
      1 C           0.9460    0.2500    0.0000 C.ar    1  LIG1        0.0888
      2 C           1.5210   -0.5790    0.0000 C.ar    1  LIG1        0.0440
      3 N           0.9460   -1.3750    0.0000 N.ar    1  LIG1       -0.3262
      4 C           0.0290   -1.0580    0.0000 C.ar    1  LIG1        0.0608
      5 C           0.0290   -0.0670    0.0000 C.ar    1  LIG1        0.0262
      6 C          -0.8290    0.4420    0.0000 C.ar    1  LIG1        0.0398
      7 C          -1.6960   -0.0670    0.0000 C.ar    1  LIG1        0.1546
      8 C          -1.6960   -1.0580    0.0000 C.ar    1  LIG1        0.0706
      9 C          -0.8290   -1.5670    0.0000 C.ar    1  LIG1        0.0269
     10 BR         -2.5580   -1.5330    0.0000 Br      1  LIG1       -0.0458
     11 O          -2.5580    0.4420    0.0000 O.3     1  LIG1       -0.4236
     12 C          -3.4210   -0.0330    0.0000 C.2     1  LIG1        0.3221
     13 O          -3.4210   -1.0420    0.0000 O.2     1  LIG1       -0.2497
     14 C          -4.2830    0.4710    0.0000 C.3     1  LIG1        0.1216
     15 C           1.3000   -2.3670    0.0000 C.3     1  LIG1        0.1324
     16 C           2.2880   -2.5210    0.0000 C.ar    1  LIG1        0.0004
     17 C           2.9210   -1.7580    0.0000 C.ar    1  LIG1       -0.0024
     18 C           3.9290   -1.9380    0.0000 C.ar    1  LIG1       -0.0003
     19 C           4.2790   -2.8630    0.0000 C.ar    1  LIG1       -0.0000
     20 C           3.6250   -3.6580    0.0000 C.ar    1  LIG1       -0.0003
     21 C           2.6210   -3.4670    0.0000 C.ar    1  LIG1       -0.0024
     22 C           2.5420   -0.6420    0.0000 C.3     1  LIG1        0.0502
     23 C           1.3000    1.2040    0.0000 C.2     1  LIG1        0.3423
     24 O           2.2580    1.3960    0.0000 O.2     1  LIG1       -0.2449
     25 O           0.6380    1.9710    0.0000 O.3     1  LIG1       -0.4454
     26 C           0.9460    2.8960    0.0000 C.3     1  LIG1        0.2089
     27 C           0.3130    3.6630    0.0000 C.3     1  LIG1        0.0513
@<TRIPOS>BOND
     1     1     2   ar
     2     1     5   ar
     3     1    23    1
     4     2     3   ar
     5     2    22    1
     6     3     4   ar
     7     3    15    1
     8     4     5   ar
     9     4     9   ar
    10     5     6   ar
    11     6     7   ar
    12     7     8   ar
    13     7    11    1
    14     8     9   ar
    15     8    10    1
    16    11    12    1
    17    12    13    2
    18    12    14    1
    19    15    16    1
    20    16    17   ar
    21    16    21   ar
    22    17    18   ar
    23    18    19   ar
    24    19    20   ar
    25    20    21   ar
    26    23    24    2
    27    23    25    1
    28    25    26    1
    29    26    27    1
