@<TRIPOS>MOLECULE
25400_ChemDiv_4480-0965
 24 27 0 0 0
SMALL
GASTEIGER
Energy = 0

@<TRIPOS>ATOM
      1 N          -0.1460    0.4630    0.0000 N.am    1  LIG1       -0.2218
      2 C          -0.1460   -0.5080    0.0000 C.2     1  LIG1        0.3147
      3 N           0.7460   -0.9250    0.0000 N.am    1  LIG1       -0.2635
      4 C           1.5630   -0.3330    0.0000 C.3     1  LIG1        0.0950
      5 C           2.5830   -0.5130    0.0000 C.3     1  LIG1        0.0216
      6 C           3.0130   -1.4580    0.0000 C.3     1  LIG1        0.0018
      7 C           2.5330   -2.4040    0.0000 C.3     1  LIG1        0.0018
      8 C           1.5170   -2.6290    0.0000 C.3     1  LIG1        0.0216
      9 C           0.7460   -1.9790    0.0000 C.3     1  LIG1        0.0950
     10 O          -0.9040   -0.9630    0.0000 O.2     1  LIG1       -0.2517
     11 C           0.7080    0.8880    0.0000 C.ar    1  LIG1        0.0595
     12 C           0.9250    1.8500    0.0000 C.ar    1  LIG1        0.0141
     13 C           0.2920    2.6330    0.0000 C.2     1  LIG1        0.0013
     14 C          -0.6920    2.6330    0.0000 C.2     1  LIG1        0.0013
     15 C          -1.2830    1.8000    0.0000 C.ar    1  LIG1        0.0141
     16 C          -1.0460    0.8670    0.0000 C.ar    1  LIG1        0.0595
     17 C          -1.8170    0.2000    0.0000 C.ar    1  LIG1        0.0153
     18 C          -2.7420    0.4630    0.0000 C.ar    1  LIG1        0.0013
     19 C          -3.0170    1.4210    0.0000 C.ar    1  LIG1        0.0001
     20 C          -2.2330    2.1330    0.0000 C.ar    1  LIG1        0.0012
     21 C           1.8830    2.1920    0.0000 C.ar    1  LIG1        0.0012
     22 C           2.5960    1.5460    0.0000 C.ar    1  LIG1        0.0001
     23 C           2.3920    0.5540    0.0000 C.ar    1  LIG1        0.0013
     24 C           1.4290    0.2460    0.0000 C.ar    1  LIG1        0.0153
@<TRIPOS>BOND
     1     1     2   am
     2     1    11    1
     3     1    16    1
     4     2     3   am
     5     2    10    2
     6     3     4    1
     7     3     9    1
     8     4     5    1
     9     5     6    1
    10     6     7    1
    11     7     8    1
    12     8     9    1
    13    11    12   ar
    14    11    24   ar
    15    12    13    1
    16    12    21   ar
    17    13    14    2
    18    14    15    1
    19    15    16   ar
    20    15    20   ar
    21    16    17   ar
    22    17    18   ar
    23    18    19   ar
    24    19    20   ar
    25    21    22   ar
    26    22    23   ar
    27    23    24   ar
