@<TRIPOS>MOLECULE
25408_ChemDiv_2856-0036
 31 33 0 0 0
SMALL
GASTEIGER
Energy = 0

@<TRIPOS>ATOM
      1 N          -0.2630    1.6670    0.0000 N.am    1  LIG1       -0.2368
      2 C           0.7290    1.8210    0.0000 C.ar    1  LIG1        0.0554
      3 C           1.2130    0.9420    0.0000 C.ar    1  LIG1        0.0316
      4 C           2.2130    0.9250    0.0000 C.ar    1  LIG1        0.0779
      5 N           2.6670   -0.0040    0.0000 N.am    1  LIG1       -0.1424
      6 C           2.1170   -0.8500    0.0000 C.2     1  LIG1        0.4255
      7 O           1.0960   -0.7750    0.0000 O.2     1  LIG1       -0.2242
      8 O           2.5420   -1.7580    0.0000 O.3     1  LIG1       -0.4292
      9 C           1.9580   -2.5790    0.0000 C.3     1  LIG1        0.2574
     10 C           2.7250    1.8210    0.0000 C.ar    1  LIG1        0.0165
     11 C           2.2380    2.6670    0.0000 C.ar    1  LIG1       -0.0017
     12 C           1.2330    2.6670    0.0000 C.ar    1  LIG1       -0.0077
     13 C           0.8500    3.6210    0.0000 C.3     1  LIG1        0.0323
     14 C          -0.0960    3.9000    0.0000 C.3     1  LIG1        0.0323
     15 C          -0.8830    3.3330    0.0000 C.ar    1  LIG1       -0.0078
     16 C          -1.0040    2.3500    0.0000 C.ar    1  LIG1        0.0541
     17 C          -1.9080    1.9540    0.0000 C.ar    1  LIG1        0.0149
     18 C          -2.7290    2.5130    0.0000 C.ar    1  LIG1        0.0013
     19 C          -2.6330    3.5250    0.0000 C.ar    1  LIG1       -0.0002
     20 C          -1.6880    3.9210    0.0000 C.ar    1  LIG1       -0.0030
     21 C          -0.5960    0.7210    0.0000 C.2     1  LIG1        0.2508
     22 O           0.0630   -0.0670    0.0000 O.2     1  LIG1       -0.2726
     23 C          -1.5670    0.5380    0.0000 C.3     1  LIG1        0.1746
     24 N          -1.8960   -0.3880    0.0000 N.3     1  LIG1       -0.2022
     25 C          -1.2460   -1.1380    0.0000 C.3     1  LIG1        0.1517
     26 C          -1.5630   -2.0630    0.0000 C.3     1  LIG1        0.1577
     27 N          -0.9040   -2.8040    0.0000 N.4     1  LIG1        0.3784
     28 C          -1.2040   -3.7250    0.0000 C.3     1  LIG1        0.1388
     29 C          -2.1880   -3.9170    0.0000 C.3     1  LIG1        0.0688
     30 C           0.0670   -2.6040    0.0000 C.3     1  LIG1        0.1388
     31 C           0.7290   -3.3330    0.0000 C.3     1  LIG1        0.0688
@<TRIPOS>BOND
     1     1     2    1
     2     1    16    1
     3     1    21   am
     4     2     3   ar
     5     2    12   ar
     6     3     4   ar
     7     4     5    1
     8     4    10   ar
     9     5     6   am
    10     6     7    2
    11     6     8    1
    12     8     9    1
    13    10    11   ar
    14    11    12   ar
    15    12    13    1
    16    13    14    1
    17    14    15    1
    18    15    16   ar
    19    15    20   ar
    20    16    17   ar
    21    17    18   ar
    22    18    19   ar
    23    19    20   ar
    24    21    22    2
    25    21    23    1
    26    23    24    1
    27    24    25    1
    28    25    26    1
    29    26    27    1
    30    27    28    1
    31    27    30    1
    32    28    29    1
    33    30    31    1
