@<TRIPOS>MOLECULE
25401_ChemDiv_5926-0045
 25 27 0 0 0
SMALL
GASTEIGER
Energy = 0

@<TRIPOS>ATOM
      1 C          -0.0170    0.8670    0.0000 C.ar    1  LIG1        0.0944
      2 C           0.5830    0.0460    0.0000 C.ar    1  LIG1        0.0994
      3 N          -0.0170   -0.7670    0.0000 N.ar    1  LIG1       -0.3238
      4 C          -0.9750   -0.4630    0.0000 C.ar    1  LIG1        0.0608
      5 C          -0.9750    0.5500    0.0000 C.ar    1  LIG1        0.0265
      6 C          -1.8420    1.0500    0.0000 C.ar    1  LIG1        0.0442
      7 C          -2.7080    0.5500    0.0000 C.ar    1  LIG1        0.2019
      8 C          -2.7080   -0.4630    0.0000 C.ar    1  LIG1        0.0749
      9 C          -1.8420   -0.9500    0.0000 C.ar    1  LIG1        0.0271
     10 BR         -3.5710   -0.9500    0.0000 Br      1  LIG1       -0.0456
     11 O          -3.5710    1.0500    0.0000 O.3     1  LIG1       -0.2860
     12 C           0.3000   -1.7130    0.0000 C.3     1  LIG1        0.1303
     13 C           1.5920    0.0460    0.0000 C.3     1  LIG1        0.1539
     14 N           2.0880   -0.8130    0.0000 N.4     1  LIG1        0.3099
     15 C           3.0750   -0.8130    0.0000 C.3     1  LIG1        0.1419
     16 C           3.5670   -1.6830    0.0000 C.3     1  LIG1        0.2030
     17 O           3.0750   -2.5460    0.0000 O.3     1  LIG1       -0.3412
     18 C           2.0790   -2.5460    0.0000 C.3     1  LIG1        0.2030
     19 C           1.5750   -1.6830    0.0000 C.3     1  LIG1        0.1419
     20 C           2.5750    0.0460    0.0000 C.3     1  LIG1        0.1711
     21 C           0.2880    1.8080    0.0000 C.2     1  LIG1        0.3426
     22 O          -0.3830    2.5500    0.0000 O.2     1  LIG1       -0.2448
     23 O           1.2710    2.0250    0.0000 O.3     1  LIG1       -0.4454
     24 C           1.9540    1.2750    0.0000 C.3     1  LIG1        0.2089
     25 C           2.9130    1.4790    0.0000 C.3     1  LIG1        0.0513
@<TRIPOS>BOND
     1     1     2   ar
     2     1     5   ar
     3     1    21    1
     4     2     3   ar
     5     2    13    1
     6     3     4   ar
     7     3    12    1
     8     4     5   ar
     9     4     9   ar
    10     5     6   ar
    11     6     7   ar
    12     7     8   ar
    13     7    11    1
    14     8     9   ar
    15     8    10    1
    16    13    14    1
    17    14    15    1
    18    14    19    1
    19    14    20    1
    20    15    16    1
    21    16    17    1
    22    17    18    1
    23    18    19    1
    24    21    22    2
    25    21    23    1
    26    23    24    1
    27    24    25    1
