@<TRIPOS>MOLECULE
25404_ChemDiv_2574-0173
 19 21 0 0 0
SMALL
GASTEIGER
Energy = 0

@<TRIPOS>ATOM
      1 N           0.0000    0.1040    0.0000 N.am    1  LIG1       -0.2043
      2 C           0.0170   -0.8880    0.0000 C.2     1  LIG1        0.4126
      3 O           0.8880   -1.3830    0.0000 O.2     1  LIG1       -0.2255
      4 O          -0.8290   -1.3170    0.0000 O.3     1  LIG1       -0.4300
      5 C          -0.8920   -2.3000    0.0000 C.3     1  LIG1        0.2574
      6 C          -0.9000    0.5420    0.0000 C.ar    1  LIG1        0.0573
      7 C          -1.1210    1.5000    0.0000 C.ar    1  LIG1       -0.0077
      8 C          -0.5040    2.3040    0.0000 C.3     1  LIG1        0.0323
      9 C           0.5000    2.3040    0.0000 C.3     1  LIG1        0.0323
     10 C           1.1170    1.5330    0.0000 C.ar    1  LIG1       -0.0077
     11 C           0.8960    0.5420    0.0000 C.ar    1  LIG1        0.0573
     12 C           1.6460   -0.1250    0.0000 C.ar    1  LIG1        0.0150
     13 C           2.5920    0.1750    0.0000 C.ar    1  LIG1        0.0013
     14 C           2.8170    1.1540    0.0000 C.ar    1  LIG1       -0.0002
     15 C           2.0830    1.8420    0.0000 C.ar    1  LIG1       -0.0030
     16 C          -2.0880    1.7960    0.0000 C.ar    1  LIG1       -0.0030
     17 C          -2.8210    1.1210    0.0000 C.ar    1  LIG1       -0.0002
     18 C          -2.5790    0.1290    0.0000 C.ar    1  LIG1        0.0013
     19 C          -1.6170   -0.1710    0.0000 C.ar    1  LIG1        0.0150
@<TRIPOS>BOND
     1     1     2   am
     2     1     6    1
     3     1    11    1
     4     2     3    2
     5     2     4    1
     6     4     5    1
     7     6     7   ar
     8     6    19   ar
     9     7     8    1
    10     7    16   ar
    11     8     9    1
    12     9    10    1
    13    10    11   ar
    14    10    15   ar
    15    11    12   ar
    16    12    13   ar
    17    13    14   ar
    18    14    15   ar
    19    16    17   ar
    20    17    18   ar
    21    18    19   ar
