@<TRIPOS>MOLECULE
25407_ChemDiv_8014-1273
 30 32 0 0 0
SMALL
GASTEIGER
Energy = 0

@<TRIPOS>ATOM
      1 N          -0.7580   -0.1040    0.0000 N.ar    1  LIG1       -0.2785
      2 C           0.0920    0.3830    0.0000 C.ar    1  LIG1        0.0411
      3 C           0.0920    1.3580    0.0000 C.ar    1  LIG1        0.0025
      4 C          -1.6040    1.3580    0.0000 C.ar    1  LIG1        0.0169
      5 C          -1.6040    0.3830    0.0000 C.ar    1  LIG1        0.0664
      6 C          -2.4460   -0.1040    0.0000 C.ar    1  LIG1        0.0207
      7 C          -3.2960    0.3830    0.0000 C.ar    1  LIG1        0.0384
      8 C          -3.2960    1.3580    0.0000 C.ar    1  LIG1        0.1388
      9 C          -2.4460    1.8500    0.0000 C.ar    1  LIG1        0.0381
     10 O          -4.1380    1.8460    0.0000 O.3     1  LIG1       -0.4714
     11 C          -4.9880    1.3580    0.0000 C.3     1  LIG1        0.2525
     12 C           0.5830    2.2040    0.0000 C.3     1  LIG1        0.1370
     13 C           1.5580    2.2040    0.0000 C.2     1  LIG1        0.3220
     14 O           2.0500    3.0500    0.0000 O.2     1  LIG1       -0.2497
     15 O           2.0500    1.3580    0.0000 O.3     1  LIG1       -0.4359
     16 C           3.0250    1.3580    0.0000 C.3     1  LIG1        0.3167
     17 C           3.5170    0.5170    0.0000 C.2     1  LIG1        0.3622
     18 O           3.0250   -0.3290    0.0000 O.2     1  LIG1       -0.2459
     19 O           4.4880    0.5170    0.0000 O.3     1  LIG1       -0.4418
     20 C           4.9830   -0.3290    0.0000 C.3     1  LIG1        0.2557
     21 C           0.9380   -0.1040    0.0000 C.3     1  LIG1        0.0501
     22 C          -0.7580   -1.0830    0.0000 C.2     1  LIG1        0.2644
     23 C           0.0920   -1.5750    0.0000 C.ar    1  LIG1        0.0565
     24 C           0.9380   -1.0830    0.0000 C.ar    1  LIG1        0.0056
     25 C           1.7880   -1.5750    0.0000 C.ar    1  LIG1        0.0115
     26 C           1.7880   -2.5540    0.0000 C.ar    1  LIG1        0.0577
     27 C           0.9380   -3.0460    0.0000 C.ar    1  LIG1        0.0115
     28 C           0.0920   -2.5540    0.0000 C.ar    1  LIG1        0.0056
     29 CL          2.6380   -3.0460    0.0000 Cl      1  LIG1       -0.0822
     30 O          -1.6040   -1.5750    0.0000 O.2     1  LIG1       -0.2666
@<TRIPOS>BOND
     1     1     2   ar
     2     1     5   ar
     3     1    22   am
     4     2     3   ar
     5     2    21    1
     6     3     4   ar
     7     3    12    1
     8     4     5   ar
     9     4     9   ar
    10     5     6   ar
    11     6     7   ar
    12     7     8   ar
    13     8     9   ar
    14     8    10    1
    15    10    11    1
    16    12    13    1
    17    13    14    2
    18    13    15    1
    19    15    16    1
    20    16    17    1
    21    17    18    2
    22    17    19    1
    23    19    20    1
    24    22    23    1
    25    22    30    2
    26    23    24   ar
    27    23    28   ar
    28    24    25   ar
    29    25    26   ar
    30    26    27   ar
    31    26    29    1
    32    27    28   ar
