@<TRIPOS>MOLECULE
25405_ChemDiv_8009-3127
 26 29 0 0 0
SMALL
GASTEIGER
Energy = 0

@<TRIPOS>ATOM
      1 C          -1.1000   -0.0290    0.0000 C.ar    1  LIG1        0.0888
      2 C          -0.1830   -0.4210    0.0000 C.ar    1  LIG1        0.0440
      3 N          -0.2420   -1.3960    0.0000 N.ar    1  LIG1       -0.3262
      4 C          -1.2130   -1.6420    0.0000 C.ar    1  LIG1        0.0603
      5 C          -1.7170   -0.7710    0.0000 C.ar    1  LIG1        0.0263
      6 C          -2.6580   -0.7710    0.0000 C.ar    1  LIG1        0.0437
      7 C          -3.1540   -1.6540    0.0000 C.ar    1  LIG1        0.1958
      8 C          -2.6210   -2.5290    0.0000 C.ar    1  LIG1        0.0435
      9 C          -1.6460   -2.4960    0.0000 C.ar    1  LIG1        0.0205
     10 O          -4.1880   -1.6710    0.0000 O.3     1  LIG1       -0.2866
     11 C           0.5250   -2.0460    0.0000 C.3     1  LIG1        0.1325
     12 C           1.4710   -1.7130    0.0000 C.ar    1  LIG1        0.0036
     13 C           1.6170   -0.7130    0.0000 C.ar    1  LIG1        0.0378
     14 C           2.5420   -0.3500    0.0000 C.ar    1  LIG1        0.1762
     15 C           3.3540   -0.9880    0.0000 C.ar    1  LIG1        0.1764
     16 O           4.1830   -0.4210    0.0000 O.3     1  LIG1       -0.4346
     17 C           3.9250    0.5330    0.0000 C.3     1  LIG1        0.4294
     18 O           2.9080    0.5880    0.0000 O.3     1  LIG1       -0.4346
     19 C           3.2080   -1.9750    0.0000 C.ar    1  LIG1        0.0399
     20 C           2.2670   -2.3670    0.0000 C.ar    1  LIG1        0.0009
     21 C           0.6880    0.0710    0.0000 C.3     1  LIG1        0.0502
     22 C          -1.3170    0.9540    0.0000 C.2     1  LIG1        0.3423
     23 O          -0.5460    1.6210    0.0000 O.2     1  LIG1       -0.2449
     24 O          -2.2380    1.2540    0.0000 O.3     1  LIG1       -0.4454
     25 C          -2.4710    2.2460    0.0000 C.3     1  LIG1        0.2089
     26 C          -3.4170    2.5330    0.0000 C.3     1  LIG1        0.0513
@<TRIPOS>BOND
     1     1     2   ar
     2     1     5   ar
     3     1    22    1
     4     2     3   ar
     5     2    21    1
     6     3     4   ar
     7     3    11    1
     8     4     5   ar
     9     4     9   ar
    10     5     6   ar
    11     6     7   ar
    12     7     8   ar
    13     7    10    1
    14     8     9   ar
    15    11    12    1
    16    12    13   ar
    17    12    20   ar
    18    13    14   ar
    19    14    15   ar
    20    14    18    1
    21    15    16    1
    22    15    19   ar
    23    16    17    1
    24    17    18    1
    25    19    20   ar
    26    22    23    2
    27    22    24    1
    28    24    25    1
    29    25    26    1
