@<TRIPOS>MOLECULE
25416_ChemDiv_6658-0036
 25 28 0 0 0
SMALL
GASTEIGER
Energy = 0

@<TRIPOS>ATOM
      1 N          -0.1290    1.1290    0.0000 N.ar    1  LIG1       -0.3281
      2 C           0.4710    1.9460    0.0000 C.ar    1  LIG1        0.0331
      3 C          -0.1290    2.7540    0.0000 C.ar    1  LIG1       -0.0091
      4 C          -1.0830    2.4460    0.0000 C.ar    1  LIG1        0.0126
      5 C          -1.0830    1.4420    0.0000 C.ar    1  LIG1        0.0594
      6 C          -1.9500    0.9380    0.0000 C.ar    1  LIG1        0.0168
      7 C          -2.8130    1.4420    0.0000 C.ar    1  LIG1       -0.0028
      8 C          -2.8130    2.4460    0.0000 C.ar    1  LIG1       -0.0218
      9 C          -1.9500    2.9460    0.0000 C.ar    1  LIG1       -0.0031
     10 C          -3.6710    2.9380    0.0000 C.3     1  LIG1        0.0310
     11 C           0.2710    3.6790    0.0000 C.3     1  LIG1        0.0275
     12 C           1.2750    3.7880    0.0000 C.3     1  LIG1        0.0051
     13 C           1.8710    2.9750    0.0000 C.3     1  LIG1        0.0066
     14 C           1.4630    2.0540    0.0000 C.3     1  LIG1        0.0435
     15 C           0.1750    0.1830    0.0000 C.3     1  LIG1        0.1449
     16 C          -0.4920   -0.5580    0.0000 C.3     1  LIG1        0.2365
     17 O          -1.4630   -0.3580    0.0000 O.3     1  LIG1       -0.2144
     18 C          -0.1790   -1.5040    0.0000 C.3     1  LIG1        0.2359
     19 N           0.7920   -1.7170    0.0000 N.4     1  LIG1        0.4523
     20 C           1.0920   -2.6670    0.0000 C.3     1  LIG1        0.2304
     21 C           2.0670   -2.8750    0.0000 C.3     1  LIG1        0.1777
     22 O           2.4710   -3.7830    0.0000 O.3     1  LIG1       -0.3500
     23 C           3.4580   -3.6790    0.0000 C.3     1  LIG1        0.1424
     24 C           3.6670   -2.7040    0.0000 C.3     1  LIG1        0.0348
     25 C           2.8080   -2.2080    0.0000 C.3     1  LIG1        0.0385
@<TRIPOS>BOND
     1     1     2   ar
     2     1     5   ar
     3     1    15    1
     4     2     3   ar
     5     2    14    1
     6     3     4   ar
     7     3    11    1
     8     4     5   ar
     9     4     9   ar
    10     5     6   ar
    11     6     7   ar
    12     7     8   ar
    13     8     9   ar
    14     8    10    1
    15    11    12    1
    16    12    13    1
    17    13    14    1
    18    15    16    1
    19    16    17    1
    20    16    18    1
    21    18    19    1
    22    19    20    1
    23    20    21    1
    24    21    22    1
    25    21    25    1
    26    22    23    1
    27    23    24    1
    28    24    25    1
