@<TRIPOS>MOLECULE
25410_ChemDiv_5926-0039
 23 25 0 0 0
SMALL
GASTEIGER
Energy = 0

@<TRIPOS>ATOM
      1 N           0.7250    0.5420    0.0000 N.ar    1  LIG1       -0.3223
      2 C           1.3210    1.3460    0.0000 C.ar    1  LIG1        0.0911
      3 C           0.7250    2.1540    0.0000 C.ar    1  LIG1       -0.0022
      4 C          -0.2250    1.8330    0.0000 C.ar    1  LIG1        0.0130
      5 C          -0.2250    0.8460    0.0000 C.ar    1  LIG1        0.0597
      6 C          -1.0790    0.3460    0.0000 C.ar    1  LIG1        0.0169
      7 C          -1.9500    0.8460    0.0000 C.ar    1  LIG1       -0.0028
      8 C          -1.9500    1.8330    0.0000 C.ar    1  LIG1       -0.0218
      9 C          -1.0790    2.3460    0.0000 C.ar    1  LIG1       -0.0031
     10 C          -2.8170    2.3330    0.0000 C.3     1  LIG1        0.0310
     11 C           1.1380    3.0710    0.0000 C.3     1  LIG1        0.0284
     12 C           2.1380    3.1830    0.0000 C.3     1  LIG1        0.0129
     13 C           2.7420    2.3630    0.0000 C.3     1  LIG1        0.0710
     14 C           2.3170    1.4380    0.0000 C.2     1  LIG1        0.1884
     15 O           2.9080    0.6500    0.0000 O.2     1  LIG1       -0.2898
     16 C           1.0420   -0.4130    0.0000 C.3     1  LIG1        0.1453
     17 C           0.3750   -1.1540    0.0000 C.3     1  LIG1        0.2365
     18 O           0.6790   -2.1040    0.0000 O.3     1  LIG1       -0.2144
     19 C          -0.5920   -0.9540    0.0000 C.3     1  LIG1        0.2359
     20 N          -1.2580   -1.6830    0.0000 N.4     1  LIG1        0.4525
     21 C          -2.2460   -1.4830    0.0000 C.3     1  LIG1        0.2368
     22 C          -2.9130   -2.2250    0.0000 C.3     1  LIG1        0.2504
     23 O          -2.6080   -3.1790    0.0000 O.3     1  LIG1       -0.2135
@<TRIPOS>BOND
     1     1     2   ar
     2     1     5   ar
     3     1    16    1
     4     2     3   ar
     5     2    14    1
     6     3     4   ar
     7     3    11    1
     8     4     5   ar
     9     4     9   ar
    10     5     6   ar
    11     6     7   ar
    12     7     8   ar
    13     8     9   ar
    14     8    10    1
    15    11    12    1
    16    12    13    1
    17    13    14    1
    18    14    15    2
    19    16    17    1
    20    17    18    1
    21    17    19    1
    22    19    20    1
    23    20    21    1
    24    21    22    1
    25    22    23    1
