@<TRIPOS>MOLECULE
25412_ChemDiv_6658-0008
 22 24 0 0 0
SMALL
GASTEIGER
Energy = 0

@<TRIPOS>ATOM
      1 N           0.5130    1.1500    0.0000 N.ar    1  LIG1       -0.3281
      2 C           1.1080    1.9670    0.0000 C.ar    1  LIG1        0.0331
      3 C           0.5130    2.7790    0.0000 C.ar    1  LIG1       -0.0091
      4 C          -0.4380    2.4670    0.0000 C.ar    1  LIG1        0.0126
      5 C          -0.4380    1.4630    0.0000 C.ar    1  LIG1        0.0594
      6 C          -1.3040    0.9670    0.0000 C.ar    1  LIG1        0.0168
      7 C          -2.1670    1.4630    0.0000 C.ar    1  LIG1       -0.0028
      8 C          -2.1670    2.4670    0.0000 C.ar    1  LIG1       -0.0218
      9 C          -1.3040    2.9670    0.0000 C.ar    1  LIG1       -0.0031
     10 C          -3.0250    2.9580    0.0000 C.3     1  LIG1        0.0310
     11 C           0.9130    3.6960    0.0000 C.3     1  LIG1        0.0275
     12 C           1.9170    3.8080    0.0000 C.3     1  LIG1        0.0051
     13 C           2.5130    2.9960    0.0000 C.3     1  LIG1        0.0066
     14 C           2.1080    2.0790    0.0000 C.3     1  LIG1        0.0435
     15 C           0.8210    0.2000    0.0000 C.3     1  LIG1        0.1449
     16 C           0.1540   -0.5380    0.0000 C.3     1  LIG1        0.2365
     17 O          -0.8250   -0.3290    0.0000 O.3     1  LIG1       -0.2144
     18 C           0.4670   -1.4750    0.0000 C.3     1  LIG1        0.2359
     19 N           1.4380   -1.6920    0.0000 N.4     1  LIG1        0.4525
     20 C           1.7460   -2.6420    0.0000 C.3     1  LIG1        0.2368
     21 C           2.7130   -2.8500    0.0000 C.3     1  LIG1        0.2504
     22 O           3.0210   -3.8040    0.0000 O.3     1  LIG1       -0.2135
@<TRIPOS>BOND
     1     1     2   ar
     2     1     5   ar
     3     1    15    1
     4     2     3   ar
     5     2    14    1
     6     3     4   ar
     7     3    11    1
     8     4     5   ar
     9     4     9   ar
    10     5     6   ar
    11     6     7   ar
    12     7     8   ar
    13     8     9   ar
    14     8    10    1
    15    11    12    1
    16    12    13    1
    17    13    14    1
    18    15    16    1
    19    16    17    1
    20    16    18    1
    21    18    19    1
    22    19    20    1
    23    20    21    1
    24    21    22    1
