@<TRIPOS>MOLECULE
25414_ChemDiv_6658-0030
 26 28 0 0 0
SMALL
GASTEIGER
Energy = 0

@<TRIPOS>ATOM
      1 N           0.5170    1.4170    0.0000 N.ar    1  LIG1       -0.3281
      2 C           1.1130    2.2290    0.0000 C.ar    1  LIG1        0.0331
      3 C           0.5170    3.0460    0.0000 C.ar    1  LIG1       -0.0091
      4 C          -0.4420    2.7330    0.0000 C.ar    1  LIG1        0.0126
      5 C          -0.4420    1.7290    0.0000 C.ar    1  LIG1        0.0594
      6 C          -1.3080    1.2330    0.0000 C.ar    1  LIG1        0.0168
      7 C          -2.1670    1.7290    0.0000 C.ar    1  LIG1       -0.0028
      8 C          -2.1670    2.7250    0.0000 C.ar    1  LIG1       -0.0218
      9 C          -1.3080    3.2330    0.0000 C.ar    1  LIG1       -0.0031
     10 C          -3.0250    3.2210    0.0000 C.3     1  LIG1        0.0310
     11 C           0.9170    3.9630    0.0000 C.3     1  LIG1        0.0275
     12 C           1.9170    4.0670    0.0000 C.3     1  LIG1        0.0051
     13 C           2.5130    3.2580    0.0000 C.3     1  LIG1        0.0066
     14 C           2.1040    2.3380    0.0000 C.3     1  LIG1        0.0435
     15 C           0.8210    0.4670    0.0000 C.3     1  LIG1        0.1449
     16 C           0.1500   -0.2750    0.0000 C.3     1  LIG1        0.2365
     17 C           0.4630   -1.2170    0.0000 C.3     1  LIG1        0.2355
     18 N           1.4330   -1.4210    0.0000 N.4     1  LIG1        0.4473
     19 C           1.7380   -2.3710    0.0000 C.3     1  LIG1        0.1904
     20 C           1.0710   -3.1170    0.0000 C.3     1  LIG1        0.2435
     21 O           1.3790   -4.0670    0.0000 O.3     1  LIG1       -0.2138
     22 C           2.7210   -2.5880    0.0000 C.3     1  LIG1        0.2435
     23 O           3.0210   -3.5330    0.0000 O.3     1  LIG1       -0.2138
     24 C           0.7460   -2.4250    0.0000 C.3     1  LIG1        0.2435
     25 O           0.2880   -3.3130    0.0000 O.3     1  LIG1       -0.2138
     26 O          -0.8210   -0.0670    0.0000 O.3     1  LIG1       -0.2144
@<TRIPOS>BOND
     1     1     2   ar
     2     1     5   ar
     3     1    15    1
     4     2     3   ar
     5     2    14    1
     6     3     4   ar
     7     3    11    1
     8     4     5   ar
     9     4     9   ar
    10     5     6   ar
    11     6     7   ar
    12     7     8   ar
    13     8     9   ar
    14     8    10    1
    15    11    12    1
    16    12    13    1
    17    13    14    1
    18    15    16    1
    19    16    17    1
    20    16    26    1
    21    17    18    1
    22    18    19    1
    23    19    20    1
    24    19    22    1
    25    19    24    1
    26    20    21    1
    27    22    23    1
    28    24    25    1
