@<TRIPOS>MOLECULE
25425_ChemDiv_8017-1304
 23 24 0 0 0
SMALL
GASTEIGER
Energy = 0

@<TRIPOS>ATOM
      1 C           0.4540    1.2420    0.0000 C.ar    1  LIG1        0.0887
      2 C           1.0420    0.4330    0.0000 C.ar    1  LIG1        0.0437
      3 N           0.4540   -0.3710    0.0000 N.ar    1  LIG1       -0.3298
      4 C          -0.4920   -0.0670    0.0000 C.ar    1  LIG1        0.0601
      5 C          -0.4920    0.9330    0.0000 C.ar    1  LIG1        0.0261
      6 C          -1.3580    1.4330    0.0000 C.ar    1  LIG1        0.0386
      7 C          -2.2290    0.9330    0.0000 C.ar    1  LIG1        0.1388
      8 C          -2.2290   -0.0670    0.0000 C.ar    1  LIG1        0.0384
      9 C          -1.3580   -0.5670    0.0000 C.ar    1  LIG1        0.0203
     10 O          -3.0920    1.4330    0.0000 O.3     1  LIG1       -0.4714
     11 C          -3.9580    0.9330    0.0000 C.3     1  LIG1        0.2525
     12 C           0.9540   -1.2420    0.0000 C.3     1  LIG1        0.1174
     13 C           1.9540   -1.2420    0.0000 C.3     1  LIG1        0.1339
     14 C           2.4540   -2.1080    0.0000 C.2     1  LIG1        0.3191
     15 O           1.9540   -2.9710    0.0000 O.2     1  LIG1       -0.2500
     16 O           3.4540   -2.1080    0.0000 O.3     1  LIG1       -0.4443
     17 C           3.9540   -1.2420    0.0000 C.3     1  LIG1        0.2556
     18 C           2.0420    0.4330    0.0000 C.3     1  LIG1        0.0502
     19 C           0.9540    2.1080    0.0000 C.2     1  LIG1        0.3423
     20 O           0.4540    2.9750    0.0000 O.2     1  LIG1       -0.2449
     21 O           1.9540    2.1080    0.0000 O.3     1  LIG1       -0.4454
     22 C           2.4460    2.9750    0.0000 C.3     1  LIG1        0.2089
     23 C           3.4500    2.9750    0.0000 C.3     1  LIG1        0.0513
@<TRIPOS>BOND
     1     1     2   ar
     2     1     5   ar
     3     1    19    1
     4     2     3   ar
     5     2    18    1
     6     3     4   ar
     7     3    12    1
     8     4     5   ar
     9     4     9   ar
    10     5     6   ar
    11     6     7   ar
    12     7     8   ar
    13     7    10    1
    14     8     9   ar
    15    10    11    1
    16    12    13    1
    17    13    14    1
    18    14    15    2
    19    14    16    1
    20    16    17    1
    21    19    20    2
    22    19    21    1
    23    21    22    1
    24    22    23    1
