@<TRIPOS>MOLECULE
25420_ChemDiv_8015-3752
 17 19 0 0 0
SMALL
GASTEIGER
Energy = 0

@<TRIPOS>ATOM
      1 N           0.3630   -0.4290    0.0000 N.ar    1  LIG1       -0.3234
      2 C           1.1790    0.0330    0.0000 C.ar    1  LIG1        0.0910
      3 C           1.1790    0.9790    0.0000 C.ar    1  LIG1       -0.0022
      4 C          -0.4540    0.9790    0.0000 C.ar    1  LIG1        0.0127
      5 C          -0.4540    0.0330    0.0000 C.ar    1  LIG1        0.0556
      6 C          -1.2710   -0.4290    0.0000 C.ar    1  LIG1       -0.0064
      7 C          -2.0920    0.0330    0.0000 C.ar    1  LIG1       -0.0071
      8 C          -2.0920    0.9790    0.0000 C.ar    1  LIG1       -0.0221
      9 C          -1.2710    1.4540    0.0000 C.ar    1  LIG1       -0.0031
     10 C          -2.9080    1.4540    0.0000 C.3     1  LIG1        0.0310
     11 C          -1.2710   -1.3790    0.0000 C.3     1  LIG1        0.0325
     12 C           2.0420    1.5040    0.0000 C.3     1  LIG1        0.0284
     13 C           2.9040    1.0040    0.0000 C.3     1  LIG1        0.0129
     14 C           2.9040    0.0080    0.0000 C.3     1  LIG1        0.0710
     15 C           2.0420   -0.4880    0.0000 C.2     1  LIG1        0.1884
     16 O           2.0420   -1.5000    0.0000 O.2     1  LIG1       -0.2898
     17 C           0.3630   -1.3790    0.0000 C.3     1  LIG1        0.1305
@<TRIPOS>BOND
     1     1     2   ar
     2     1     5   ar
     3     1    17    1
     4     2     3   ar
     5     2    15    1
     6     3     4   ar
     7     3    12    1
     8     4     5   ar
     9     4     9   ar
    10     5     6   ar
    11     6     7   ar
    12     6    11    1
    13     7     8   ar
    14     8     9   ar
    15     8    10    1
    16    12    13    1
    17    13    14    1
    18    14    15    1
    19    15    16    2
