@<TRIPOS>MOLECULE
25426_ChemDiv_2856-0040
 29 31 0 0 0
SMALL
GASTEIGER
Energy = 0

@<TRIPOS>ATOM
      1 N           0.2710    1.4330    0.0000 N.am    1  LIG1       -0.2330
      2 C           1.2540    1.5960    0.0000 C.ar    1  LIG1        0.0556
      3 C           1.7500    0.7250    0.0000 C.ar    1  LIG1        0.0316
      4 C           2.7460    0.7040    0.0000 C.ar    1  LIG1        0.0779
      5 N           3.2250   -0.2330    0.0000 N.am    1  LIG1       -0.1424
      6 C           2.6580   -1.0790    0.0000 C.2     1  LIG1        0.4254
      7 O           1.6540   -1.0000    0.0000 O.2     1  LIG1       -0.2242
      8 O           3.0790   -1.9830    0.0000 O.3     1  LIG1       -0.4333
      9 C           2.5000   -2.8000    0.0000 C.3     1  LIG1        0.2103
     10 C           2.9000   -3.7040    0.0000 C.3     1  LIG1        0.0513
     11 C           3.2710    1.5960    0.0000 C.ar    1  LIG1        0.0165
     12 C           2.7880    2.4420    0.0000 C.ar    1  LIG1       -0.0017
     13 C           1.7750    2.4420    0.0000 C.ar    1  LIG1       -0.0077
     14 C           1.3880    3.4040    0.0000 C.3     1  LIG1        0.0323
     15 C           0.4500    3.6670    0.0000 C.3     1  LIG1        0.0323
     16 C          -0.3330    3.1040    0.0000 C.ar    1  LIG1       -0.0078
     17 C          -0.4580    2.1380    0.0000 C.ar    1  LIG1        0.0543
     18 C          -1.3580    1.7290    0.0000 C.ar    1  LIG1        0.0149
     19 C          -2.1880    2.2960    0.0000 C.ar    1  LIG1        0.0013
     20 C          -2.0830    3.3040    0.0000 C.ar    1  LIG1       -0.0002
     21 C          -1.1630    3.7080    0.0000 C.ar    1  LIG1       -0.0030
     22 C          -0.0500    0.4920    0.0000 C.2     1  LIG1        0.2969
     23 C          -1.0250    0.3130    0.0000 C.3     1  LIG1        0.2868
     24 N          -1.3420   -0.6210    0.0000 N.4     1  LIG1        0.4467
     25 C          -2.3080   -0.8000    0.0000 C.3     1  LIG1        0.0986
     26 C          -2.1290   -1.7710    0.0000 C.3     1  LIG1        0.0627
     27 C          -2.4920    0.1790    0.0000 C.3     1  LIG1        0.0627
     28 C          -3.2750   -0.9830    0.0000 C.3     1  LIG1        0.0627
     29 O           0.5880   -0.2790    0.0000 O.2     1  LIG1       -0.2675
@<TRIPOS>BOND
     1     1     2    1
     2     1    17    1
     3     1    22   am
     4     2     3   ar
     5     2    13   ar
     6     3     4   ar
     7     4     5    1
     8     4    11   ar
     9     5     6   am
    10     6     7    2
    11     6     8    1
    12     8     9    1
    13     9    10    1
    14    11    12   ar
    15    12    13   ar
    16    13    14    1
    17    14    15    1
    18    15    16    1
    19    16    17   ar
    20    16    21   ar
    21    17    18   ar
    22    18    19   ar
    23    19    20   ar
    24    20    21   ar
    25    22    23    1
    26    22    29    2
    27    23    24    1
    28    24    25    1
    29    25    26    1
    30    25    27    1
    31    25    28    1
