@<TRIPOS>MOLECULE
25428_ChemDiv_2856-0069
 25 27 0 0 0
SMALL
GASTEIGER
Energy = 0

@<TRIPOS>ATOM
      1 N          -0.4420    0.4710    0.0000 N.am    1  LIG1       -0.2331
      2 C          -0.5170   -0.5380    0.0000 C.2     1  LIG1        0.2909
      3 C           0.2960   -1.1040    0.0000 C.3     1  LIG1        0.2262
      4 N           0.2080   -2.0880    0.0000 N.4     1  LIG1        0.3939
      5 C           1.0500   -2.6830    0.0000 C.3     1  LIG1        0.2033
      6 C          -0.6880   -2.5420    0.0000 C.3     1  LIG1        0.2033
      7 O          -1.4210   -0.9670    0.0000 O.2     1  LIG1       -0.2678
      8 C           0.4880    0.8420    0.0000 C.ar    1  LIG1        0.0556
      9 C           1.1380    0.0880    0.0000 C.ar    1  LIG1        0.0315
     10 C           2.1170    0.2790    0.0000 C.ar    1  LIG1        0.0746
     11 N           2.7830   -0.4580    0.0000 N.am    1  LIG1       -0.1792
     12 C           2.5000   -1.4210    0.0000 C.2     1  LIG1        0.2461
     13 O           1.5170   -1.6130    0.0000 O.2     1  LIG1       -0.2730
     14 C           3.1330   -2.1580    0.0000 C.3     1  LIG1        0.0968
     15 C           2.4290    1.2630    0.0000 C.ar    1  LIG1        0.0164
     16 C           1.7500    1.9830    0.0000 C.ar    1  LIG1       -0.0017
     17 C           0.8170    1.7920    0.0000 C.ar    1  LIG1       -0.0077
     18 C           0.2540    2.6080    0.0000 C.3     1  LIG1        0.0323
     19 C          -0.7750    2.6880    0.0000 C.3     1  LIG1        0.0323
     20 C          -1.4210    1.9830    0.0000 C.ar    1  LIG1       -0.0078
     21 C          -1.2830    1.0040    0.0000 C.ar    1  LIG1        0.0543
     22 C          -2.0750    0.3920    0.0000 C.ar    1  LIG1        0.0149
     23 C          -3.0330    0.8130    0.0000 C.ar    1  LIG1        0.0013
     24 C          -3.1380    1.7920    0.0000 C.ar    1  LIG1       -0.0002
     25 C          -2.3330    2.4170    0.0000 C.ar    1  LIG1       -0.0030
@<TRIPOS>BOND
     1     1     2   am
     2     1     8    1
     3     1    21    1
     4     2     3    1
     5     2     7    2
     6     3     4    1
     7     4     5    1
     8     4     6    1
     9     8     9   ar
    10     8    17   ar
    11     9    10   ar
    12    10    11    1
    13    10    15   ar
    14    11    12   am
    15    12    13    2
    16    12    14    1
    17    15    16   ar
    18    16    17   ar
    19    17    18    1
    20    18    19    1
    21    19    20    1
    22    20    21   ar
    23    20    25   ar
    24    21    22   ar
    25    22    23   ar
    26    23    24   ar
    27    24    25   ar
