@<TRIPOS>MOLECULE
25430_ChemDiv_2856-0079
 25 27 0 0 0
SMALL
GASTEIGER
Energy = 0

@<TRIPOS>ATOM
      1 N           0.0580    0.9540    0.0000 N.am    1  LIG1       -0.2330
      2 C           0.8380    0.3630    0.0000 C.ar    1  LIG1        0.0556
      3 C           0.5580   -0.6290    0.0000 C.ar    1  LIG1        0.0315
      4 C           1.2330   -1.3250    0.0000 C.ar    1  LIG1        0.0746
      5 N           1.0040   -2.3830    0.0000 N.am    1  LIG1       -0.1792
      6 C           1.7250   -3.0500    0.0000 C.2     1  LIG1        0.2461
      7 O           2.7290   -2.8500    0.0000 O.2     1  LIG1       -0.2730
      8 C           1.4830   -3.9710    0.0000 C.3     1  LIG1        0.0968
      9 C           2.1710   -1.0960    0.0000 C.ar    1  LIG1        0.0164
     10 C           2.4790   -0.1380    0.0000 C.ar    1  LIG1       -0.0017
     11 C           1.8080    0.5920    0.0000 C.ar    1  LIG1       -0.0077
     12 C           2.2250    1.5330    0.0000 C.3     1  LIG1        0.0323
     13 C           1.7330    2.3960    0.0000 C.3     1  LIG1        0.0323
     14 C           0.8380    2.5960    0.0000 C.ar    1  LIG1       -0.0078
     15 C           0.0580    1.9580    0.0000 C.ar    1  LIG1        0.0543
     16 C          -0.8630    2.3250    0.0000 C.ar    1  LIG1        0.0149
     17 C          -1.0290    3.3250    0.0000 C.ar    1  LIG1        0.0013
     18 C          -0.2710    3.9750    0.0000 C.ar    1  LIG1       -0.0002
     19 C           0.6710    3.6000    0.0000 C.ar    1  LIG1       -0.0030
     20 C          -0.8960    0.5580    0.0000 C.2     1  LIG1        0.2970
     21 O          -1.6960    1.1580    0.0000 O.2     1  LIG1       -0.2675
     22 C          -1.0000   -0.4420    0.0000 C.3     1  LIG1        0.2875
     23 N          -1.9380   -0.8830    0.0000 N.4     1  LIG1        0.4558
     24 C          -2.7330   -0.3040    0.0000 C.3     1  LIG1        0.2016
     25 C          -2.6500    0.6750    0.0000 C.3     1  LIG1        0.0752
@<TRIPOS>BOND
     1     1     2    1
     2     1    15    1
     3     1    20   am
     4     2     3   ar
     5     2    11   ar
     6     3     4   ar
     7     4     5    1
     8     4     9   ar
     9     5     6   am
    10     6     7    2
    11     6     8    1
    12     9    10   ar
    13    10    11   ar
    14    11    12    1
    15    12    13    1
    16    13    14    1
    17    14    15   ar
    18    14    19   ar
    19    15    16   ar
    20    16    17   ar
    21    17    18   ar
    22    18    19   ar
    23    20    21    2
    24    20    22    1
    25    22    23    1
    26    23    24    1
    27    24    25    1
