@<TRIPOS>MOLECULE
25434_ChemDiv_3807-3184
 25 27 0 0 0
SMALL
GASTEIGER
Energy = 0

@<TRIPOS>ATOM
      1 N           0.2290    0.7920    0.0000 N.am    1  LIG1       -0.2043
      2 C          -0.7040    0.4830    0.0000 C.ar    1  LIG1        0.0586
      3 C          -0.8080   -0.5040    0.0000 C.ar    1  LIG1        0.0317
      4 C          -1.6960   -0.9130    0.0000 C.ar    1  LIG1        0.0779
      5 N          -1.7750   -1.9040    0.0000 N.am    1  LIG1       -0.1424
      6 C          -0.9540   -2.4580    0.0000 C.2     1  LIG1        0.4254
      7 O          -1.0420   -3.4750    0.0000 O.2     1  LIG1       -0.2242
      8 O          -0.0420   -2.0290    0.0000 O.3     1  LIG1       -0.4333
      9 C           0.8000   -2.6080    0.0000 C.3     1  LIG1        0.2103
     10 C           1.7130   -2.1960    0.0000 C.3     1  LIG1        0.0513
     11 C          -2.5170   -0.3420    0.0000 C.ar    1  LIG1        0.0165
     12 C          -2.4380    0.6500    0.0000 C.ar    1  LIG1       -0.0017
     13 C          -1.5250    1.0670    0.0000 C.ar    1  LIG1       -0.0076
     14 C          -1.6000    2.0580    0.0000 C.3     1  LIG1        0.0323
     15 C          -0.8880    2.7380    0.0000 C.3     1  LIG1        0.0323
     16 C           0.1040    2.5880    0.0000 C.ar    1  LIG1       -0.0077
     17 C           0.6000    1.7210    0.0000 C.ar    1  LIG1        0.0573
     18 C           1.6210    1.7210    0.0000 C.ar    1  LIG1        0.0150
     19 C           2.1170    2.5880    0.0000 C.ar    1  LIG1        0.0013
     20 C           1.6210    3.4790    0.0000 C.ar    1  LIG1       -0.0002
     21 C           0.6290    3.4790    0.0000 C.ar    1  LIG1       -0.0030
     22 C           0.8880    0.0500    0.0000 C.2     1  LIG1        0.4126
     23 O           0.5790   -0.8750    0.0000 O.2     1  LIG1       -0.2255
     24 O           1.8500    0.2380    0.0000 O.3     1  LIG1       -0.4300
     25 C           2.5130   -0.5250    0.0000 C.3     1  LIG1        0.2574
@<TRIPOS>BOND
     1     1     2    1
     2     1    17    1
     3     1    22   am
     4     2     3   ar
     5     2    13   ar
     6     3     4   ar
     7     4     5    1
     8     4    11   ar
     9     5     6   am
    10     6     7    2
    11     6     8    1
    12     8     9    1
    13     9    10    1
    14    11    12   ar
    15    12    13   ar
    16    13    14    1
    17    14    15    1
    18    15    16    1
    19    16    17   ar
    20    16    21   ar
    21    17    18   ar
    22    18    19   ar
    23    19    20   ar
    24    20    21   ar
    25    22    23    2
    26    22    24    1
    27    24    25    1
