@<TRIPOS>MOLECULE
25432_ChemDiv_2856-0086
 23 25 0 0 0
SMALL
GASTEIGER
Energy = 0

@<TRIPOS>ATOM
      1 N          -0.3330    0.9040    0.0000 N.am    1  LIG1       -0.2379
      2 C           0.4420    0.3080    0.0000 C.ar    1  LIG1        0.0554
      3 C           0.1960   -0.6880    0.0000 C.ar    1  LIG1        0.0315
      4 C           0.9040   -1.3420    0.0000 C.ar    1  LIG1        0.0746
      5 N           0.6750   -2.3670    0.0000 N.am    1  LIG1       -0.1792
      6 C          -0.2960   -2.6710    0.0000 C.2     1  LIG1        0.2456
      7 O          -1.0420   -1.9710    0.0000 O.2     1  LIG1       -0.2730
      8 C          -0.5130   -3.6040    0.0000 C.3     1  LIG1        0.0872
      9 C          -1.4460   -3.9080    0.0000 C.3     1  LIG1        0.0101
     10 C           1.8540   -1.0830    0.0000 C.ar    1  LIG1        0.0164
     11 C           2.1000   -0.1580    0.0000 C.ar    1  LIG1       -0.0017
     12 C           1.4330    0.5500    0.0000 C.ar    1  LIG1       -0.0077
     13 C           1.8540    1.4380    0.0000 C.3     1  LIG1        0.0323
     14 C           1.3920    2.3210    0.0000 C.3     1  LIG1        0.0323
     15 C           0.4420    2.5420    0.0000 C.ar    1  LIG1       -0.0078
     16 C          -0.3330    1.9290    0.0000 C.ar    1  LIG1        0.0541
     17 C          -1.2630    2.2830    0.0000 C.ar    1  LIG1        0.0149
     18 C          -1.4380    3.2500    0.0000 C.ar    1  LIG1        0.0013
     19 C          -0.6500    3.9130    0.0000 C.ar    1  LIG1       -0.0002
     20 C           0.3210    3.5210    0.0000 C.ar    1  LIG1       -0.0030
     21 C          -1.2630    0.4500    0.0000 C.2     1  LIG1        0.2336
     22 O          -2.1040    0.9790    0.0000 O.2     1  LIG1       -0.2742
     23 C          -1.3290   -0.5750    0.0000 C.3     1  LIG1        0.0955
@<TRIPOS>BOND
     1     1     2    1
     2     1    16    1
     3     1    21   am
     4     2     3   ar
     5     2    12   ar
     6     3     4   ar
     7     4     5    1
     8     4    10   ar
     9     5     6   am
    10     6     7    2
    11     6     8    1
    12     8     9    1
    13    10    11   ar
    14    11    12   ar
    15    12    13    1
    16    13    14    1
    17    14    15    1
    18    15    16   ar
    19    15    20   ar
    20    16    17   ar
    21    17    18   ar
    22    18    19   ar
    23    19    20   ar
    24    21    22    2
    25    21    23    1
