@<TRIPOS>MOLECULE
25437_ChemDiv_0723-2095
 16 18 0 0 0
SMALL
GASTEIGER
Energy = 0

@<TRIPOS>ATOM
      1 C          -1.3710    0.0000    0.0000 C.ar    1  LIG1        0.3927
      2 N          -0.4210    0.2960    0.0000 N.ar    1  LIG1        0.1231
      3 C           0.1290   -0.4670    0.0000 C.ar    1  LIG1        0.4478
      4 N          -0.4210   -1.3170    0.0000 N.ar    1  LIG1       -0.1399
      5 C          -1.3710   -0.9880    0.0000 C.ar    1  LIG1        0.2470
      6 N          -2.2540   -1.5000    0.0000 N.ar    1  LIG1       -0.1989
      7 C          -3.1330   -0.9880    0.0000 C.ar    1  LIG1        0.2034
      8 N          -3.1330    0.0000    0.0000 N.ar    1  LIG1       -0.1801
      9 C          -2.2540    0.5170    0.0000 C.ar    1  LIG1        0.3544
     10 O          -2.2540    1.5040    0.0000 O.2     1  LIG1       -0.2582
     11 N           1.1130   -0.3670    0.0000 N.pl3   1  LIG1       -0.2343
     12 C           1.5630    0.5500    0.0000 C.3     1  LIG1        0.0980
     13 C           2.5500    0.6630    0.0000 C.3     1  LIG1        0.0217
     14 C           3.1290   -0.1460    0.0000 C.3     1  LIG1        0.0035
     15 C           2.7330   -1.0630    0.0000 C.3     1  LIG1        0.0217
     16 C           1.7460   -1.1710    0.0000 C.3     1  LIG1        0.0980
@<TRIPOS>BOND
     1     1     2   ar
     2     1     5   ar
     3     1     9   ar
     4     2     3   ar
     5     3     4   ar
     6     3    11    1
     7     4     5   ar
     8     5     6   ar
     9     6     7   ar
    10     7     8   ar
    11     8     9   ar
    12     9    10    2
    13    11    12    1
    14    11    16    1
    15    12    13    1
    16    13    14    1
    17    14    15    1
    18    15    16    1
