@<TRIPOS>MOLECULE
25440_ChemDiv_4119-0007
 30 33 0 0 0
SMALL
GASTEIGER
Energy = 0

@<TRIPOS>ATOM
      1 N          -0.5170    0.8630    0.0000 N.am    1  LIG1       -0.2224
      2 C          -0.5170   -0.1460    0.0000 C.2     1  LIG1        0.3151
      3 N          -1.3790   -0.6580    0.0000 N.am    1  LIG1       -0.2515
      4 C          -2.2540   -0.1630    0.0000 C.3     1  LIG1        0.1577
      5 C          -3.1040   -0.6920    0.0000 C.3     1  LIG1        0.1609
      6 N          -3.0920   -1.6790    0.0000 N.4     1  LIG1        0.3847
      7 C          -2.1130   -2.1710    0.0000 C.3     1  LIG1        0.1609
      8 C          -1.3790   -1.6790    0.0000 C.3     1  LIG1        0.1577
      9 C          -3.9670   -2.1330    0.0000 C.3     1  LIG1        0.2024
     10 O           0.3500   -0.6630    0.0000 O.2     1  LIG1       -0.2516
     11 C           0.3830    1.2920    0.0000 C.ar    1  LIG1        0.0569
     12 C           1.1170    0.6080    0.0000 C.ar    1  LIG1        0.0317
     13 C           2.0750    0.9080    0.0000 C.ar    1  LIG1        0.0779
     14 N           2.8210    0.2500    0.0000 N.am    1  LIG1       -0.1424
     15 C           2.6290   -0.7330    0.0000 C.2     1  LIG1        0.4254
     16 O           1.6920   -1.0710    0.0000 O.2     1  LIG1       -0.2242
     17 O           3.3880   -1.3920    0.0000 O.3     1  LIG1       -0.4333
     18 C           3.1920   -2.3830    0.0000 C.3     1  LIG1        0.2103
     19 C           3.9630   -3.0420    0.0000 C.3     1  LIG1        0.0513
     20 C           2.3040    1.8790    0.0000 C.ar    1  LIG1        0.0165
     21 C           1.5630    2.5540    0.0000 C.ar    1  LIG1       -0.0017
     22 C           0.6040    2.2630    0.0000 C.ar    1  LIG1       -0.0077
     23 C          -0.0080    3.0460    0.0000 C.3     1  LIG1        0.0323
     24 C          -0.9960    3.0380    0.0000 C.3     1  LIG1        0.0323
     25 C          -1.6290    2.2670    0.0000 C.ar    1  LIG1       -0.0078
     26 C          -1.4250    1.2920    0.0000 C.ar    1  LIG1        0.0556
     27 C          -2.1670    0.6330    0.0000 C.ar    1  LIG1        0.0150
     28 C          -3.1170    0.9250    0.0000 C.ar    1  LIG1        0.0013
     29 C          -3.3290    1.9040    0.0000 C.ar    1  LIG1       -0.0002
     30 C          -2.6000    2.5750    0.0000 C.ar    1  LIG1       -0.0030
@<TRIPOS>BOND
     1     1     2   am
     2     1    11    1
     3     1    26    1
     4     2     3   am
     5     2    10    2
     6     3     4    1
     7     3     8    1
     8     4     5    1
     9     5     6    1
    10     6     7    1
    11     6     9    1
    12     7     8    1
    13    11    12   ar
    14    11    22   ar
    15    12    13   ar
    16    13    14    1
    17    13    20   ar
    18    14    15   am
    19    15    16    2
    20    15    17    1
    21    17    18    1
    22    18    19    1
    23    20    21   ar
    24    21    22   ar
    25    22    23    1
    26    23    24    1
    27    24    25    1
    28    25    26   ar
    29    25    30   ar
    30    26    27   ar
    31    27    28   ar
    32    28    29   ar
    33    29    30   ar
