@<TRIPOS>MOLECULE
25458_ChemDiv_4119-0037
 22 24 0 0 0
SMALL
GASTEIGER
Energy = 0

@<TRIPOS>ATOM
      1 N          -1.1040   -0.2960    0.0000 N.am    1  LIG1       -0.2379
      2 C          -0.2000    0.1460    0.0000 C.ar    1  LIG1        0.0554
      3 C           0.5330   -0.5500    0.0000 C.ar    1  LIG1        0.0315
      4 C           1.5000   -0.2460    0.0000 C.ar    1  LIG1        0.0746
      5 N           2.2250   -0.9130    0.0000 N.am    1  LIG1       -0.1792
      6 C           3.1710   -0.6330    0.0000 C.2     1  LIG1        0.2461
      7 O           3.3380    0.3420    0.0000 O.2     1  LIG1       -0.2730
      8 C           3.9250   -1.3170    0.0000 C.3     1  LIG1        0.0968
      9 C           1.7250    0.7210    0.0000 C.ar    1  LIG1        0.0164
     10 C           0.9960    1.4000    0.0000 C.ar    1  LIG1       -0.0017
     11 C           0.0250    1.1130    0.0000 C.ar    1  LIG1       -0.0077
     12 C          -0.5880    1.9000    0.0000 C.3     1  LIG1        0.0323
     13 C          -1.5830    1.8920    0.0000 C.3     1  LIG1        0.0323
     14 C          -2.2210    1.1210    0.0000 C.ar    1  LIG1       -0.0078
     15 C          -2.0130    0.1460    0.0000 C.ar    1  LIG1        0.0541
     16 C          -2.7580   -0.5210    0.0000 C.ar    1  LIG1        0.0149
     17 C          -3.7080   -0.2250    0.0000 C.ar    1  LIG1        0.0013
     18 C          -3.9290    0.7580    0.0000 C.ar    1  LIG1       -0.0002
     19 C          -3.1880    1.4330    0.0000 C.ar    1  LIG1       -0.0030
     20 C          -1.1040   -1.2830    0.0000 C.2     1  LIG1        0.2336
     21 O          -0.2710   -1.8960    0.0000 O.2     1  LIG1       -0.2742
     22 C          -1.9420   -1.7290    0.0000 C.3     1  LIG1        0.0955
@<TRIPOS>BOND
     1     1     2    1
     2     1    15    1
     3     1    20   am
     4     2     3   ar
     5     2    11   ar
     6     3     4   ar
     7     4     5    1
     8     4     9   ar
     9     5     6   am
    10     6     7    2
    11     6     8    1
    12     9    10   ar
    13    10    11   ar
    14    11    12    1
    15    12    13    1
    16    13    14    1
    17    14    15   ar
    18    14    19   ar
    19    15    16   ar
    20    16    17   ar
    21    17    18   ar
    22    18    19   ar
    23    20    21    2
    24    20    22    1
