@<TRIPOS>MOLECULE
25457_ChemDiv_3238-0258
 30 34 0 0 0
SMALL
GASTEIGER
Energy = 0

@<TRIPOS>ATOM
      1 C          -1.7210   -1.0630    0.0000 C.ar    1  LIG1        0.1708
      2 C          -1.7210   -0.0630    0.0000 C.ar    1  LIG1        0.1539
      3 N          -0.7670    0.2420    0.0000 N.ar    1  LIG1       -0.2903
      4 C          -0.1630   -0.5710    0.0000 C.ar    1  LIG1        0.2031
      5 N          -0.7670   -1.3790    0.0000 N.ar    1  LIG1       -0.1958
      6 N           0.8250   -0.5710    0.0000 N.pl3   1  LIG1       -0.2750
      7 C           1.3250   -1.4420    0.0000 C.3     1  LIG1        0.1200
      8 C           2.3210   -1.4420    0.0000 C.ar    1  LIG1       -0.0062
      9 C           2.8250   -0.5750    0.0000 C.ar    1  LIG1       -0.0228
     10 C           2.3250    0.2920    0.0000 C.3     1  LIG1        0.0476
     11 C           1.3250    0.2920    0.0000 C.3     1  LIG1        0.0985
     12 C           3.8210   -0.5920    0.0000 C.ar    1  LIG1       -0.0045
     13 C           4.3080   -1.4540    0.0000 C.ar    1  LIG1       -0.0003
     14 C           3.8130   -2.3290    0.0000 C.ar    1  LIG1       -0.0003
     15 C           2.8080   -2.3130    0.0000 C.ar    1  LIG1       -0.0029
     16 C          -0.4460    1.2000    0.0000 C.3     1  LIG1        0.1356
     17 C           0.5380    1.4080    0.0000 C.ar    1  LIG1        0.0005
     18 C           0.8420    2.3540    0.0000 C.ar    1  LIG1       -0.0024
     19 C           1.8210    2.5580    0.0000 C.ar    1  LIG1       -0.0003
     20 C           2.4880    1.8170    0.0000 C.ar    1  LIG1       -0.0000
     21 C           2.1750    0.8630    0.0000 C.ar    1  LIG1       -0.0003
     22 C           1.2040    0.6580    0.0000 C.ar    1  LIG1       -0.0024
     23 C          -2.5830    0.4380    0.0000 C.ar    1  LIG1        0.2832
     24 N          -3.4380   -0.0630    0.0000 N.ar    1  LIG1       -0.2454
     25 C          -3.4380   -1.0630    0.0000 C.ar    1  LIG1        0.3350
     26 N          -2.5830   -1.5630    0.0000 N.ar    1  LIG1       -0.2628
     27 C          -2.5830   -2.5540    0.0000 C.3     1  LIG1        0.1366
     28 O          -4.3000   -1.5630    0.0000 O.2     1  LIG1       -0.2461
     29 C          -4.3130    0.4380    0.0000 C.3     1  LIG1        0.1383
     30 O          -2.5830    1.4460    0.0000 O.2     1  LIG1       -0.2652
@<TRIPOS>BOND
     1     1     2   ar
     2     1     5   ar
     3     1    26   ar
     4     2     3   ar
     5     2    23   ar
     6     3     4   ar
     7     3    16    1
     8     4     5   ar
     9     4     6    1
    10     6     7    1
    11     6    11    1
    12     7     8    1
    13     8     9   ar
    14     8    15   ar
    15     9    10    1
    16     9    12   ar
    17    10    11    1
    18    12    13   ar
    19    13    14   ar
    20    14    15   ar
    21    16    17    1
    22    17    18   ar
    23    17    22   ar
    24    18    19   ar
    25    19    20   ar
    26    20    21   ar
    27    21    22   ar
    28    23    24   ar
    29    23    30    2
    30    24    25   ar
    31    24    29    1
    32    25    26   ar
    33    25    28    2
    34    26    27    1
