@<TRIPOS>MOLECULE
25456_ChemDiv_8017-2558
 11 12 0 0 0
SMALL
GASTEIGER
Energy = 0

@<TRIPOS>ATOM
      1 C           0.0960    0.5080    0.0000 C.ar    1  LIG1        0.1263
      2 C           0.0960   -0.4960    0.0000 C.ar    1  LIG1        0.1207
      3 N           1.0460   -0.8080    0.0000 N.ar    1  LIG1       -0.1892
      4 S           1.6330    0.0080    0.0000 S.2     1  LIG1        0.1166
      5 N           1.0460    0.8130    0.0000 N.ar    1  LIG1       -0.1887
      6 C          -0.7710   -0.9960    0.0000 C.ar    1  LIG1        0.0775
      7 C          -1.6380   -0.4960    0.0000 C.ar    1  LIG1        0.0144
      8 C          -1.6380    0.5080    0.0000 C.ar    1  LIG1        0.0206
      9 C          -0.7710    1.0080    0.0000 C.ar    1  LIG1        0.1089
     10 N          -0.7710    2.0000    0.0000 N.pl3   1  LIG1       -0.1264
     11 CL         -0.7710   -1.9960    0.0000 Cl      1  LIG1       -0.0806
@<TRIPOS>BOND
     1     1     2   ar
     2     1     5   ar
     3     1     9   ar
     4     2     3   ar
     5     2     6   ar
     6     3     4   ar
     7     4     5   ar
     8     6     7   ar
     9     6    11    1
    10     7     8   ar
    11     8     9   ar
    12     9    10    1
