@<TRIPOS>MOLECULE
25452_ChemDiv_7215-2398
 11 12 0 0 0
SMALL
GASTEIGER
Energy = 0

@<TRIPOS>ATOM
      1 C           0.5790   -0.0040    0.0000 C.ar    1  LIG1        0.1163
      2 C          -0.2880    0.5000    0.0000 C.ar    1  LIG1        0.0710
      3 C          -1.1500   -0.0040    0.0000 C.ar    1  LIG1        0.0968
      4 C          -1.1500   -1.0080    0.0000 C.ar    1  LIG1        0.0202
      5 C          -0.2880   -1.5000    0.0000 C.ar    1  LIG1        0.0228
      6 C           0.5790   -1.0000    0.0000 C.ar    1  LIG1        0.1094
      7 N           1.5250   -1.3130    0.0000 N.ar    1  LIG1       -0.1901
      8 S           2.1170   -0.4960    0.0000 S.2     1  LIG1        0.1165
      9 N           1.5250    0.3040    0.0000 N.ar    1  LIG1       -0.1896
     10 N          -2.1210    0.2630    0.0000 N.pl3   1  LIG1       -0.1275
     11 BR         -0.2960    1.5040    0.0000 Br      1  LIG1       -0.0460
@<TRIPOS>BOND
     1     1     2   ar
     2     1     6   ar
     3     1     9   ar
     4     2     3   ar
     5     2    11    1
     6     3     4   ar
     7     3    10    1
     8     4     5   ar
     9     5     6   ar
    10     6     7   ar
    11     7     8   ar
    12     8     9   ar
