@<TRIPOS>MOLECULE
25450_ChemDiv_5408-3417
 22 24 0 0 0
SMALL
GASTEIGER
Energy = 0

@<TRIPOS>ATOM
      1 C          -1.8250   -1.7500    0.0000 C.ar    1  LIG1        0.1101
      2 C          -1.8250   -2.7500    0.0000 C.ar    1  LIG1        0.1089
      3 N          -2.7790   -3.0670    0.0000 N.ar    1  LIG1       -0.1901
      4 S          -3.3710   -2.2500    0.0000 S.2     1  LIG1        0.1165
      5 N          -2.7790   -1.4330    0.0000 N.ar    1  LIG1       -0.1901
      6 C          -0.9630   -3.2500    0.0000 C.ar    1  LIG1        0.0227
      7 C          -0.0880   -2.7500    0.0000 C.ar    1  LIG1        0.0183
      8 C          -0.0880   -1.7500    0.0000 C.ar    1  LIG1        0.0766
      9 C          -0.9630   -1.2500    0.0000 C.ar    1  LIG1        0.0380
     10 N           0.7710   -1.2460    0.0000 N.am    1  LIG1       -0.1606
     11 C           1.6420   -1.7380    0.0000 C.2     1  LIG1        0.3477
     12 N           2.5040   -1.2330    0.0000 N.am    1  LIG1       -0.1607
     13 C           2.5000   -0.2420    0.0000 C.ar    1  LIG1        0.0751
     14 C           1.6420    0.2500    0.0000 C.ar    1  LIG1        0.0179
     15 C           1.6250    1.2420    0.0000 C.ar    1  LIG1        0.0159
     16 C           2.5000    1.7580    0.0000 C.ar    1  LIG1        0.0480
     17 N           2.4880    2.7500    0.0000 N.pl3   1  LIG1       -0.3041
     18 C           3.3540    3.2540    0.0000 C.3     1  LIG1        0.1122
     19 C           1.6250    3.2380    0.0000 C.3     1  LIG1        0.1122
     20 C           3.3670    1.2580    0.0000 C.ar    1  LIG1        0.0159
     21 C           3.3670    0.2630    0.0000 C.ar    1  LIG1        0.0179
     22 O           1.6420   -2.7330    0.0000 O.2     1  LIG1       -0.2484
@<TRIPOS>BOND
     1     1     2   ar
     2     1     5   ar
     3     1     9   ar
     4     2     3   ar
     5     2     6   ar
     6     3     4   ar
     7     4     5   ar
     8     6     7   ar
     9     7     8   ar
    10     8     9   ar
    11     8    10    1
    12    10    11   am
    13    11    12   am
    14    11    22    2
    15    12    13    1
    16    13    14   ar
    17    13    21   ar
    18    14    15   ar
    19    15    16   ar
    20    16    17    1
    21    16    20   ar
    22    17    18    1
    23    17    19    1
    24    20    21   ar
