@<TRIPOS>MOLECULE
25468_ChemDiv_4119-0077
 33 36 0 0 0
SMALL
GASTEIGER
Energy = 0

@<TRIPOS>ATOM
      1 N          -1.9040    2.4080    0.0000 N.am    1  LIG1       -0.2368
      2 C          -1.9040    1.4000    0.0000 C.2     1  LIG1        0.2494
      3 C          -1.0290    0.8710    0.0000 C.3     1  LIG1        0.1596
      4 N          -1.0290   -0.1250    0.0000 N.3     1  LIG1       -0.2549
      5 C          -1.8880   -0.6420    0.0000 C.3     1  LIG1        0.1362
      6 C          -1.8880   -1.6330    0.0000 C.3     1  LIG1        0.1564
      7 N          -1.0290   -2.1290    0.0000 N.4     1  LIG1        0.3815
      8 C          -0.1750   -1.6330    0.0000 C.3     1  LIG1        0.1564
      9 C          -0.1750   -0.6170    0.0000 C.3     1  LIG1        0.1362
     10 C          -1.0290   -3.1170    0.0000 C.3     1  LIG1        0.1749
     11 C          -1.8830   -3.6080    0.0000 C.3     1  LIG1        0.2442
     12 O          -1.8830   -4.6040    0.0000 O.3     1  LIG1       -0.2137
     13 O          -2.7670    0.8920    0.0000 O.2     1  LIG1       -0.2727
     14 C          -1.0040    2.8460    0.0000 C.ar    1  LIG1        0.0554
     15 C          -0.2960    2.1540    0.0000 C.ar    1  LIG1        0.0316
     16 C           0.6920    2.4330    0.0000 C.ar    1  LIG1        0.0779
     17 N           1.4460    1.7580    0.0000 N.am    1  LIG1       -0.1424
     18 C           2.3920    2.0540    0.0000 C.2     1  LIG1        0.4254
     19 O           2.5920    3.0500    0.0000 O.2     1  LIG1       -0.2242
     20 O           3.0670    1.3460    0.0000 O.3     1  LIG1       -0.4333
     21 C           4.0250    1.5830    0.0000 C.3     1  LIG1        0.2103
     22 C           4.7130    0.8750    0.0000 C.3     1  LIG1        0.0513
     23 C           0.9250    3.3920    0.0000 C.ar    1  LIG1        0.0165
     24 C           0.1750    4.1080    0.0000 C.ar    1  LIG1       -0.0017
     25 C          -0.7670    3.8210    0.0000 C.ar    1  LIG1       -0.0077
     26 C          -1.3960    4.6040    0.0000 C.3     1  LIG1        0.0323
     27 C          -2.3830    4.6040    0.0000 C.3     1  LIG1        0.0323
     28 C          -3.0080    3.8170    0.0000 C.ar    1  LIG1       -0.0078
     29 C          -2.7960    2.8460    0.0000 C.ar    1  LIG1        0.0541
     30 C          -3.5540    2.1670    0.0000 C.ar    1  LIG1        0.0149
     31 C          -4.4790    2.4920    0.0000 C.ar    1  LIG1        0.0013
     32 C          -4.7170    3.4630    0.0000 C.ar    1  LIG1       -0.0002
     33 C          -3.9920    4.1380    0.0000 C.ar    1  LIG1       -0.0030
@<TRIPOS>BOND
     1     1     2   am
     2     1    14    1
     3     1    29    1
     4     2     3    1
     5     2    13    2
     6     3     4    1
     7     4     5    1
     8     4     9    1
     9     5     6    1
    10     6     7    1
    11     7     8    1
    12     7    10    1
    13     8     9    1
    14    10    11    1
    15    11    12    1
    16    14    15   ar
    17    14    25   ar
    18    15    16   ar
    19    16    17    1
    20    16    23   ar
    21    17    18   am
    22    18    19    2
    23    18    20    1
    24    20    21    1
    25    21    22    1
    26    23    24   ar
    27    24    25   ar
    28    25    26    1
    29    26    27    1
    30    27    28    1
    31    28    29   ar
    32    28    33   ar
    33    29    30   ar
    34    30    31   ar
    35    31    32   ar
    36    32    33   ar
