@<TRIPOS>MOLECULE
25466_ChemDiv_4119-0076
 28 30 0 0 0
SMALL
GASTEIGER
Energy = 0

@<TRIPOS>ATOM
      1 N          -1.9000    0.9210    0.0000 N.am    1  LIG1       -0.2330
      2 C          -1.0040    1.3580    0.0000 C.ar    1  LIG1        0.0556
      3 C          -0.2960    0.6670    0.0000 C.ar    1  LIG1        0.0316
      4 C           0.6920    0.9460    0.0000 C.ar    1  LIG1        0.0779
      5 N           1.4460    0.2750    0.0000 N.am    1  LIG1       -0.1424
      6 C           2.3880    0.5710    0.0000 C.2     1  LIG1        0.4253
      7 O           2.5880    1.5670    0.0000 O.2     1  LIG1       -0.2242
      8 O           3.0630   -0.1380    0.0000 O.3     1  LIG1       -0.4371
      9 C           4.0210    0.0960    0.0000 C.3     1  LIG1        0.1708
     10 C           4.7080   -0.6080    0.0000 C.3     1  LIG1        0.0474
     11 C           4.2960    1.0420    0.0000 C.3     1  LIG1        0.0474
     12 C           0.9250    1.9040    0.0000 C.ar    1  LIG1        0.0165
     13 C           0.1750    2.6250    0.0000 C.ar    1  LIG1       -0.0017
     14 C          -0.7670    2.3330    0.0000 C.ar    1  LIG1       -0.0077
     15 C          -1.3960    3.1210    0.0000 C.3     1  LIG1        0.0323
     16 C          -2.3830    3.1210    0.0000 C.3     1  LIG1        0.0323
     17 C          -3.0040    2.3290    0.0000 C.ar    1  LIG1       -0.0078
     18 C          -2.7920    1.3580    0.0000 C.ar    1  LIG1        0.0543
     19 C          -3.5500    0.6830    0.0000 C.ar    1  LIG1        0.0149
     20 C          -4.4750    1.0040    0.0000 C.ar    1  LIG1        0.0013
     21 C          -4.7130    1.9750    0.0000 C.ar    1  LIG1       -0.0002
     22 C          -3.9880    2.6540    0.0000 C.ar    1  LIG1       -0.0030
     23 C          -1.9000   -0.0830    0.0000 C.2     1  LIG1        0.2970
     24 O          -2.7630   -0.5960    0.0000 O.2     1  LIG1       -0.2675
     25 C          -1.0290   -0.6130    0.0000 C.3     1  LIG1        0.2875
     26 N          -1.0290   -1.6080    0.0000 N.4     1  LIG1        0.4558
     27 C          -1.8880   -2.1250    0.0000 C.3     1  LIG1        0.2016
     28 C          -1.8880   -3.1170    0.0000 C.3     1  LIG1        0.0752
@<TRIPOS>BOND
     1     1     2    1
     2     1    18    1
     3     1    23   am
     4     2     3   ar
     5     2    14   ar
     6     3     4   ar
     7     4     5    1
     8     4    12   ar
     9     5     6   am
    10     6     7    2
    11     6     8    1
    12     8     9    1
    13     9    10    1
    14     9    11    1
    15    12    13   ar
    16    13    14   ar
    17    14    15    1
    18    15    16    1
    19    16    17    1
    20    17    18   ar
    21    17    22   ar
    22    18    19   ar
    23    19    20   ar
    24    20    21   ar
    25    21    22   ar
    26    23    24    2
    27    23    25    1
    28    25    26    1
    29    26    27    1
    30    27    28    1
