@<TRIPOS>MOLECULE
25467_ChemDiv_3238-0651
 35 40 0 0 0
SMALL
GASTEIGER
Energy = 0

@<TRIPOS>ATOM
      1 C          -2.2920   -2.1290    0.0000 C.ar    1  LIG1        0.1709
      2 C          -2.2920   -1.1500    0.0000 C.ar    1  LIG1        0.1539
      3 N          -1.3290   -0.8380    0.0000 N.ar    1  LIG1       -0.2892
      4 C          -0.7420   -1.6460    0.0000 C.ar    1  LIG1        0.2196
      5 N          -1.3380   -2.4420    0.0000 N.ar    1  LIG1       -0.1946
      6 N           0.2790   -1.6460    0.0000 N.pl3   1  LIG1       -0.2003
      7 C           0.7750   -2.5170    0.0000 C.3     1  LIG1        0.1417
      8 C           1.7920   -2.5170    0.0000 C.ar    1  LIG1        0.0027
      9 C           2.2880   -1.6630    0.0000 C.ar    1  LIG1        0.0376
     10 C           3.2920   -1.6630    0.0000 C.ar    1  LIG1        0.1762
     11 C           3.8080   -2.5250    0.0000 C.ar    1  LIG1        0.1764
     12 O           4.7880   -2.3080    0.0000 O.3     1  LIG1       -0.4346
     13 C           4.8920   -1.3210    0.0000 C.3     1  LIG1        0.4294
     14 O           3.9580   -0.9290    0.0000 O.3     1  LIG1       -0.4346
     15 C           3.2920   -3.3790    0.0000 C.ar    1  LIG1        0.0399
     16 C           2.2710   -3.3790    0.0000 C.ar    1  LIG1        0.0008
     17 C          -1.3380    0.1670    0.0000 C.3     1  LIG1        0.1357
     18 C          -0.4540    0.6460    0.0000 C.ar    1  LIG1        0.0005
     19 C          -0.4750    1.6380    0.0000 C.ar    1  LIG1       -0.0021
     20 C           0.4080    2.1330    0.0000 C.ar    1  LIG1       -0.0002
     21 C           1.2920    1.6420    0.0000 C.ar    1  LIG1       -0.0000
     22 C           1.2920    0.6630    0.0000 C.ar    1  LIG1       -0.0003
     23 C           0.4080    0.1670    0.0000 C.ar    1  LIG1       -0.0024
     24 C           0.3960    3.1330    0.0000 C.ar    1  LIG1       -0.0000
     25 C          -0.4880    3.6210    0.0000 C.ar    1  LIG1       -0.0000
     26 C          -1.3540    3.1080    0.0000 C.ar    1  LIG1       -0.0000
     27 C          -1.3380    2.1170    0.0000 C.ar    1  LIG1       -0.0003
     28 C          -3.1500   -0.6420    0.0000 C.ar    1  LIG1        0.2832
     29 N          -4.0130   -1.1500    0.0000 N.ar    1  LIG1       -0.2454
     30 C          -4.0130   -2.1290    0.0000 C.ar    1  LIG1        0.3350
     31 N          -3.1500   -2.6250    0.0000 N.ar    1  LIG1       -0.2628
     32 C          -3.1670   -3.6170    0.0000 C.3     1  LIG1        0.1366
     33 O          -4.8960   -2.6250    0.0000 O.2     1  LIG1       -0.2461
     34 C          -4.8960   -0.6420    0.0000 C.3     1  LIG1        0.1383
     35 O          -3.1500    0.3500    0.0000 O.2     1  LIG1       -0.2652
@<TRIPOS>BOND
     1     1     2   ar
     2     1     5   ar
     3     1    31   ar
     4     2     3   ar
     5     2    28   ar
     6     3     4   ar
     7     3    17    1
     8     4     5   ar
     9     4     6    1
    10     6     7    1
    11     7     8    1
    12     8     9   ar
    13     8    16   ar
    14     9    10   ar
    15    10    11   ar
    16    10    14    1
    17    11    12    1
    18    11    15   ar
    19    12    13    1
    20    13    14    1
    21    15    16   ar
    22    17    18    1
    23    18    19   ar
    24    18    23   ar
    25    19    20   ar
    26    19    27   ar
    27    20    21   ar
    28    20    24   ar
    29    21    22   ar
    30    22    23   ar
    31    24    25   ar
    32    25    26   ar
    33    26    27   ar
    34    28    29   ar
    35    28    35    2
    36    29    30   ar
    37    29    34    1
    38    30    31   ar
    39    30    33    2
    40    31    32    1
