@<TRIPOS>MOLECULE
25462_ChemDiv_4119-0074
 29 31 0 0 0
SMALL
GASTEIGER
Energy = 0

@<TRIPOS>ATOM
      1 N          -1.9000    0.9210    0.0000 N.am    1  LIG1       -0.2331
      2 C          -1.9000   -0.0830    0.0000 C.2     1  LIG1        0.2908
      3 C          -1.0250   -0.6130    0.0000 C.3     1  LIG1        0.2256
      4 N          -1.0250   -1.6130    0.0000 N.4     1  LIG1        0.3844
      5 C          -0.1580   -2.1250    0.0000 C.3     1  LIG1        0.1395
      6 C           0.7040   -1.6420    0.0000 C.3     1  LIG1        0.0689
      7 C          -1.8790   -2.1250    0.0000 C.3     1  LIG1        0.1395
      8 C          -1.8670   -3.1170    0.0000 C.3     1  LIG1        0.0689
      9 O          -2.7630   -0.5960    0.0000 O.2     1  LIG1       -0.2678
     10 C          -1.0040    1.3580    0.0000 C.ar    1  LIG1        0.0556
     11 C          -0.2960    0.6670    0.0000 C.ar    1  LIG1        0.0316
     12 C           0.6880    0.9460    0.0000 C.ar    1  LIG1        0.0779
     13 N           1.4460    0.2750    0.0000 N.am    1  LIG1       -0.1424
     14 C           2.3880    0.5670    0.0000 C.2     1  LIG1        0.4254
     15 O           2.5880    1.5630    0.0000 O.2     1  LIG1       -0.2242
     16 O           3.0630   -0.1380    0.0000 O.3     1  LIG1       -0.4333
     17 C           4.0210    0.0960    0.0000 C.3     1  LIG1        0.2103
     18 C           4.7040   -0.6080    0.0000 C.3     1  LIG1        0.0513
     19 C           0.9250    1.9040    0.0000 C.ar    1  LIG1        0.0165
     20 C           0.1750    2.6250    0.0000 C.ar    1  LIG1       -0.0017
     21 C          -0.7670    2.3330    0.0000 C.ar    1  LIG1       -0.0077
     22 C          -1.3960    3.1210    0.0000 C.3     1  LIG1        0.0323
     23 C          -2.3790    3.1210    0.0000 C.3     1  LIG1        0.0323
     24 C          -3.0040    2.3290    0.0000 C.ar    1  LIG1       -0.0078
     25 C          -2.7920    1.3580    0.0000 C.ar    1  LIG1        0.0543
     26 C          -3.5460    0.6830    0.0000 C.ar    1  LIG1        0.0149
     27 C          -4.4750    1.0040    0.0000 C.ar    1  LIG1        0.0013
     28 C          -4.7080    1.9750    0.0000 C.ar    1  LIG1       -0.0002
     29 C          -3.9830    2.6540    0.0000 C.ar    1  LIG1       -0.0030
@<TRIPOS>BOND
     1     1     2   am
     2     1    10    1
     3     1    25    1
     4     2     3    1
     5     2     9    2
     6     3     4    1
     7     4     5    1
     8     4     7    1
     9     5     6    1
    10     7     8    1
    11    10    11   ar
    12    10    21   ar
    13    11    12   ar
    14    12    13    1
    15    12    19   ar
    16    13    14   am
    17    14    15    2
    18    14    16    1
    19    16    17    1
    20    17    18    1
    21    19    20   ar
    22    20    21   ar
    23    21    22    1
    24    22    23    1
    25    23    24    1
    26    24    25   ar
    27    24    29   ar
    28    25    26   ar
    29    26    27   ar
    30    27    28   ar
    31    28    29   ar
