@<TRIPOS>MOLECULE
25464_ChemDiv_4119-0075
 31 34 0 0 0
SMALL
GASTEIGER
Energy = 0

@<TRIPOS>ATOM
      1 N          -1.9000    1.6630    0.0000 N.am    1  LIG1       -0.2368
      2 C          -1.9000    0.6580    0.0000 C.2     1  LIG1        0.2494
      3 C          -1.0290    0.1290    0.0000 C.3     1  LIG1        0.1596
      4 N          -1.0290   -0.8710    0.0000 N.3     1  LIG1       -0.2549
      5 C          -1.8880   -1.3830    0.0000 C.3     1  LIG1        0.1362
      6 C          -1.8880   -2.3750    0.0000 C.3     1  LIG1        0.1566
      7 N          -1.0290   -2.8710    0.0000 N.4     1  LIG1        0.3842
      8 C          -0.1750   -2.3750    0.0000 C.3     1  LIG1        0.1566
      9 C          -0.1750   -1.3580    0.0000 C.3     1  LIG1        0.1362
     10 C          -1.0290   -3.8580    0.0000 C.3     1  LIG1        0.2024
     11 O          -2.7670    0.1460    0.0000 O.2     1  LIG1       -0.2727
     12 C          -1.0040    2.1000    0.0000 C.ar    1  LIG1        0.0554
     13 C          -0.2960    1.4080    0.0000 C.ar    1  LIG1        0.0316
     14 C           0.6920    1.6880    0.0000 C.ar    1  LIG1        0.0779
     15 N           1.4460    1.0170    0.0000 N.am    1  LIG1       -0.1424
     16 C           2.3880    1.3080    0.0000 C.2     1  LIG1        0.4254
     17 O           2.5920    2.3080    0.0000 O.2     1  LIG1       -0.2242
     18 O           3.0670    0.6040    0.0000 O.3     1  LIG1       -0.4333
     19 C           4.0250    0.8380    0.0000 C.3     1  LIG1        0.2103
     20 C           4.7080    0.1330    0.0000 C.3     1  LIG1        0.0513
     21 C           0.9250    2.6460    0.0000 C.ar    1  LIG1        0.0165
     22 C           0.1750    3.3670    0.0000 C.ar    1  LIG1       -0.0017
     23 C          -0.7670    3.0790    0.0000 C.ar    1  LIG1       -0.0077
     24 C          -1.3960    3.8630    0.0000 C.3     1  LIG1        0.0323
     25 C          -2.3830    3.8630    0.0000 C.3     1  LIG1        0.0323
     26 C          -3.0040    3.0710    0.0000 C.ar    1  LIG1       -0.0078
     27 C          -2.7960    2.1000    0.0000 C.ar    1  LIG1        0.0541
     28 C          -3.5500    1.4250    0.0000 C.ar    1  LIG1        0.0149
     29 C          -4.4790    1.7460    0.0000 C.ar    1  LIG1        0.0013
     30 C          -4.7130    2.7210    0.0000 C.ar    1  LIG1       -0.0002
     31 C          -3.9880    3.3960    0.0000 C.ar    1  LIG1       -0.0030
@<TRIPOS>BOND
     1     1     2   am
     2     1    12    1
     3     1    27    1
     4     2     3    1
     5     2    11    2
     6     3     4    1
     7     4     5    1
     8     4     9    1
     9     5     6    1
    10     6     7    1
    11     7     8    1
    12     7    10    1
    13     8     9    1
    14    12    13   ar
    15    12    23   ar
    16    13    14   ar
    17    14    15    1
    18    14    21   ar
    19    15    16   am
    20    16    17    2
    21    16    18    1
    22    18    19    1
    23    19    20    1
    24    21    22   ar
    25    22    23   ar
    26    23    24    1
    27    24    25    1
    28    25    26    1
    29    26    27   ar
    30    26    31   ar
    31    27    28   ar
    32    28    29   ar
    33    29    30   ar
    34    30    31   ar
