@<TRIPOS>MOLECULE
25471_ChemDiv_4753-0004
 24 27 0 0 0
SMALL
GASTEIGER
Energy = 0

@<TRIPOS>ATOM
      1 C           0.2880   -0.7380    0.0000 C.ar    1  LIG1        0.1873
      2 N          -0.5880   -1.2290    0.0000 N.ar    1  LIG1       -0.1928
      3 C          -1.4710   -0.7380    0.0000 C.ar    1  LIG1        0.2242
      4 N          -1.4710    0.2670    0.0000 N.ar    1  LIG1       -0.1735
      5 C          -0.5880    0.7830    0.0000 C.ar    1  LIG1        0.3005
      6 C           0.2880    0.2670    0.0000 C.ar    1  LIG1        0.1562
      7 N           1.2290    0.5880    0.0000 N.ar    1  LIG1       -0.2997
      8 C           1.8040   -0.2290    0.0000 C.ar    1  LIG1        0.1805
      9 N           1.2290   -1.0330    0.0000 N.ar    1  LIG1       -0.2046
     10 C           1.5500    1.5500    0.0000 C.3     1  LIG1        0.1345
     11 C           2.5330    1.7630    0.0000 C.ar    1  LIG1        0.0004
     12 C           2.8540    2.7250    0.0000 C.ar    1  LIG1       -0.0024
     13 C           3.8170    2.9210    0.0000 C.ar    1  LIG1       -0.0003
     14 C           4.4750    2.1710    0.0000 C.ar    1  LIG1       -0.0000
     15 C           4.1750    1.2500    0.0000 C.ar    1  LIG1       -0.0003
     16 C           3.2170    1.0380    0.0000 C.ar    1  LIG1       -0.0024
     17 O          -0.5880    1.7830    0.0000 O.2     1  LIG1       -0.2634
     18 N          -2.3250   -1.2290    0.0000 N.pl3   1  LIG1       -0.2781
     19 C          -3.1290   -0.6540    0.0000 C.3     1  LIG1        0.0936
     20 C          -4.1130   -0.9630    0.0000 C.3     1  LIG1        0.0215
     21 C          -4.4790   -1.8880    0.0000 C.3     1  LIG1        0.0018
     22 C          -4.0000   -2.7420    0.0000 C.3     1  LIG1        0.0018
     23 C          -2.9920   -2.9170    0.0000 C.3     1  LIG1        0.0215
     24 C          -2.2710   -2.2460    0.0000 C.3     1  LIG1        0.0936
@<TRIPOS>BOND
     1     1     2   ar
     2     1     6   ar
     3     1     9   ar
     4     2     3   ar
     5     3     4   ar
     6     3    18    1
     7     4     5   ar
     8     5     6   ar
     9     5    17    2
    10     6     7   ar
    11     7     8   ar
    12     7    10    1
    13     8     9   ar
    14    10    11    1
    15    11    12   ar
    16    11    16   ar
    17    12    13   ar
    18    13    14   ar
    19    14    15   ar
    20    15    16   ar
    21    18    19    1
    22    18    24    1
    23    19    20    1
    24    20    21    1
    25    21    22    1
    26    22    23    1
    27    23    24    1
