@<TRIPOS>MOLECULE
25472_ChemDiv_6623-0101
 29 31 0 0 0
SMALL
GASTEIGER
Energy = 0

@<TRIPOS>ATOM
      1 N          -1.9000    0.0290    0.0000 N.am    1  LIG1       -0.2043
      2 C          -1.1710    0.7210    0.0000 C.ar    1  LIG1        0.0586
      3 C          -0.2580    0.3080    0.0000 C.ar    1  LIG1        0.0317
      4 C           0.5710    0.8670    0.0000 C.ar    1  LIG1        0.0779
      5 N           1.4790    0.4540    0.0000 N.am    1  LIG1       -0.1424
      6 C           2.2880    1.0250    0.0000 C.2     1  LIG1        0.4254
      7 O           2.1420    1.9790    0.0000 O.2     1  LIG1       -0.2242
      8 O           3.2130    0.6170    0.0000 O.3     1  LIG1       -0.4333
      9 C           4.0130    1.1880    0.0000 C.3     1  LIG1        0.2103
     10 C           4.9130    0.7710    0.0000 C.3     1  LIG1        0.0513
     11 C           0.4710    1.8630    0.0000 C.ar    1  LIG1        0.0165
     12 C          -0.4420    2.3040    0.0000 C.ar    1  LIG1       -0.0017
     13 C          -1.2460    1.7210    0.0000 C.ar    1  LIG1       -0.0076
     14 C          -2.0750    2.2920    0.0000 C.3     1  LIG1        0.0323
     15 C          -3.0460    2.0210    0.0000 C.3     1  LIG1        0.0323
     16 C          -3.4000    1.0750    0.0000 C.ar    1  LIG1       -0.0077
     17 C          -2.9040    0.2080    0.0000 C.ar    1  LIG1        0.0573
     18 C          -3.3830   -0.6420    0.0000 C.ar    1  LIG1        0.0150
     19 C          -4.4080   -0.6670    0.0000 C.ar    1  LIG1        0.0013
     20 C          -4.9170    0.1960    0.0000 C.ar    1  LIG1       -0.0002
     21 C          -4.4080    1.0750    0.0000 C.ar    1  LIG1       -0.0030
     22 C          -1.6330   -0.9210    0.0000 C.2     1  LIG1        0.4127
     23 O          -2.3290   -1.6420    0.0000 O.2     1  LIG1       -0.2255
     24 O          -0.6460   -1.1380    0.0000 O.3     1  LIG1       -0.4275
     25 C           0.0210   -0.4080    0.0000 C.3     1  LIG1        0.2722
     26 C           0.9920   -0.6170    0.0000 C.3     1  LIG1        0.1875
     27 N           1.2710   -1.5670    0.0000 N.4     1  LIG1        0.3897
     28 C           0.6040   -2.3000    0.0000 C.3     1  LIG1        0.2027
     29 C           2.2580   -1.7830    0.0000 C.3     1  LIG1        0.2027
@<TRIPOS>BOND
     1     1     2    1
     2     1    17    1
     3     1    22   am
     4     2     3   ar
     5     2    13   ar
     6     3     4   ar
     7     4     5    1
     8     4    11   ar
     9     5     6   am
    10     6     7    2
    11     6     8    1
    12     8     9    1
    13     9    10    1
    14    11    12   ar
    15    12    13   ar
    16    13    14    1
    17    14    15    1
    18    15    16    1
    19    16    17   ar
    20    16    21   ar
    21    17    18   ar
    22    18    19   ar
    23    19    20   ar
    24    20    21   ar
    25    22    23    2
    26    22    24    1
    27    24    25    1
    28    25    26    1
    29    26    27    1
    30    27    28    1
    31    27    29    1
