@<TRIPOS>MOLECULE
25476_ChemDiv_8017-2665
 20 22 0 0 0
SMALL
GASTEIGER
Energy = 0

@<TRIPOS>ATOM
      1 C           2.2920    0.0290    0.0000 C.ar    1  LIG1        0.1241
      2 C           2.0250   -0.9380    0.0000 C.ar    1  LIG1        0.0947
      3 N           1.0500   -1.1920    0.0000 N.am    1  LIG1       -0.1591
      4 C           0.3460   -0.4790    0.0000 C.2     1  LIG1        0.3478
      5 N          -0.6210   -0.7290    0.0000 N.am    1  LIG1       -0.1607
      6 C          -1.3210   -0.0250    0.0000 C.ar    1  LIG1        0.0758
      7 C          -2.2830   -0.2790    0.0000 C.ar    1  LIG1        0.0280
      8 C          -2.9920    0.4210    0.0000 C.ar    1  LIG1        0.0590
      9 CL         -3.9670    0.1670    0.0000 Cl      1  LIG1       -0.0822
     10 C          -2.7290    1.3830    0.0000 C.ar    1  LIG1        0.0115
     11 C          -1.7580    1.6540    0.0000 C.ar    1  LIG1        0.0022
     12 C          -1.0580    0.9330    0.0000 C.ar    1  LIG1        0.0167
     13 O           0.6040    0.4790    0.0000 O.2     1  LIG1       -0.2484
     14 C           2.7290   -1.6500    0.0000 C.ar    1  LIG1        0.0183
     15 C           3.7040   -1.3880    0.0000 C.ar    1  LIG1        0.0030
     16 C           3.9630   -0.4250    0.0000 C.ar    1  LIG1        0.0214
     17 C           3.2540    0.2830    0.0000 C.ar    1  LIG1        0.1101
     18 N           3.3170    1.2790    0.0000 N.ar    1  LIG1       -0.1901
     19 S           2.4040    1.6420    0.0000 S.2     1  LIG1        0.1166
     20 N           1.7630    0.8670    0.0000 N.ar    1  LIG1       -0.1888
@<TRIPOS>BOND
     1     1     2   ar
     2     1    17   ar
     3     1    20   ar
     4     2     3    1
     5     2    14   ar
     6     3     4   am
     7     4     5   am
     8     4    13    2
     9     5     6    1
    10     6     7   ar
    11     6    12   ar
    12     7     8   ar
    13     8     9    1
    14     8    10   ar
    15    10    11   ar
    16    11    12   ar
    17    14    15   ar
    18    15    16   ar
    19    16    17   ar
    20    17    18   ar
    21    18    19   ar
    22    19    20   ar
