@<TRIPOS>MOLECULE
25470_ChemDiv_4119-0081
 25 27 0 0 0
SMALL
GASTEIGER
Energy = 0

@<TRIPOS>ATOM
      1 N          -1.9080    0.1080    0.0000 N.am    1  LIG1       -0.2326
      2 C          -0.9580    0.4830    0.0000 C.ar    1  LIG1        0.0556
      3 C          -0.2880   -0.2380    0.0000 C.ar    1  LIG1        0.0316
      4 C           0.6790   -0.0080    0.0000 C.ar    1  LIG1        0.0779
      5 N           1.3540   -0.7460    0.0000 N.am    1  LIG1       -0.1424
      6 C           2.3250   -0.5380    0.0000 C.2     1  LIG1        0.4254
      7 O           2.6500    0.4130    0.0000 O.2     1  LIG1       -0.2242
      8 O           2.9960   -1.2790    0.0000 O.3     1  LIG1       -0.4333
      9 C           3.9630   -1.0750    0.0000 C.3     1  LIG1        0.2103
     10 C           4.6380   -1.8290    0.0000 C.3     1  LIG1        0.0513
     11 C           0.9830    0.9460    0.0000 C.ar    1  LIG1        0.0165
     12 C           0.2920    1.6670    0.0000 C.ar    1  LIG1       -0.0017
     13 C          -0.6830    1.4290    0.0000 C.ar    1  LIG1       -0.0077
     14 C          -1.2460    2.2460    0.0000 C.3     1  LIG1        0.0323
     15 C          -2.2330    2.3540    0.0000 C.3     1  LIG1        0.0323
     16 C          -2.9250    1.6130    0.0000 C.ar    1  LIG1       -0.0078
     17 C          -2.7670    0.6210    0.0000 C.ar    1  LIG1        0.0543
     18 C          -3.5790   -0.0080    0.0000 C.ar    1  LIG1        0.0149
     19 C          -4.5080    0.3670    0.0000 C.ar    1  LIG1        0.0013
     20 C          -4.6420    1.3580    0.0000 C.ar    1  LIG1       -0.0002
     21 C          -3.8540    1.9880    0.0000 C.ar    1  LIG1       -0.0030
     22 C          -1.9080   -0.8830    0.0000 C.2     1  LIG1        0.3085
     23 O          -2.7920   -1.3670    0.0000 O.2     1  LIG1       -0.2671
     24 C          -1.0540   -1.3670    0.0000 C.3     1  LIG1        0.4018
     25 N          -1.0420   -2.3500    0.0000 N.4     1  LIG1        0.6061
@<TRIPOS>BOND
     1     1     2    1
     2     1    17    1
     3     1    22   am
     4     2     3   ar
     5     2    13   ar
     6     3     4   ar
     7     4     5    1
     8     4    11   ar
     9     5     6   am
    10     6     7    2
    11     6     8    1
    12     8     9    1
    13     9    10    1
    14    11    12   ar
    15    12    13   ar
    16    13    14    1
    17    14    15    1
    18    15    16    1
    19    16    17   ar
    20    16    21   ar
    21    17    18   ar
    22    18    19   ar
    23    19    20   ar
    24    20    21   ar
    25    22    23    2
    26    22    24    1
    27    24    25    1
