@<TRIPOS>MOLECULE
25478_ChemDiv_8017-2666
 20 22 0 0 0
SMALL
GASTEIGER
Energy = 0

@<TRIPOS>ATOM
      1 C           2.0330   -0.1920    0.0000 C.ar    1  LIG1        0.1241
      2 C           1.7670   -1.1580    0.0000 C.ar    1  LIG1        0.0947
      3 N           0.7960   -1.4170    0.0000 N.am    1  LIG1       -0.1591
      4 C           0.0920   -0.7040    0.0000 C.2     1  LIG1        0.3478
      5 N          -0.8830   -0.9540    0.0000 N.am    1  LIG1       -0.1607
      6 C          -1.5830   -0.2460    0.0000 C.ar    1  LIG1        0.0750
      7 C          -2.5420   -0.5080    0.0000 C.ar    1  LIG1        0.0175
      8 C          -3.2540    0.2040    0.0000 C.ar    1  LIG1        0.0127
      9 C          -2.9920    1.1670    0.0000 C.ar    1  LIG1        0.0578
     10 CL         -3.7040    1.8710    0.0000 Cl      1  LIG1       -0.0822
     11 C          -2.0170    1.4290    0.0000 C.ar    1  LIG1        0.0127
     12 C          -1.3170    0.7170    0.0000 C.ar    1  LIG1        0.0175
     13 O           0.3460    0.2540    0.0000 O.2     1  LIG1       -0.2484
     14 C           2.4670   -1.8670    0.0000 C.ar    1  LIG1        0.0183
     15 C           3.4420   -1.6040    0.0000 C.ar    1  LIG1        0.0030
     16 C           3.7000   -0.6420    0.0000 C.ar    1  LIG1        0.0214
     17 C           3.0000    0.0670    0.0000 C.ar    1  LIG1        0.1101
     18 N           3.0540    1.0580    0.0000 N.ar    1  LIG1       -0.1901
     19 S           2.1500    1.4210    0.0000 S.2     1  LIG1        0.1166
     20 N           1.5000    0.6460    0.0000 N.ar    1  LIG1       -0.1888
@<TRIPOS>BOND
     1     1     2   ar
     2     1    17   ar
     3     1    20   ar
     4     2     3    1
     5     2    14   ar
     6     3     4   am
     7     4     5   am
     8     4    13    2
     9     5     6    1
    10     6     7   ar
    11     6    12   ar
    12     7     8   ar
    13     8     9   ar
    14     9    10    1
    15     9    11   ar
    16    11    12   ar
    17    14    15   ar
    18    15    16   ar
    19    16    17   ar
    20    17    18   ar
    21    18    19   ar
    22    19    20   ar
