@<TRIPOS>MOLECULE
25480_ChemDiv_8017-4410
 16 17 0 0 0
SMALL
GASTEIGER
Energy = 0

@<TRIPOS>ATOM
      1 C           1.1630    0.0460    0.0000 C.ar    1  LIG1        0.1241
      2 C           0.2750   -0.4250    0.0000 C.ar    1  LIG1        0.0931
      3 N          -0.5670    0.1080    0.0000 N.am    1  LIG1       -0.1776
      4 C          -1.5210    0.4000    0.0000 C.2     1  LIG1        0.2447
      5 C          -2.2540    1.0960    0.0000 C.3     1  LIG1        0.0709
      6 C          -2.7330    0.2210    0.0000 C.3     1  LIG1        0.0091
      7 C          -1.2420    1.1210    0.0000 C.3     1  LIG1        0.0091
      8 C          -2.7710    1.9580    0.0000 C.3     1  LIG1        0.0091
      9 O          -2.0330   -0.4670    0.0000 O.2     1  LIG1       -0.2730
     10 C           0.2420   -1.4250    0.0000 C.ar    1  LIG1        0.0182
     11 C           1.0920   -1.9540    0.0000 C.ar    1  LIG1        0.0030
     12 C           1.9670   -1.4790    0.0000 C.ar    1  LIG1        0.0214
     13 C           2.0040   -0.4790    0.0000 C.ar    1  LIG1        0.1101
     14 N           2.7670    0.1630    0.0000 N.ar    1  LIG1       -0.1901
     15 S           2.3920    1.0830    0.0000 S.2     1  LIG1        0.1166
     16 N           1.4000    1.0080    0.0000 N.ar    1  LIG1       -0.1888
@<TRIPOS>BOND
     1     1     2   ar
     2     1    13   ar
     3     1    16   ar
     4     2     3    1
     5     2    10   ar
     6     3     4   am
     7     4     5    1
     8     4     9    2
     9     5     6    1
    10     5     7    1
    11     5     8    1
    12    10    11   ar
    13    11    12   ar
    14    12    13   ar
    15    13    14   ar
    16    14    15   ar
    17    15    16   ar
