@<TRIPOS>MOLECULE
25482_ChemDiv_8017-4421
 23 27 0 0 0
SMALL
GASTEIGER
Energy = 0

@<TRIPOS>ATOM
      1 C          -2.3670   -1.1500    0.0000 C.ar    1  LIG1        0.1241
      2 C          -1.8290   -0.3130    0.0000 C.ar    1  LIG1        0.0931
      3 N          -0.8330   -0.3420    0.0000 N.am    1  LIG1       -0.1776
      4 C           0.1380   -0.1170    0.0000 C.2     1  LIG1        0.2456
      5 C           1.1040   -0.3630    0.0000 C.3     1  LIG1        0.0872
      6 C           1.8040    0.3580    0.0000 C.3     1  LIG1        0.0087
      7 C           1.7040    1.4210    0.0000 C.3     1  LIG1        0.0005
      8 C           2.6170    1.7960    0.0000 C.3     1  LIG1        0.0000
      9 C           3.3420    1.0500    0.0000 C.3     1  LIG1        0.0000
     10 C           3.4130    0.0000    0.0000 C.3     1  LIG1        0.0000
     11 C           2.4920   -0.3630    0.0000 C.3     1  LIG1        0.0005
     12 C           3.8250    0.8380    0.0000 C.3     1  LIG1        0.0000
     13 C           3.1500    1.5330    0.0000 C.3     1  LIG1        0.0000
     14 C           2.3040    1.1580    0.0000 C.3     1  LIG1        0.0005
     15 C           3.1290    2.6710    0.0000 C.3     1  LIG1        0.0000
     16 O           0.1420    0.8830    0.0000 O.2     1  LIG1       -0.2730
     17 C          -2.3040    0.5710    0.0000 C.ar    1  LIG1        0.0182
     18 C          -3.3040    0.6000    0.0000 C.ar    1  LIG1        0.0030
     19 C          -3.8290   -0.2420    0.0000 C.ar    1  LIG1        0.0214
     20 C          -3.3540   -1.1170    0.0000 C.ar    1  LIG1        0.1101
     21 N          -3.6920   -2.0540    0.0000 N.ar    1  LIG1       -0.1901
     22 S          -2.9080   -2.6670    0.0000 S.2     1  LIG1        0.1166
     23 N          -2.0920   -2.1040    0.0000 N.ar    1  LIG1       -0.1888
@<TRIPOS>BOND
     1     1     2   ar
     2     1    20   ar
     3     1    23   ar
     4     2     3    1
     5     2    17   ar
     6     3     4   am
     7     4     5    1
     8     4    16    2
     9     5     6    1
    10     6     7    1
    11     6    11    1
    12     6    14    1
    13     7     8    1
    14     8     9    1
    15     8    15    1
    16     9    10    1
    17    10    11    1
    18    10    12    1
    19    12    13    1
    20    13    14    1
    21    13    15    1
    22    17    18   ar
    23    18    19   ar
    24    19    20   ar
    25    20    21   ar
    26    21    22   ar
    27    22    23   ar
