@<TRIPOS>MOLECULE
25489_ChemDiv_4753-0005
 23 26 0 0 0
SMALL
GASTEIGER
Energy = 0

@<TRIPOS>ATOM
      1 C           0.0790   -0.8380    0.0000 C.ar    1  LIG1        0.1873
      2 N          -0.8000   -1.3250    0.0000 N.ar    1  LIG1       -0.1928
      3 C          -1.6790   -0.8380    0.0000 C.ar    1  LIG1        0.2244
      4 N          -1.6790    0.1710    0.0000 N.ar    1  LIG1       -0.1735
      5 C          -0.8000    0.6880    0.0000 C.ar    1  LIG1        0.3005
      6 C           0.0790    0.1710    0.0000 C.ar    1  LIG1        0.1562
      7 N           1.0210    0.4920    0.0000 N.ar    1  LIG1       -0.2997
      8 C           1.5960   -0.3250    0.0000 C.ar    1  LIG1        0.1805
      9 N           1.0210   -1.1290    0.0000 N.ar    1  LIG1       -0.2046
     10 C           1.3420    1.4540    0.0000 C.3     1  LIG1        0.1345
     11 C           2.3290    1.6710    0.0000 C.ar    1  LIG1        0.0004
     12 C           2.6500    2.6330    0.0000 C.ar    1  LIG1       -0.0024
     13 C           3.6130    2.8290    0.0000 C.ar    1  LIG1       -0.0003
     14 C           4.2710    2.0790    0.0000 C.ar    1  LIG1       -0.0000
     15 C           3.9750    1.1580    0.0000 C.ar    1  LIG1       -0.0003
     16 C           3.0080    0.9420    0.0000 C.ar    1  LIG1       -0.0024
     17 O          -0.8000    1.6920    0.0000 O.2     1  LIG1       -0.2634
     18 N          -2.5380   -1.3250    0.0000 N.pl3   1  LIG1       -0.2729
     19 C          -2.5250   -2.3080    0.0000 C.3     1  LIG1        0.1257
     20 C          -3.3670   -2.8250    0.0000 C.3     1  LIG1        0.1637
     21 O          -4.2670   -2.3630    0.0000 O.3     1  LIG1       -0.3501
     22 C          -4.2750   -1.3580    0.0000 C.3     1  LIG1        0.1637
     23 C          -3.4000   -0.8460    0.0000 C.3     1  LIG1        0.1257
@<TRIPOS>BOND
     1     1     2   ar
     2     1     6   ar
     3     1     9   ar
     4     2     3   ar
     5     3     4   ar
     6     3    18    1
     7     4     5   ar
     8     5     6   ar
     9     5    17    2
    10     6     7   ar
    11     7     8   ar
    12     7    10    1
    13     8     9   ar
    14    10    11    1
    15    11    12   ar
    16    11    16   ar
    17    12    13   ar
    18    13    14   ar
    19    14    15   ar
    20    15    16   ar
    21    18    19    1
    22    18    23    1
    23    19    20    1
    24    20    21    1
    25    21    22    1
    26    22    23    1
