@<TRIPOS>MOLECULE
25488_ChemDiv_8017-6382
 19 20 0 0 0
SMALL
GASTEIGER
Energy = 0

@<TRIPOS>ATOM
      1 C           1.8290    0.5170    0.0000 C.ar    1  LIG1        0.1237
      2 C           1.5790   -0.4500    0.0000 C.ar    1  LIG1        0.0893
      3 C           2.2920   -1.1540    0.0000 C.ar    1  LIG1       -0.0049
      4 C           3.2540   -0.8920    0.0000 C.ar    1  LIG1       -0.0013
      5 C           3.5130    0.0670    0.0000 C.ar    1  LIG1        0.0211
      6 C           2.7920    0.7670    0.0000 C.ar    1  LIG1        0.1101
      7 N           2.8540    1.7670    0.0000 N.ar    1  LIG1       -0.1901
      8 S           1.9170    2.1290    0.0000 S.2     1  LIG1        0.1166
      9 N           1.2920    1.3540    0.0000 N.ar    1  LIG1       -0.1888
     10 C           2.0380   -2.1250    0.0000 C.3     1  LIG1        0.0324
     11 N           0.6170   -0.7170    0.0000 N.am    1  LIG1       -0.1729
     12 C          -0.1210   -0.0420    0.0000 C.2     1  LIG1        0.3033
     13 O           0.0790    0.9290    0.0000 O.2     1  LIG1       -0.2665
     14 C          -1.0790   -0.3540    0.0000 C.3     1  LIG1        0.2269
     15 N          -1.8170    0.3170    0.0000 N.4     1  LIG1        0.3844
     16 C          -1.6080    1.2920    0.0000 C.3     1  LIG1        0.1395
     17 C          -2.3460    1.9580    0.0000 C.3     1  LIG1        0.0689
     18 C          -2.7710    0.0040    0.0000 C.3     1  LIG1        0.1395
     19 C          -3.5170    0.6790    0.0000 C.3     1  LIG1        0.0689
@<TRIPOS>BOND
     1     1     2   ar
     2     1     6   ar
     3     1     9   ar
     4     2     3   ar
     5     2    11    1
     6     3     4   ar
     7     3    10    1
     8     4     5   ar
     9     5     6   ar
    10     6     7   ar
    11     7     8   ar
    12     8     9   ar
    13    11    12   am
    14    12    13    2
    15    12    14    1
    16    14    15    1
    17    15    16    1
    18    15    18    1
    19    16    17    1
    20    18    19    1
