@<TRIPOS>MOLECULE
25484_ChemDiv_8017-4950
 21 23 0 0 0
SMALL
GASTEIGER
Energy = 0

@<TRIPOS>ATOM
      1 C           2.0920    0.4130    0.0000 C.ar    1  LIG1        0.1237
      2 C           1.8420   -0.5540    0.0000 C.ar    1  LIG1        0.0893
      3 C           2.5540   -1.2540    0.0000 C.ar    1  LIG1       -0.0049
      4 C           3.5170   -0.9920    0.0000 C.ar    1  LIG1       -0.0013
      5 C           3.7750   -0.0290    0.0000 C.ar    1  LIG1        0.0211
      6 C           3.0630    0.6710    0.0000 C.ar    1  LIG1        0.1101
      7 N           3.1170    1.6710    0.0000 N.ar    1  LIG1       -0.1901
      8 S           2.1880    2.0250    0.0000 S.2     1  LIG1        0.1166
      9 N           1.5540    1.2500    0.0000 N.ar    1  LIG1       -0.1888
     10 C           2.3000   -2.2290    0.0000 C.3     1  LIG1        0.0324
     11 N           0.8790   -0.8170    0.0000 N.am    1  LIG1       -0.1729
     12 C           0.1380   -0.1420    0.0000 C.2     1  LIG1        0.3033
     13 C          -0.8080   -0.4540    0.0000 C.3     1  LIG1        0.2269
     14 N          -1.5540    0.2210    0.0000 N.4     1  LIG1        0.3844
     15 C          -1.3420    1.1960    0.0000 C.3     1  LIG1        0.1393
     16 C          -2.0790    1.8630    0.0000 C.3     1  LIG1        0.0629
     17 C          -3.0330    1.5580    0.0000 C.3     1  LIG1        0.0119
     18 C          -3.2460    0.5830    0.0000 C.3     1  LIG1        0.0629
     19 C          -2.5040   -0.0960    0.0000 C.3     1  LIG1        0.1393
     20 C          -3.7790    2.2330    0.0000 C.3     1  LIG1        0.0004
     21 O           0.3500    0.8330    0.0000 O.2     1  LIG1       -0.2665
@<TRIPOS>BOND
     1     1     2   ar
     2     1     6   ar
     3     1     9   ar
     4     2     3   ar
     5     2    11    1
     6     3     4   ar
     7     3    10    1
     8     4     5   ar
     9     5     6   ar
    10     6     7   ar
    11     7     8   ar
    12     8     9   ar
    13    11    12   am
    14    12    13    1
    15    12    21    2
    16    13    14    1
    17    14    15    1
    18    14    19    1
    19    15    16    1
    20    16    17    1
    21    17    18    1
    22    17    20    1
    23    18    19    1
