@<TRIPOS>MOLECULE
25498_ChemDiv_1650-0363
 31 36 0 0 0
SMALL
GASTEIGER
Energy = 0

@<TRIPOS>ATOM
      1 N          -0.5000    0.5210    0.0000 N.am    1  LIG1       -0.2081
      2 C          -0.6790   -0.2130    0.0000 C.2     1  LIG1        0.2362
      3 C           0.0830   -0.7750    0.0000 C.3     1  LIG1        0.1007
      4 C          -0.2380   -2.1250    0.0000 C.3     1  LIG1        0.0970
      5 C          -1.1380   -2.5290    0.0000 C.ar    1  LIG1       -0.0156
      6 C          -0.6580   -1.6880    0.0000 C.ar    1  LIG1       -0.0212
      7 C           0.2540   -1.1580    0.0000 C.3     1  LIG1        0.0531
      8 C           0.8380   -0.3880    0.0000 C.3     1  LIG1        0.0951
      9 C           0.5080    0.5630    0.0000 C.2     1  LIG1        0.2358
     10 O           1.0750    1.3960    0.0000 O.2     1  LIG1       -0.2741
     11 C           1.1290   -1.6880    0.0000 C.ar    1  LIG1       -0.0212
     12 C           0.9290   -2.6750    0.0000 C.ar    1  LIG1       -0.0156
     13 C           1.6750   -3.3290    0.0000 C.ar    1  LIG1       -0.0039
     14 C           2.6080   -3.0040    0.0000 C.ar    1  LIG1       -0.0003
     15 C           2.7920   -2.0170    0.0000 C.ar    1  LIG1       -0.0003
     16 C           2.0710   -1.3630    0.0000 C.ar    1  LIG1       -0.0042
     17 C          -1.1380   -0.8250    0.0000 C.ar    1  LIG1       -0.0042
     18 C          -2.1540   -0.7960    0.0000 C.ar    1  LIG1       -0.0003
     19 C          -2.6500   -1.6880    0.0000 C.ar    1  LIG1       -0.0003
     20 C          -2.1540   -2.5290    0.0000 C.ar    1  LIG1       -0.0039
     21 C          -0.5000   -3.0880    0.0000 C.2     1  LIG1        0.1582
     22 O           0.2170   -3.7710    0.0000 O.2     1  LIG1       -0.2954
     23 C          -1.4330   -3.3290    0.0000 C.3     1  LIG1        0.0729
     24 O          -1.5000   -0.4290    0.0000 O.2     1  LIG1       -0.2741
     25 C          -1.0670    1.3040    0.0000 C.ar    1  LIG1        0.0607
     26 C          -2.0630    1.2170    0.0000 C.ar    1  LIG1        0.0158
     27 C          -2.6290    2.0500    0.0000 C.ar    1  LIG1        0.0080
     28 C          -2.2080    2.9290    0.0000 C.ar    1  LIG1        0.0346
     29 C          -1.2130    3.0380    0.0000 C.ar    1  LIG1        0.0080
     30 C          -0.6460    2.2170    0.0000 C.ar    1  LIG1        0.0158
     31 BR         -2.7960    3.7750    0.0000 Br      1  LIG1       -0.0490
@<TRIPOS>BOND
     1     1     2   am
     2     1     9   am
     3     1    25    1
     4     2     3    1
     5     2    24    2
     6     3     4    1
     7     3     8    1
     8     4     5    1
     9     4    12    1
    10     4    21    1
    11     5     6   ar
    12     5    20   ar
    13     6     7    1
    14     6    17   ar
    15     7     8    1
    16     7    11    1
    17     8     9    1
    18     9    10    2
    19    11    12   ar
    20    11    16   ar
    21    12    13   ar
    22    13    14   ar
    23    14    15   ar
    24    15    16   ar
    25    17    18   ar
    26    18    19   ar
    27    19    20   ar
    28    21    22    2
    29    21    23    1
    30    25    26   ar
    31    25    30   ar
    32    26    27   ar
    33    27    28   ar
    34    28    29   ar
    35    28    31    1
    36    29    30   ar
