@<TRIPOS>MOLECULE
25491_ChemDiv_4753-0006
 20 22 0 0 0
SMALL
GASTEIGER
Energy = 0

@<TRIPOS>ATOM
      1 C          -0.3580   -1.0960    0.0000 C.ar    1  LIG1        0.1873
      2 N          -1.2380   -1.5880    0.0000 N.ar    1  LIG1       -0.1928
      3 C          -2.1210   -1.0960    0.0000 C.ar    1  LIG1        0.2243
      4 N          -2.1210   -0.0880    0.0000 N.ar    1  LIG1       -0.1735
      5 C          -1.2380    0.4290    0.0000 C.ar    1  LIG1        0.3005
      6 C          -0.3580   -0.0880    0.0000 C.ar    1  LIG1        0.1562
      7 N           0.5830    0.2330    0.0000 N.ar    1  LIG1       -0.2997
      8 C           1.1580   -0.5830    0.0000 C.ar    1  LIG1        0.1805
      9 N           0.5830   -1.3920    0.0000 N.ar    1  LIG1       -0.2046
     10 C           0.9040    1.2000    0.0000 C.3     1  LIG1        0.1345
     11 C           1.8920    1.4130    0.0000 C.ar    1  LIG1        0.0004
     12 C           2.2130    2.3750    0.0000 C.ar    1  LIG1       -0.0024
     13 C           3.1750    2.5750    0.0000 C.ar    1  LIG1       -0.0003
     14 C           3.8380    1.8250    0.0000 C.ar    1  LIG1       -0.0000
     15 C           3.5380    0.9000    0.0000 C.ar    1  LIG1       -0.0003
     16 C           2.5750    0.6830    0.0000 C.ar    1  LIG1       -0.0024
     17 O          -1.2380    1.4330    0.0000 O.2     1  LIG1       -0.2634
     18 N          -2.9790   -1.5880    0.0000 N.pl3   1  LIG1       -0.2746
     19 C          -2.9670   -2.5710    0.0000 C.3     1  LIG1        0.1151
     20 C          -3.8420   -1.1040    0.0000 C.3     1  LIG1        0.1151
@<TRIPOS>BOND
     1     1     2   ar
     2     1     6   ar
     3     1     9   ar
     4     2     3   ar
     5     3     4   ar
     6     3    18    1
     7     4     5   ar
     8     5     6   ar
     9     5    17    2
    10     6     7   ar
    11     7     8   ar
    12     7    10    1
    13     8     9   ar
    14    10    11    1
    15    11    12   ar
    16    11    16   ar
    17    12    13   ar
    18    13    14   ar
    19    14    15   ar
    20    15    16   ar
    21    18    19    1
    22    18    20    1
