@<TRIPOS>MOLECULE
25496_ChemDiv_1473-0566
 30 35 0 0 0
SMALL
GASTEIGER
Energy = 0

@<TRIPOS>ATOM
      1 N          -0.5960   -0.1210    0.0000 N.am    1  LIG1       -0.2081
      2 C          -1.3880    1.1580    0.0000 C.2     1  LIG1        0.2353
      3 C          -3.1210    0.7170    0.0000 C.3     1  LIG1        0.0860
      4 C          -3.1210   -0.7580    0.0000 C.3     1  LIG1        0.0942
      5 C          -1.5290   -1.2960    0.0000 C.2     1  LIG1        0.2358
      6 O          -1.0630   -2.7630    0.0000 O.2     1  LIG1       -0.2741
      7 C          -4.9500   -0.4000    0.0000 C.3     1  LIG1        0.0530
      8 C          -5.1920   -0.2380    0.0000 C.ar    1  LIG1       -0.0216
      9 C          -5.1920    0.1040    0.0000 C.ar    1  LIG1       -0.0216
     10 C          -4.9830    0.2500    0.0000 C.3     1  LIG1        0.0526
     11 C          -4.6500    0.1040    0.0000 C.ar    1  LIG1       -0.0216
     12 C          -4.6500   -0.2380    0.0000 C.ar    1  LIG1       -0.0216
     13 C          -4.4460   -0.3380    0.0000 C.ar    1  LIG1       -0.0042
     14 C          -4.1130   -0.2380    0.0000 C.ar    1  LIG1       -0.0003
     15 C          -4.1130    0.1040    0.0000 C.ar    1  LIG1       -0.0003
     16 C          -4.4460    0.2500    0.0000 C.ar    1  LIG1       -0.0042
     17 C          -5.4880    0.2210    0.0000 C.ar    1  LIG1       -0.0042
     18 C          -5.6960    0.1040    0.0000 C.ar    1  LIG1       -0.0003
     19 C          -5.6960   -0.2380    0.0000 C.ar    1  LIG1       -0.0003
     20 C          -5.4880   -0.4000    0.0000 C.ar    1  LIG1       -0.0042
     21 C          -4.0750    2.1750    0.0000 C.3     1  LIG1        0.0103
     22 O          -0.8290    2.7670    0.0000 O.2     1  LIG1       -0.2741
     23 C           0.9170   -0.1210    0.0000 C.ar    1  LIG1        0.0608
     24 C           1.7540    1.3380    0.0000 C.ar    1  LIG1        0.0184
     25 C           3.3790    1.3380    0.0000 C.ar    1  LIG1        0.0382
     26 C           4.2170   -0.0830    0.0000 C.ar    1  LIG1        0.1388
     27 C           3.3790   -1.5040    0.0000 C.ar    1  LIG1        0.0382
     28 C           1.7540   -1.5040    0.0000 C.ar    1  LIG1        0.0184
     29 O           5.2040   -0.0830    0.0000 O.3     1  LIG1       -0.4714
     30 C           5.6920   -0.9210    0.0000 C.3     1  LIG1        0.2525
@<TRIPOS>BOND
     1     1     2   am
     2     1     5   am
     3     1    23    1
     4     2     3    1
     5     2    22    2
     6     3     4    1
     7     3    10    1
     8     3    21    1
     9     4     5    1
    10     4     7    1
    11     5     6    2
    12     7     8    1
    13     7    12    1
    14     8     9   ar
    15     8    20   ar
    16     9    10    1
    17     9    17   ar
    18    10    11    1
    19    11    12   ar
    20    11    16   ar
    21    12    13   ar
    22    13    14   ar
    23    14    15   ar
    24    15    16   ar
    25    17    18   ar
    26    18    19   ar
    27    19    20   ar
    28    23    24   ar
    29    23    28   ar
    30    24    25   ar
    31    25    26   ar
    32    26    27   ar
    33    26    29    1
    34    27    28   ar
    35    29    30    1
