@<TRIPOS>MOLECULE
25493_ChemDiv_4753-0008
 23 26 0 0 0
SMALL
GASTEIGER
Energy = 0

@<TRIPOS>ATOM
      1 C           0.0880   -0.8290    0.0000 C.ar    1  LIG1        0.1873
      2 N          -0.7920   -1.3210    0.0000 N.ar    1  LIG1       -0.1928
      3 C          -1.6750   -0.8290    0.0000 C.ar    1  LIG1        0.2242
      4 N          -1.6750    0.1790    0.0000 N.ar    1  LIG1       -0.1735
      5 C          -0.7920    0.6960    0.0000 C.ar    1  LIG1        0.3005
      6 C           0.0880    0.1790    0.0000 C.ar    1  LIG1        0.1562
      7 N           1.0290    0.5000    0.0000 N.ar    1  LIG1       -0.2997
      8 C           1.6040   -0.3170    0.0000 C.ar    1  LIG1        0.1805
      9 N           1.0290   -1.1250    0.0000 N.ar    1  LIG1       -0.2046
     10 C           1.3500    1.4630    0.0000 C.3     1  LIG1        0.1345
     11 C           2.3330    1.6750    0.0000 C.ar    1  LIG1        0.0004
     12 C           3.0170    0.9500    0.0000 C.ar    1  LIG1       -0.0024
     13 C           3.9790    1.1630    0.0000 C.ar    1  LIG1       -0.0003
     14 C           4.2790    2.0880    0.0000 C.ar    1  LIG1       -0.0000
     15 C           3.6170    2.8330    0.0000 C.ar    1  LIG1       -0.0003
     16 C           2.6540    2.6380    0.0000 C.ar    1  LIG1       -0.0024
     17 O          -0.7920    1.7000    0.0000 O.2     1  LIG1       -0.2634
     18 N          -2.5290   -1.3210    0.0000 N.pl3   1  LIG1       -0.2781
     19 C          -3.4250   -0.8500    0.0000 C.3     1  LIG1        0.0936
     20 C          -4.2580   -1.3210    0.0000 C.3     1  LIG1        0.0216
     21 C          -4.2830   -2.3130    0.0000 C.3     1  LIG1        0.0035
     22 C          -3.3920   -2.8290    0.0000 C.3     1  LIG1        0.0216
     23 C          -2.5330   -2.3380    0.0000 C.3     1  LIG1        0.0936
@<TRIPOS>BOND
     1     1     2   ar
     2     1     6   ar
     3     1     9   ar
     4     2     3   ar
     5     3     4   ar
     6     3    18    1
     7     4     5   ar
     8     5     6   ar
     9     5    17    2
    10     6     7   ar
    11     7     8   ar
    12     7    10    1
    13     8     9   ar
    14    10    11    1
    15    11    12   ar
    16    11    16   ar
    17    12    13   ar
    18    13    14   ar
    19    14    15   ar
    20    15    16   ar
    21    18    19    1
    22    18    23    1
    23    19    20    1
    24    20    21    1
    25    21    22    1
    26    22    23    1
