@<TRIPOS>MOLECULE
25495_ChemDiv_4753-0010
 19 21 0 0 0
SMALL
GASTEIGER
Energy = 0

@<TRIPOS>ATOM
      1 C          -0.3420   -1.5830    0.0000 C.ar    1  LIG1        0.1874
      2 C          -0.3420   -0.5790    0.0000 C.ar    1  LIG1        0.1562
      3 C          -1.2170   -0.0580    0.0000 C.ar    1  LIG1        0.3005
      4 N          -2.1000   -0.5790    0.0000 N.ar    1  LIG1       -0.1723
      5 C          -2.1000   -1.5830    0.0000 C.ar    1  LIG1        0.2407
      6 N          -1.2170   -2.0750    0.0000 N.ar    1  LIG1       -0.1916
      7 N          -2.9540   -2.0750    0.0000 N.pl3   1  LIG1       -0.2019
      8 C          -3.8500   -1.6040    0.0000 C.3     1  LIG1        0.1387
      9 O          -1.2170    0.9420    0.0000 O.2     1  LIG1       -0.2634
     10 N           0.6000   -0.2580    0.0000 N.ar    1  LIG1       -0.2997
     11 C           1.1750   -1.0710    0.0000 C.ar    1  LIG1        0.1805
     12 N           0.6000   -1.8790    0.0000 N.ar    1  LIG1       -0.2046
     13 C           0.9210    0.7040    0.0000 C.3     1  LIG1        0.1345
     14 C           1.9040    0.9210    0.0000 C.ar    1  LIG1        0.0004
     15 C           2.5880    0.1920    0.0000 C.ar    1  LIG1       -0.0024
     16 C           3.5500    0.4080    0.0000 C.ar    1  LIG1       -0.0003
     17 C           3.8460    1.3290    0.0000 C.ar    1  LIG1       -0.0000
     18 C           3.1880    2.0790    0.0000 C.ar    1  LIG1       -0.0003
     19 C           2.2250    1.8830    0.0000 C.ar    1  LIG1       -0.0024
@<TRIPOS>BOND
     1     1     2   ar
     2     1     6   ar
     3     1    12   ar
     4     2     3   ar
     5     2    10   ar
     6     3     4   ar
     7     3     9    2
     8     4     5   ar
     9     5     6   ar
    10     5     7    1
    11     7     8    1
    12    10    11   ar
    13    10    13    1
    14    11    12   ar
    15    13    14    1
    16    14    15   ar
    17    14    19   ar
    18    15    16   ar
    19    16    17   ar
    20    17    18   ar
    21    18    19   ar
