@<TRIPOS>MOLECULE
25494_ChemDiv_0627-0263
 29 34 0 0 0
SMALL
GASTEIGER
Energy = 0

@<TRIPOS>ATOM
      1 N           0.8130   -0.0290    0.0000 N.am    1  LIG1       -0.2081
      2 C           0.2380    0.6420    0.0000 C.2     1  LIG1        0.2358
      3 C          -0.5580    0.9920    0.0000 C.3     1  LIG1        0.0947
      4 C          -0.4960   -1.1710    0.0000 C.3     1  LIG1        0.0947
      5 C           0.3460   -0.7170    0.0000 C.2     1  LIG1        0.2358
      6 O           0.6750   -1.4920    0.0000 O.2     1  LIG1       -0.2741
      7 C          -3.3080   -0.8420    0.0000 C.3     1  LIG1        0.0531
      8 C          -2.6670   -0.4880    0.0000 C.ar    1  LIG1       -0.0216
      9 C          -2.6670    0.2580    0.0000 C.ar    1  LIG1       -0.0216
     10 C          -3.3080    0.6420    0.0000 C.3     1  LIG1        0.0531
     11 C          -3.9670    0.2580    0.0000 C.ar    1  LIG1       -0.0216
     12 C          -3.9670   -0.4880    0.0000 C.ar    1  LIG1       -0.0216
     13 C          -4.6330   -0.8420    0.0000 C.ar    1  LIG1       -0.0042
     14 C          -5.2750   -0.4880    0.0000 C.ar    1  LIG1       -0.0003
     15 C          -5.2750    0.2580    0.0000 C.ar    1  LIG1       -0.0003
     16 C          -4.6330    0.6420    0.0000 C.ar    1  LIG1       -0.0042
     17 C          -2.0000    0.6420    0.0000 C.ar    1  LIG1       -0.0042
     18 C          -1.3420    0.2580    0.0000 C.ar    1  LIG1       -0.0003
     19 C          -1.3420   -0.4880    0.0000 C.ar    1  LIG1       -0.0003
     20 C          -2.0000   -0.8420    0.0000 C.ar    1  LIG1       -0.0042
     21 O           0.4290    1.4960    0.0000 O.2     1  LIG1       -0.2741
     22 C           1.7960   -0.0290    0.0000 C.ar    1  LIG1        0.0608
     23 C           2.2830    0.8290    0.0000 C.ar    1  LIG1        0.0184
     24 C           3.2920    0.8460    0.0000 C.ar    1  LIG1        0.0382
     25 C           3.8040   -0.0250    0.0000 C.ar    1  LIG1        0.1388
     26 C           3.3040   -0.8790    0.0000 C.ar    1  LIG1        0.0382
     27 C           2.3000   -0.8880    0.0000 C.ar    1  LIG1        0.0184
     28 O           4.7880   -0.0250    0.0000 O.3     1  LIG1       -0.4714
     29 C           5.2710   -0.9000    0.0000 C.3     1  LIG1        0.2525
@<TRIPOS>BOND
     1     1     2   am
     2     1     5   am
     3     1    22    1
     4     2     3    1
     5     2    21    2
     6     3     4    1
     7     3    10    1
     8     4     5    1
     9     4     7    1
    10     5     6    2
    11     7     8    1
    12     7    12    1
    13     8     9   ar
    14     8    20   ar
    15     9    10    1
    16     9    17   ar
    17    10    11    1
    18    11    12   ar
    19    11    16   ar
    20    12    13   ar
    21    13    14   ar
    22    14    15   ar
    23    15    16   ar
    24    17    18   ar
    25    18    19   ar
    26    19    20   ar
    27    22    23   ar
    28    22    27   ar
    29    23    24   ar
    30    24    25   ar
    31    25    26   ar
    32    25    28    1
    33    26    27   ar
    34    28    29    1
