@<TRIPOS>MOLECULE
25504_ChemDiv_1657-0377
 32 37 0 0 0
SMALL
GASTEIGER
Energy = 0

@<TRIPOS>ATOM
      1 N           0.7630    0.5920    0.0000 N.am    1  LIG1       -0.2051
      2 C          -0.0580    1.1290    0.0000 C.2     1  LIG1        0.2359
      3 C          -0.7790    0.2960    0.0000 C.3     1  LIG1        0.0966
      4 C          -1.9750    0.0750    0.0000 C.3     1  LIG1        0.0763
      5 C          -2.5830    1.3290    0.0000 C.ar    1  LIG1       -0.0197
      6 C          -2.0380    1.0290    0.0000 C.ar    1  LIG1       -0.0215
      7 C          -1.4880   -0.1670    0.0000 C.3     1  LIG1        0.0531
      8 C          -0.5630   -0.2460    0.0000 C.3     1  LIG1        0.0948
      9 C           0.5580   -0.3580    0.0000 C.2     1  LIG1        0.2359
     10 O           1.0460   -0.7750    0.0000 O.2     1  LIG1       -0.2741
     11 C          -2.0130   -1.2790    0.0000 C.ar    1  LIG1       -0.0215
     12 C          -2.4880   -1.0380    0.0000 C.ar    1  LIG1       -0.0197
     13 C          -3.5750   -1.4960    0.0000 C.ar    1  LIG1       -0.0042
     14 C          -3.5080   -2.5290    0.0000 C.ar    1  LIG1       -0.0003
     15 C          -2.5960   -2.9830    0.0000 C.ar    1  LIG1       -0.0003
     16 C          -1.7250   -2.4210    0.0000 C.ar    1  LIG1       -0.0042
     17 C          -0.9830    1.4630    0.0000 C.ar    1  LIG1       -0.0042
     18 C          -1.0210    2.4960    0.0000 C.ar    1  LIG1       -0.0003
     19 C          -1.9210    2.9880    0.0000 C.ar    1  LIG1       -0.0003
     20 C          -2.8000    2.4580    0.0000 C.ar    1  LIG1       -0.0042
     21 C          -3.0080    0.1380    0.0000 C.3     1  LIG1        0.1905
     22 O          -3.3580    0.8580    0.0000 O.3     1  LIG1       -0.2197
     23 O          -0.0540    1.7080    0.0000 O.2     1  LIG1       -0.2741
     24 C           1.7000    0.9750    0.0000 C.ar    1  LIG1        0.0945
     25 C           2.5000    0.3540    0.0000 C.ar    1  LIG1        0.1525
     26 O           2.3670   -0.5580    0.0000 O.3     1  LIG1       -0.4742
     27 C           3.1540   -1.0670    0.0000 C.3     1  LIG1        0.2056
     28 C           2.7210   -1.8420    0.0000 C.3     1  LIG1        0.0512
     29 C           3.4540    0.7460    0.0000 C.ar    1  LIG1        0.0382
     30 C           3.5710    1.7670    0.0000 C.ar    1  LIG1        0.0032
     31 C           2.7540    2.3790    0.0000 C.ar    1  LIG1        0.0015
     32 C           1.8080    1.9830    0.0000 C.ar    1  LIG1        0.0184
@<TRIPOS>BOND
     1     1     2   am
     2     1     9   am
     3     1    24    1
     4     2     3    1
     5     2    23    2
     6     3     4    1
     7     3     8    1
     8     4     5    1
     9     4    12    1
    10     4    21    1
    11     5     6   ar
    12     5    20   ar
    13     6     7    1
    14     6    17   ar
    15     7     8    1
    16     7    11    1
    17     8     9    1
    18     9    10    2
    19    11    12   ar
    20    11    16   ar
    21    12    13   ar
    22    13    14   ar
    23    14    15   ar
    24    15    16   ar
    25    17    18   ar
    26    18    19   ar
    27    19    20   ar
    28    21    22    1
    29    24    25   ar
    30    24    32   ar
    31    25    26    1
    32    25    29   ar
    33    26    27    1
    34    27    28    1
    35    29    30   ar
    36    30    31   ar
    37    31    32   ar
