@<TRIPOS>MOLECULE
25506_ChemDiv_8017-7425
 21 23 0 0 0
SMALL
GASTEIGER
Energy = 0

@<TRIPOS>ATOM
      1 C           3.1250   -0.0170    0.0000 C.ar    1  LIG1        0.1061
      2 C           2.2580    0.5080    0.0000 C.ar    1  LIG1        0.0133
      3 C           1.3920    0.0040    0.0000 C.ar    1  LIG1        0.0711
      4 N           0.5290    0.5210    0.0000 N.am    1  LIG1       -0.1745
      5 C          -0.3380    0.0250    0.0000 C.2     1  LIG1        0.3033
      6 C          -1.2000    0.5290    0.0000 C.3     1  LIG1        0.2269
      7 N          -2.0710    0.0330    0.0000 N.4     1  LIG1        0.3844
      8 C          -2.9330    0.5460    0.0000 C.3     1  LIG1        0.1390
      9 C          -3.7960    0.0540    0.0000 C.3     1  LIG1        0.0572
     10 C          -3.8130   -0.9420    0.0000 C.3     1  LIG1        0.0121
     11 C          -2.9460   -1.4500    0.0000 C.3     1  LIG1        0.0629
     12 C          -2.0750   -0.9630    0.0000 C.3     1  LIG1        0.1393
     13 C          -4.6580    0.5670    0.0000 C.3     1  LIG1        0.0061
     14 O          -0.3460   -0.9750    0.0000 O.2     1  LIG1       -0.2665
     15 C           1.3880   -0.9920    0.0000 C.ar    1  LIG1        0.0179
     16 C           2.2420   -1.5000    0.0000 C.ar    1  LIG1        0.0227
     17 C           3.1170   -1.0040    0.0000 C.ar    1  LIG1        0.1086
     18 N           4.0540   -1.3290    0.0000 N.ar    1  LIG1       -0.1901
     19 S           4.6540   -0.5250    0.0000 S.2     1  LIG1        0.1165
     20 N           4.0790    0.2830    0.0000 N.ar    1  LIG1       -0.1904
     21 C           2.2670    1.5040    0.0000 C.3     1  LIG1        0.0340
@<TRIPOS>BOND
     1     1     2   ar
     2     1    17   ar
     3     1    20   ar
     4     2     3   ar
     5     2    21    1
     6     3     4    1
     7     3    15   ar
     8     4     5   am
     9     5     6    1
    10     5    14    2
    11     6     7    1
    12     7     8    1
    13     7    12    1
    14     8     9    1
    15     9    10    1
    16     9    13    1
    17    10    11    1
    18    11    12    1
    19    15    16   ar
    20    16    17   ar
    21    17    18   ar
    22    18    19   ar
    23    19    20   ar
