@<TRIPOS>MOLECULE
25503_ChemDiv_8016-8388
 26 29 0 0 0
SMALL
GASTEIGER
Energy = 0

@<TRIPOS>ATOM
      1 C          -2.4710   -0.2040    0.0000 C.ar    1  LIG1        0.2306
      2 C          -2.4710    0.8000    0.0000 C.ar    1  LIG1        0.3895
      3 C          -3.3380    1.3000    0.0000 C.ar    1  LIG1        0.3381
      4 N          -4.2130    0.8000    0.0000 N.ar    1  LIG1       -0.2415
      5 C          -4.2130   -0.2040    0.0000 C.ar    1  LIG1        0.3352
      6 N          -3.3380   -0.7040    0.0000 N.ar    1  LIG1       -0.2588
      7 C          -3.3380   -1.7040    0.0000 C.3     1  LIG1        0.1368
      8 O          -5.0750   -0.7040    0.0000 O.2     1  LIG1       -0.2461
      9 C          -5.0750    1.3000    0.0000 C.3     1  LIG1        0.1384
     10 O          -3.3380    2.3000    0.0000 O.2     1  LIG1       -0.2599
     11 N          -1.5210    1.1080    0.0000 N.ar    1  LIG1        0.1229
     12 C          -0.9330    0.3000    0.0000 C.ar    1  LIG1        0.4477
     13 N          -1.5210   -0.5080    0.0000 N.ar    1  LIG1       -0.1415
     14 N           0.0670    0.3000    0.0000 N.pl3   1  LIG1       -0.2343
     15 C           0.5670    1.1710    0.0000 C.3     1  LIG1        0.0980
     16 C           1.5670    1.1710    0.0000 C.3     1  LIG1        0.0221
     17 C           2.0670    0.3000    0.0000 C.3     1  LIG1        0.0078
     18 C           3.0670    0.3000    0.0000 C.3     1  LIG1        0.0265
     19 C           3.5670   -0.5670    0.0000 C.ar    1  LIG1       -0.0222
     20 C           3.0670   -1.4330    0.0000 C.ar    1  LIG1       -0.0043
     21 C           3.5670   -2.2960    0.0000 C.ar    1  LIG1       -0.0003
     22 C           4.5710   -2.2960    0.0000 C.ar    1  LIG1       -0.0000
     23 C           5.0710   -1.4330    0.0000 C.ar    1  LIG1       -0.0003
     24 C           4.5710   -0.5710    0.0000 C.ar    1  LIG1       -0.0043
     25 C           1.5670   -0.5670    0.0000 C.3     1  LIG1        0.0221
     26 C           0.5670   -0.5670    0.0000 C.3     1  LIG1        0.0980
@<TRIPOS>BOND
     1     1     2   ar
     2     1     6   ar
     3     1    13   ar
     4     2     3   ar
     5     2    11   ar
     6     3     4   ar
     7     3    10    2
     8     4     5   ar
     9     4     9    1
    10     5     6   ar
    11     5     8    2
    12     6     7    1
    13    11    12   ar
    14    12    13   ar
    15    12    14    1
    16    14    15    1
    17    14    26    1
    18    15    16    1
    19    16    17    1
    20    17    18    1
    21    17    25    1
    22    18    19    1
    23    19    20   ar
    24    19    24   ar
    25    20    21   ar
    26    21    22   ar
    27    22    23   ar
    28    23    24   ar
    29    25    26    1
