@<TRIPOS>MOLECULE
25512_ChemDiv_C301-4911
 16 18 0 0 0
SMALL
GASTEIGER
Energy = 0

@<TRIPOS>ATOM
      1 S           2.9290   -0.7290    0.0000 S.2     1  LIG1        0.1166
      2 N           2.3290    0.1000    0.0000 N.ar    1  LIG1       -0.1887
      3 C           1.3710   -0.2250    0.0000 C.ar    1  LIG1        0.1267
      4 C           0.4880    0.2830    0.0000 C.ar    1  LIG1        0.1220
      5 C          -0.3880   -0.2250    0.0000 C.ar    1  LIG1        0.0665
      6 N          -1.2420    0.2670    0.0000 N.pl3   1  LIG1       -0.3017
      7 C          -1.2290    1.2540    0.0000 C.3     1  LIG1        0.1231
      8 C          -2.0830    1.7460    0.0000 C.3     1  LIG1        0.1636
      9 O          -2.9330    1.2540    0.0000 O.3     1  LIG1       -0.3501
     10 C          -2.9330    0.2750    0.0000 C.3     1  LIG1        0.1636
     11 C          -2.0830   -0.2250    0.0000 C.3     1  LIG1        0.1231
     12 C          -0.3880   -1.2380    0.0000 C.ar    1  LIG1        0.0176
     13 C           0.4880   -1.7420    0.0000 C.ar    1  LIG1        0.0227
     14 C           1.3710   -1.2380    0.0000 C.ar    1  LIG1        0.1103
     15 N           2.3290   -1.5420    0.0000 N.ar    1  LIG1       -0.1901
     16 N           0.4790    1.2670    0.0000 N.pl3   1  LIG1       -0.1251
@<TRIPOS>BOND
     1     1     2   ar
     2     1    15   ar
     3     2     3   ar
     4     3     4   ar
     5     3    14   ar
     6     4     5   ar
     7     4    16    1
     8     5     6    1
     9     5    12   ar
    10     6     7    1
    11     6    11    1
    12     7     8    1
    13     8     9    1
    14     9    10    1
    15    10    11    1
    16    12    13   ar
    17    13    14   ar
    18    14    15   ar
