@<TRIPOS>MOLECULE
25510_ChemDiv_C301-0811
 27 31 0 0 0
SMALL
GASTEIGER
Energy = 0

@<TRIPOS>ATOM
      1 C          -0.4080   -2.2580    0.0000 C.ar    1  LIG1        0.1237
      2 C           0.4580   -1.7540    0.0000 C.ar    1  LIG1        0.0891
      3 C           1.3290   -2.2580    0.0000 C.ar    1  LIG1       -0.0049
      4 C           1.3290   -3.2630    0.0000 C.ar    1  LIG1       -0.0013
      5 C           0.4580   -3.7580    0.0000 C.ar    1  LIG1        0.0211
      6 C          -0.4000   -3.2630    0.0000 C.ar    1  LIG1        0.1101
      7 N          -1.3540   -3.5750    0.0000 N.ar    1  LIG1       -0.1901
      8 S          -1.9460   -2.7710    0.0000 S.2     1  LIG1        0.1166
      9 N          -1.3630   -1.9580    0.0000 N.ar    1  LIG1       -0.1888
     10 C           2.1920   -1.7540    0.0000 C.3     1  LIG1        0.0324
     11 N           0.4580   -0.7540    0.0000 N.am    1  LIG1       -0.1779
     12 C           1.3250   -0.2540    0.0000 C.2     1  LIG1        0.2456
     13 C           1.3210    0.7500    0.0000 C.3     1  LIG1        0.0871
     14 C           0.4540    1.2460    0.0000 C.3     1  LIG1        0.0078
     15 C          -0.4790    1.3330    0.0000 C.3     1  LIG1       -0.0035
     16 C          -1.1880    1.9130    0.0000 C.3     1  LIG1       -0.0197
     17 C          -0.8750    2.8330    0.0000 C.3     1  LIG1       -0.0079
     18 C           0.0500    2.8330    0.0000 C.3     1  LIG1       -0.0197
     19 C           0.7880    2.1830    0.0000 C.3     1  LIG1       -0.0035
     20 C          -0.8500    2.3040    0.0000 C.3     1  LIG1       -0.0079
     21 C          -1.1880    1.3250    0.0000 C.3     1  LIG1       -0.0197
     22 C          -0.4420    0.6830    0.0000 C.3     1  LIG1       -0.0035
     23 C          -2.1960    1.3880    0.0000 C.3     1  LIG1       -0.0079
     24 O           2.1880   -0.7500    0.0000 O.2     1  LIG1       -0.2730
     25 H          -1.9380    2.5630    0.0000 H       1  LIG1        0.0318
     26 H           0.3960    3.7630    0.0000 H       1  LIG1        0.0318
     27 H          -1.5630    0.4000    0.0000 H       1  LIG1        0.0318
@<TRIPOS>BOND
     1     1     2   ar
     2     1     6   ar
     3     1     9   ar
     4     2     3   ar
     5     2    11    1
     6     3     4   ar
     7     3    10    1
     8     4     5   ar
     9     5     6   ar
    10     6     7   ar
    11     7     8   ar
    12     8     9   ar
    13    11    12   am
    14    12    13    1
    15    12    24    2
    16    13    14    1
    17    14    15    1
    18    14    19    1
    19    14    22    1
    20    15    16    1
    21    16    17    1
    22    16    23    1
    23    16    25    1
    24    18    17    1
    25    18    19    1
    26    18    20    1
    27    18    26    1
    28    20    21    1
    29    21    22    1
    30    21    23    1
    31    21    27    1
