@<TRIPOS>MOLECULE
25522_ChemDiv_1935-0169
 31 36 0 0 0
SMALL
GASTEIGER
Energy = 0

@<TRIPOS>ATOM
      1 N           0.6080    0.5000    0.0000 N.am    1  LIG1       -0.2081
      2 C          -0.3420    0.5000    0.0000 C.2     1  LIG1        0.2358
      3 C          -0.6880   -0.3830    0.0000 C.3     1  LIG1        0.0947
      4 C           0.0750   -1.0040    0.0000 C.3     1  LIG1        0.0947
      5 C           0.8670   -0.4290    0.0000 C.2     1  LIG1        0.2358
      6 O           1.7880   -0.7960    0.0000 O.2     1  LIG1       -0.2741
      7 C          -0.4630   -1.7540    0.0000 C.3     1  LIG1        0.0531
      8 C          -1.3170   -1.2960    0.0000 C.ar    1  LIG1       -0.0216
      9 C          -2.1330   -1.7830    0.0000 C.ar    1  LIG1       -0.0216
     10 C          -1.2960   -2.1750    0.0000 C.3     1  LIG1        0.0531
     11 C          -1.2790   -3.2290    0.0000 C.ar    1  LIG1       -0.0216
     12 C          -0.4630   -2.6830    0.0000 C.ar    1  LIG1       -0.0216
     13 C           0.3880   -3.1250    0.0000 C.ar    1  LIG1       -0.0042
     14 C           0.3880   -4.1420    0.0000 C.ar    1  LIG1       -0.0003
     15 C          -0.3670   -4.6290    0.0000 C.ar    1  LIG1       -0.0003
     16 C          -1.2960   -4.2290    0.0000 C.ar    1  LIG1       -0.0042
     17 C          -2.9710   -1.2960    0.0000 C.ar    1  LIG1       -0.0042
     18 C          -2.9710   -0.3290    0.0000 C.ar    1  LIG1       -0.0003
     19 C          -2.1170    0.1330    0.0000 C.ar    1  LIG1       -0.0003
     20 C          -1.3000   -0.3210    0.0000 C.ar    1  LIG1       -0.0042
     21 O          -0.9000    1.2960    0.0000 O.2     1  LIG1       -0.2741
     22 C           1.1960    1.2920    0.0000 C.ar    1  LIG1        0.0607
     23 C           0.8170    2.2040    0.0000 C.ar    1  LIG1        0.0173
     24 C           1.3830    3.0130    0.0000 C.ar    1  LIG1        0.0258
     25 C           0.9580    3.9080    0.0000 C.2     1  LIG1        0.0737
     26 O          -0.0380    3.9960    0.0000 O.co2   1  LIG1       -0.5446
     27 O           1.5670    4.6290    0.0000 O.co2   1  LIG1       -0.5446
     28 C           2.3880    2.9040    0.0000 C.ar    1  LIG1        0.0588
     29 C           2.7790    1.9790    0.0000 C.ar    1  LIG1        0.0127
     30 C           2.2040    1.1880    0.0000 C.ar    1  LIG1        0.0162
     31 CL          2.9670    3.6960    0.0000 Cl      1  LIG1       -0.0822
@<TRIPOS>BOND
     1     1     2   am
     2     1     5   am
     3     1    22    1
     4     2     3    1
     5     2    21    2
     6     3     4    1
     7     3    10    1
     8     4     5    1
     9     4     7    1
    10     5     6    2
    11     7     8    1
    12     7    12    1
    13     8     9   ar
    14     8    20   ar
    15     9    10    1
    16     9    17   ar
    17    10    11    1
    18    11    12   ar
    19    11    16   ar
    20    12    13   ar
    21    13    14   ar
    22    14    15   ar
    23    15    16   ar
    24    17    18   ar
    25    18    19   ar
    26    19    20   ar
    27    22    23   ar
    28    22    30   ar
    29    23    24   ar
    30    24    25    1
    31    24    28   ar
    32    25    26   ar
    33    25    27   ar
    34    28    29   ar
    35    28    31    1
    36    29    30   ar
