@<TRIPOS>MOLECULE
25526_ChemDiv_2360-0318
 32 37 0 0 0
SMALL
GASTEIGER
Energy = 0

@<TRIPOS>ATOM
      1 N           0.6040    0.5790    0.0000 N.am    1  LIG1       -0.2081
      2 C          -0.3170    0.5790    0.0000 C.2     1  LIG1        0.2357
      3 C          -0.6630   -0.2420    0.0000 C.3     1  LIG1        0.0941
      4 C          -1.0670   -2.5540    0.0000 C.3     1  LIG1        0.0458
      5 C          -0.9380   -3.1710    0.0000 C.ar    1  LIG1       -0.0222
      6 C          -0.0710   -2.6460    0.0000 C.ar    1  LIG1       -0.0216
      7 C          -0.4330   -2.0670    0.0000 C.3     1  LIG1        0.0531
      8 C           0.1170   -0.8540    0.0000 C.3     1  LIG1        0.0947
      9 C           0.8920   -0.3330    0.0000 C.2     1  LIG1        0.2358
     10 O           1.7540   -0.6500    0.0000 O.2     1  LIG1       -0.2741
     11 C          -1.3130   -2.0670    0.0000 C.ar    1  LIG1       -0.0216
     12 C          -2.1500   -2.5540    0.0000 C.ar    1  LIG1       -0.0222
     13 C          -3.0130   -2.0670    0.0000 C.ar    1  LIG1       -0.0043
     14 C          -3.0130   -1.0830    0.0000 C.ar    1  LIG1       -0.0003
     15 C          -2.1500   -0.5960    0.0000 C.ar    1  LIG1       -0.0003
     16 C          -1.3130   -1.0830    0.0000 C.ar    1  LIG1       -0.0042
     17 C           0.7830   -3.1080    0.0000 C.ar    1  LIG1       -0.0042
     18 C           0.7830   -4.1080    0.0000 C.ar    1  LIG1       -0.0003
     19 C          -0.0710   -4.5960    0.0000 C.ar    1  LIG1       -0.0003
     20 C          -0.9380   -4.1210    0.0000 C.ar    1  LIG1       -0.0043
     21 C          -1.8580   -3.2540    0.0000 C.3     1  LIG1        0.0092
     22 O          -0.8420    1.3540    0.0000 O.2     1  LIG1       -0.2741
     23 C           1.1750    1.3130    0.0000 C.ar    1  LIG1        0.0607
     24 C           0.8380    2.1960    0.0000 C.ar    1  LIG1        0.0173
     25 C           1.4000    2.9630    0.0000 C.ar    1  LIG1        0.0258
     26 C           1.0130    3.8790    0.0000 C.2     1  LIG1        0.0737
     27 O           0.0000    3.9880    0.0000 O.co2   1  LIG1       -0.5446
     28 O           1.6500    4.5960    0.0000 O.co2   1  LIG1       -0.5446
     29 C           2.3750    2.8000    0.0000 C.ar    1  LIG1        0.0588
     30 C           2.7170    1.9330    0.0000 C.ar    1  LIG1        0.0127
     31 C           2.1210    1.1380    0.0000 C.ar    1  LIG1        0.0162
     32 CL          3.0080    3.5420    0.0000 Cl      1  LIG1       -0.0822
@<TRIPOS>BOND
     1     1     2   am
     2     1     9   am
     3     1    23    1
     4     2     3    1
     5     2    22    2
     6     3     4    1
     7     3     8    1
     8     4     5    1
     9     4    12    1
    10     4    21    1
    11     5     6   ar
    12     5    20   ar
    13     6     7    1
    14     6    17   ar
    15     7     8    1
    16     7    11    1
    17     8     9    1
    18     9    10    2
    19    11    12   ar
    20    11    16   ar
    21    12    13   ar
    22    13    14   ar
    23    14    15   ar
    24    15    16   ar
    25    17    18   ar
    26    18    19   ar
    27    19    20   ar
    28    23    24   ar
    29    23    31   ar
    30    24    25   ar
    31    25    26    1
    32    25    29   ar
    33    26    27   ar
    34    26    28   ar
    35    29    30   ar
    36    29    32    1
    37    30    31   ar
