@<TRIPOS>MOLECULE
25520_ChemDiv_0614-1168
 26 29 0 0 0
SMALL
GASTEIGER
Energy = 0

@<TRIPOS>ATOM
      1 N          -1.8830   -1.7880    0.0000 N.ar    1  LIG1       -0.1862
      2 C          -2.0290   -0.7790    0.0000 C.ar    1  LIG1        0.2147
      3 N          -3.0080   -0.6080    0.0000 N.ar    1  LIG1       -0.1011
      4 N          -3.4790   -1.4630    0.0000 N.ar    1  LIG1       -0.0218
      5 N          -2.8000   -2.2000    0.0000 N.ar    1  LIG1       -0.0382
      6 S          -1.3250   -0.1130    0.0000 S.3     1  LIG1       -0.0730
      7 C          -0.3880   -0.3750    0.0000 C.3     1  LIG1        0.0773
      8 C           0.3250    0.3250    0.0000 C.3     1  LIG1        0.0773
      9 S           1.2830    0.0540    0.0000 S.3     1  LIG1       -0.0730
     10 C           2.0000    0.7290    0.0000 C.ar    1  LIG1        0.2147
     11 N           1.8540    1.7540    0.0000 N.ar    1  LIG1       -0.1862
     12 N           2.7830    2.1580    0.0000 N.ar    1  LIG1       -0.0382
     13 N           3.4750    1.4040    0.0000 N.ar    1  LIG1       -0.0218
     14 N           3.0040    0.5630    0.0000 N.ar    1  LIG1       -0.1011
     15 C           0.9880    2.2710    0.0000 C.ar    1  LIG1        0.0866
     16 C           0.9880    3.2830    0.0000 C.ar    1  LIG1        0.0193
     17 C           0.1130    3.8000    0.0000 C.ar    1  LIG1        0.0015
     18 C          -0.7540    3.2830    0.0000 C.ar    1  LIG1        0.0001
     19 C          -0.7540    2.2710    0.0000 C.ar    1  LIG1        0.0015
     20 C           0.1130    1.7540    0.0000 C.ar    1  LIG1        0.0193
     21 C          -1.0290   -2.2920    0.0000 C.ar    1  LIG1        0.0866
     22 C          -0.1830   -1.7880    0.0000 C.ar    1  LIG1        0.0193
     23 C           0.6750   -2.2920    0.0000 C.ar    1  LIG1        0.0015
     24 C           0.6750   -3.2830    0.0000 C.ar    1  LIG1        0.0001
     25 C          -0.1830   -3.7960    0.0000 C.ar    1  LIG1        0.0015
     26 C          -1.0290   -3.2830    0.0000 C.ar    1  LIG1        0.0193
@<TRIPOS>BOND
     1     1     2   ar
     2     1     5   ar
     3     1    21    1
     4     2     3   ar
     5     2     6    1
     6     3     4   ar
     7     4     5   ar
     8     6     7    1
     9     7     8    1
    10     8     9    1
    11     9    10    1
    12    10    11   ar
    13    10    14   ar
    14    11    12   ar
    15    11    15    1
    16    12    13   ar
    17    13    14   ar
    18    15    16   ar
    19    15    20   ar
    20    16    17   ar
    21    17    18   ar
    22    18    19   ar
    23    19    20   ar
    24    21    22   ar
    25    21    26   ar
    26    22    23   ar
    27    23    24   ar
    28    24    25   ar
    29    25    26   ar
