@<TRIPOS>MOLECULE
25523_ChemDiv_D226-0038
 26 29 0 0 0
SMALL
GASTEIGER
Energy = 0

@<TRIPOS>ATOM
      1 C          -0.9670   -1.0670    0.0000 C.ar    1  LIG1        0.1709
      2 C          -0.9670   -0.0630    0.0000 C.ar    1  LIG1        0.1556
      3 N          -0.0130    0.2460    0.0000 N.ar    1  LIG1       -0.2903
      4 C           0.5630   -0.5500    0.0000 C.ar    1  LIG1        0.2030
      5 N          -0.0130   -1.3670    0.0000 N.ar    1  LIG1       -0.1958
      6 N           1.5580   -0.5500    0.0000 N.pl3   1  LIG1       -0.2743
      7 C           2.0380    0.3210    0.0000 C.3     1  LIG1        0.1256
      8 C           3.0460    0.3210    0.0000 C.3     1  LIG1        0.1637
      9 O           3.5460   -0.5380    0.0000 O.3     1  LIG1       -0.3501
     10 C           3.0630   -1.4040    0.0000 C.3     1  LIG1        0.1637
     11 C           2.0500   -1.4170    0.0000 C.3     1  LIG1        0.1256
     12 C           0.3210    1.2080    0.0000 C.3     1  LIG1        0.1356
     13 C           1.3080    1.4080    0.0000 C.ar    1  LIG1        0.0002
     14 C           1.9710    0.6500    0.0000 C.ar    1  LIG1       -0.0066
     15 C           2.9460    0.8500    0.0000 C.ar    1  LIG1       -0.0221
     16 C           3.2710    1.8080    0.0000 C.ar    1  LIG1       -0.0043
     17 C           2.6130    2.5580    0.0000 C.ar    1  LIG1       -0.0006
     18 C           1.6380    2.3500    0.0000 C.ar    1  LIG1       -0.0024
     19 C           3.5880    0.0960    0.0000 C.3     1  LIG1        0.0310
     20 C          -1.8250    0.4330    0.0000 C.ar    1  LIG1        0.3019
     21 N          -2.7000   -0.0750    0.0000 N.ar    1  LIG1       -0.1518
     22 C          -2.7000   -1.0540    0.0000 C.ar    1  LIG1        0.3540
     23 N          -1.8250   -1.5630    0.0000 N.ar    1  LIG1       -0.2614
     24 C          -1.8250   -2.5540    0.0000 C.3     1  LIG1        0.1367
     25 O          -3.5920   -1.5420    0.0000 O.2     1  LIG1       -0.2443
     26 O          -1.8250    1.4330    0.0000 O.2     1  LIG1       -0.2634
@<TRIPOS>BOND
     1     1     2   ar
     2     1     5   ar
     3     1    23   ar
     4     2     3   ar
     5     2    20   ar
     6     3     4   ar
     7     3    12    1
     8     4     5   ar
     9     4     6    1
    10     6     7    1
    11     6    11    1
    12     7     8    1
    13     8     9    1
    14     9    10    1
    15    10    11    1
    16    12    13    1
    17    13    14   ar
    18    13    18   ar
    19    14    15   ar
    20    15    16   ar
    21    15    19    1
    22    16    17   ar
    23    17    18   ar
    24    20    21   ar
    25    20    26    2
    26    21    22   ar
    27    22    23   ar
    28    22    25    2
    29    23    24    1
