@<TRIPOS>MOLECULE
25527_ChemDiv_0546-0044
 20 21 0 0 0
SMALL
GASTEIGER
Energy = 0

@<TRIPOS>ATOM
      1 C           1.2920    0.6710    0.0000 C.2     1  LIG1        0.1511
      2 C           2.1540    1.1670    0.0000 C.2     1  LIG1        0.3499
      3 O           2.1540    2.1630    0.0000 O.3     1  LIG1       -0.4170
      4 C           1.2920    2.6710    0.0000 C.3     1  LIG1        0.2758
      5 O           0.4290    2.1630    0.0000 O.3     1  LIG1       -0.4170
      6 C           0.4290    1.1670    0.0000 C.2     1  LIG1        0.3499
      7 O          -0.4540    0.6500    0.0000 O.2     1  LIG1       -0.2446
      8 C           0.5000    3.2330    0.0000 C.3     1  LIG1        0.0915
      9 C           1.9960    3.3670    0.0000 C.3     1  LIG1        0.0915
     10 O           3.0330    0.6500    0.0000 O.2     1  LIG1       -0.2446
     11 C           1.2920   -0.3290    0.0000 C.2     1  LIG1        0.0130
     12 C           0.4130   -0.8420    0.0000 C.ar    1  LIG1        0.0005
     13 C          -0.4540   -0.3460    0.0000 C.ar    1  LIG1        0.0013
     14 C          -1.3130   -0.8420    0.0000 C.ar    1  LIG1        0.0145
     15 C          -1.3130   -1.8420    0.0000 C.ar    1  LIG1        0.0479
     16 N          -2.1750   -2.3670    0.0000 N.pl3   1  LIG1       -0.3041
     17 C          -3.0380   -1.8630    0.0000 C.3     1  LIG1        0.1122
     18 C          -2.1750   -3.3630    0.0000 C.3     1  LIG1        0.1122
     19 C          -0.4540   -2.3420    0.0000 C.ar    1  LIG1        0.0145
     20 C           0.4130   -1.8420    0.0000 C.ar    1  LIG1        0.0013
@<TRIPOS>BOND
     1     1     2    1
     2     1     6    1
     3     1    11    2
     4     2     3    1
     5     2    10    2
     6     3     4    1
     7     4     5    1
     8     4     8    1
     9     4     9    1
    10     5     6    1
    11     6     7    2
    12    11    12    1
    13    12    13   ar
    14    12    20   ar
    15    13    14   ar
    16    14    15   ar
    17    15    16    1
    18    15    19   ar
    19    16    17    1
    20    16    18    1
    21    19    20   ar
