@<TRIPOS>MOLECULE
25529_ChemDiv_3553-1790
 23 25 0 0 0
SMALL
GASTEIGER
Energy = 0

@<TRIPOS>ATOM
      1 C           0.3460    0.2420    0.0000 C.2     1  LIG1        0.1511
      2 C           1.2000    0.7420    0.0000 C.2     1  LIG1        0.3499
      3 O           1.2000    1.7540    0.0000 O.3     1  LIG1       -0.4170
      4 C           0.3460    2.2420    0.0000 C.3     1  LIG1        0.2755
      5 O          -0.5210    1.7540    0.0000 O.3     1  LIG1       -0.4170
      6 C          -0.5210    0.7420    0.0000 C.2     1  LIG1        0.3499
      7 O          -1.3790    0.2420    0.0000 O.2     1  LIG1       -0.2446
      8 C           1.2000    2.7330    0.0000 C.3     1  LIG1        0.0840
      9 C           2.0670    2.2460    0.0000 C.3     1  LIG1        0.0075
     10 C           2.9290    2.7580    0.0000 C.3     1  LIG1        0.0003
     11 C           3.8040    2.2710    0.0000 C.3     1  LIG1        0.0000
     12 C          -0.5290    2.7330    0.0000 C.3     1  LIG1        0.0915
     13 O           2.0670    0.2420    0.0000 O.2     1  LIG1       -0.2446
     14 C           0.3460   -0.7500    0.0000 C.2     1  LIG1        0.0131
     15 C          -0.5290   -1.2580    0.0000 C.ar    1  LIG1        0.0036
     16 C          -1.3790   -0.7500    0.0000 C.ar    1  LIG1        0.0402
     17 C          -2.2630   -1.2500    0.0000 C.ar    1  LIG1        0.1764
     18 C          -2.2630   -2.2500    0.0000 C.ar    1  LIG1        0.1764
     19 O          -3.2170   -2.5540    0.0000 O.3     1  LIG1       -0.4346
     20 C          -3.8080   -1.7460    0.0000 C.3     1  LIG1        0.4294
     21 O          -3.2040   -0.9330    0.0000 O.3     1  LIG1       -0.4346
     22 C          -1.3960   -2.7540    0.0000 C.ar    1  LIG1        0.0402
     23 C          -0.5210   -2.2500    0.0000 C.ar    1  LIG1        0.0033
@<TRIPOS>BOND
     1     1     2    1
     2     1     6    1
     3     1    14    2
     4     2     3    1
     5     2    13    2
     6     3     4    1
     7     4     5    1
     8     4     8    1
     9     4    12    1
    10     5     6    1
    11     6     7    2
    12     8     9    1
    13     9    10    1
    14    10    11    1
    15    14    15    1
    16    15    16   ar
    17    15    23   ar
    18    16    17   ar
    19    17    18   ar
    20    17    21    1
    21    18    19    1
    22    18    22   ar
    23    19    20    1
    24    20    21    1
    25    22    23   ar
