@<TRIPOS>MOLECULE
25538_ChemDiv_3448-6957
 27 29 0 0 0
SMALL
GASTEIGER
Energy = 0

@<TRIPOS>ATOM
      1 N          -0.2130    0.4210    0.0000 N.ar    1  LIG1       -0.1862
      2 C           1.2420   -0.4380    0.0000 C.ar    1  LIG1        0.2151
      3 N           1.7330    0.4210    0.0000 N.ar    1  LIG1       -0.1011
      4 N           1.2500    1.2380    0.0000 N.ar    1  LIG1       -0.0218
      5 N           0.2790    1.2380    0.0000 N.ar    1  LIG1       -0.0382
      6 S           1.7170   -1.2920    0.0000 S.3     1  LIG1       -0.0641
      7 C           2.7000   -1.2920    0.0000 C.3     1  LIG1        0.1501
      8 C           3.1710   -0.4380    0.0000 C.2     1  LIG1        0.2372
      9 N           4.1250   -0.4380    0.0000 N.am    1  LIG1       -0.2737
     10 C           4.6040   -1.2500    0.0000 C.3     1  LIG1        0.1255
     11 C           5.5670   -1.2500    0.0000 C.3     1  LIG1        0.1636
     12 O           6.0790   -0.4380    0.0000 O.3     1  LIG1       -0.3501
     13 C           5.5790    0.4040    0.0000 C.3     1  LIG1        0.1636
     14 C           4.6250    0.4040    0.0000 C.3     1  LIG1        0.1255
     15 O           2.6380    0.4040    0.0000 O.2     1  LIG1       -0.2739
     16 C          -1.2290    0.4210    0.0000 C.ar    1  LIG1        0.0866
     17 C          -1.7210   -0.4170    0.0000 C.ar    1  LIG1        0.0195
     18 C          -2.6920   -0.4170    0.0000 C.ar    1  LIG1        0.0080
     19 C          -3.1750    0.4210    0.0000 C.ar    1  LIG1        0.0757
     20 C          -4.1460    0.4210    0.0000 C.2     1  LIG1        0.3412
     21 O          -4.6580    1.2750    0.0000 O.2     1  LIG1       -0.2449
     22 O          -4.5210   -0.3920    0.0000 O.3     1  LIG1       -0.4454
     23 C          -5.6750   -0.3920    0.0000 C.3     1  LIG1        0.2088
     24 C          -6.0790    0.4210    0.0000 C.3     1  LIG1        0.0475
     25 C          -5.5920    1.2960    0.0000 C.3     1  LIG1        0.0040
     26 C          -2.6830    1.2750    0.0000 C.ar    1  LIG1        0.0080
     27 C          -1.7000    1.2750    0.0000 C.ar    1  LIG1        0.0195
@<TRIPOS>BOND
     1     1     2   ar
     2     1     5   ar
     3     1    16    1
     4     2     3   ar
     5     2     6    1
     6     3     4   ar
     7     4     5   ar
     8     6     7    1
     9     7     8    1
    10     8     9   am
    11     8    15    2
    12     9    10    1
    13     9    14    1
    14    10    11    1
    15    11    12    1
    16    12    13    1
    17    13    14    1
    18    16    17   ar
    19    16    27   ar
    20    17    18   ar
    21    18    19   ar
    22    19    20    1
    23    19    26   ar
    24    20    21    2
    25    20    22    1
    26    22    23    1
    27    23    24    1
    28    24    25    1
    29    26    27   ar
