@<TRIPOS>MOLECULE
25534_ChemDiv_3271-0165
 27 32 0 0 0
SMALL
GASTEIGER
Energy = 0

@<TRIPOS>ATOM
      1 N           1.2080    0.9880    0.0000 N.am    1  LIG1       -0.2077
      2 C           0.0330    1.1040    0.0000 C.2     1  LIG1        0.2358
      3 C          -0.7330    0.6460    0.0000 C.3     1  LIG1        0.0947
      4 C          -0.1130   -0.0330    0.0000 C.3     1  LIG1        0.0947
      5 C           0.7710    0.2040    0.0000 C.2     1  LIG1        0.2358
      6 O           1.5330   -0.2540    0.0000 O.2     1  LIG1       -0.2741
      7 C          -0.8920   -1.3130    0.0000 C.3     1  LIG1        0.0531
      8 C          -2.1750   -1.9420    0.0000 C.ar    1  LIG1       -0.0216
      9 C          -2.1710   -1.0420    0.0000 C.ar    1  LIG1       -0.0216
     10 C          -1.3000   -0.5170    0.0000 C.3     1  LIG1        0.0531
     11 C           0.2040   -1.1750    0.0000 C.ar    1  LIG1       -0.0216
     12 C           0.2040   -2.0920    0.0000 C.ar    1  LIG1       -0.0216
     13 C           0.9830   -2.5420    0.0000 C.ar    1  LIG1       -0.0042
     14 C           1.7670   -2.1040    0.0000 C.ar    1  LIG1       -0.0003
     15 C           1.7750   -1.1920    0.0000 C.ar    1  LIG1       -0.0003
     16 C           0.9960   -0.7250    0.0000 C.ar    1  LIG1       -0.0042
     17 C          -2.9500   -0.5920    0.0000 C.ar    1  LIG1       -0.0042
     18 C          -3.7380   -1.0380    0.0000 C.ar    1  LIG1       -0.0003
     19 C          -3.7380   -1.9380    0.0000 C.ar    1  LIG1       -0.0003
     20 C          -2.9540   -2.3920    0.0000 C.ar    1  LIG1       -0.0042
     21 O           0.2630    1.9670    0.0000 O.2     1  LIG1       -0.2741
     22 C           1.9750    1.4420    0.0000 C.ar    1  LIG1        0.0734
     23 C           2.6170    0.8040    0.0000 C.ar    1  LIG1        0.0983
     24 C           3.4920    1.0290    0.0000 C.ar    1  LIG1        0.3672
     25 N           3.7330    1.9080    0.0000 N.ar    1  LIG1        0.0892
     26 C           3.0880    2.5460    0.0000 C.ar    1  LIG1        0.3672
     27 C           2.2170    2.3210    0.0000 C.ar    1  LIG1        0.0983
@<TRIPOS>BOND
     1     1     2   am
     2     1     5   am
     3     1    22    1
     4     2     3    1
     5     2    21    2
     6     3     4    1
     7     3    10    1
     8     4     5    1
     9     4     7    1
    10     5     6    2
    11     7     8    1
    12     7    12    1
    13     8     9   ar
    14     8    20   ar
    15     9    10    1
    16     9    17   ar
    17    10    11    1
    18    11    12   ar
    19    11    16   ar
    20    12    13   ar
    21    13    14   ar
    22    14    15   ar
    23    15    16   ar
    24    17    18   ar
    25    18    19   ar
    26    19    20   ar
    27    22    23   ar
    28    22    27   ar
    29    23    24   ar
    30    24    25   ar
    31    25    26   ar
    32    26    27   ar
