@<TRIPOS>MOLECULE
25530_ChemDiv_2360-0536
 30 36 0 0 0
SMALL
GASTEIGER
Energy = 0

@<TRIPOS>ATOM
      1 N           0.6960    0.6670    0.0000 N.am    1  LIG1       -0.2080
      2 C          -0.2250    0.6670    0.0000 C.2     1  LIG1        0.2358
      3 C          -0.5670   -0.1500    0.0000 C.3     1  LIG1        0.0947
      4 C           0.2080   -0.7670    0.0000 C.3     1  LIG1        0.0947
      5 C           0.9830   -0.2420    0.0000 C.2     1  LIG1        0.2358
      6 O           1.8460   -0.5630    0.0000 O.2     1  LIG1       -0.2741
      7 C          -0.3380   -1.9750    0.0000 C.3     1  LIG1        0.0531
      8 C          -1.2170   -1.9750    0.0000 C.ar    1  LIG1       -0.0216
      9 C          -2.0540   -2.4630    0.0000 C.ar    1  LIG1       -0.0216
     10 C          -0.9710   -2.4630    0.0000 C.3     1  LIG1        0.0531
     11 C          -0.8460   -3.0750    0.0000 C.ar    1  LIG1       -0.0216
     12 C           0.0210   -2.5540    0.0000 C.ar    1  LIG1       -0.0216
     13 C           0.8750   -3.0170    0.0000 C.ar    1  LIG1       -0.0042
     14 C           0.8750   -4.0130    0.0000 C.ar    1  LIG1       -0.0003
     15 C           0.0210   -4.5000    0.0000 C.ar    1  LIG1       -0.0003
     16 C          -0.8460   -4.0250    0.0000 C.ar    1  LIG1       -0.0042
     17 C          -2.9130   -1.9750    0.0000 C.ar    1  LIG1       -0.0042
     18 C          -2.9130   -0.9960    0.0000 C.ar    1  LIG1       -0.0003
     19 C          -2.0540   -0.5080    0.0000 C.ar    1  LIG1       -0.0003
     20 C          -1.2170   -0.9960    0.0000 C.ar    1  LIG1       -0.0042
     21 O          -0.7500    1.4420    0.0000 O.2     1  LIG1       -0.2741
     22 C           1.2670    1.4000    0.0000 C.ar    1  LIG1        0.0639
     23 C           0.9290    2.2880    0.0000 C.ar    1  LIG1        0.0555
     24 C           1.4920    3.0500    0.0000 C.ar    1  LIG1        0.1777
     25 C           2.4670    2.8880    0.0000 C.ar    1  LIG1        0.1765
     26 O           2.9080    3.8000    0.0000 O.3     1  LIG1       -0.4346
     27 C           2.2040    4.5000    0.0000 C.3     1  LIG1        0.4294
     28 O           1.2920    4.0130    0.0000 O.3     1  LIG1       -0.4346
     29 C           2.8080    2.0210    0.0000 C.ar    1  LIG1        0.0415
     30 C           2.2130    1.2250    0.0000 C.ar    1  LIG1        0.0186
@<TRIPOS>BOND
     1     1     2   am
     2     1     5   am
     3     1    22    1
     4     2     3    1
     5     2    21    2
     6     3     4    1
     7     3    10    1
     8     4     5    1
     9     4     7    1
    10     5     6    2
    11     7     8    1
    12     7    12    1
    13     8     9   ar
    14     8    20   ar
    15     9    10    1
    16     9    17   ar
    17    10    11    1
    18    11    12   ar
    19    11    16   ar
    20    12    13   ar
    21    13    14   ar
    22    14    15   ar
    23    15    16   ar
    24    17    18   ar
    25    18    19   ar
    26    19    20   ar
    27    22    23   ar
    28    22    30   ar
    29    23    24   ar
    30    24    25   ar
    31    24    28    1
    32    25    26    1
    33    25    29   ar
    34    26    27    1
    35    27    28    1
    36    29    30   ar
