@<TRIPOS>MOLECULE
25533_ChemDiv_4181-4728
 25 28 0 0 0
SMALL
GASTEIGER
Energy = 0

@<TRIPOS>ATOM
      1 C          -0.9960   -0.1130    0.0000 C.2     1  LIG1        0.1512
      2 C          -1.7080    0.4790    0.0000 C.2     1  LIG1        0.3499
      3 O          -1.6920    1.4580    0.0000 O.3     1  LIG1       -0.4170
      4 C          -0.9960    2.1460    0.0000 C.3     1  LIG1        0.2753
      5 O          -0.3040    1.4580    0.0000 O.3     1  LIG1       -0.4170
      6 C          -0.3290    0.4790    0.0000 C.2     1  LIG1        0.3499
      7 O           0.5750    0.0790    0.0000 O.2     1  LIG1       -0.2446
      8 C          -1.8420    2.6290    0.0000 C.3     1  LIG1        0.0840
      9 C          -1.4210    3.6210    0.0000 C.3     1  LIG1        0.0078
     10 C          -0.5210    3.6210    0.0000 C.3     1  LIG1        0.0078
     11 C          -0.1580    2.6290    0.0000 C.3     1  LIG1        0.0840
     12 O          -2.5880    0.0790    0.0000 O.2     1  LIG1       -0.2446
     13 C          -0.9960   -1.4000    0.0000 C.2     1  LIG1        0.0160
     14 C          -0.2170   -2.0080    0.0000 C.ar    1  LIG1        0.0344
     15 C           0.7290   -1.6210    0.0000 C.ar    1  LIG1        0.0029
     16 C           1.5250   -2.2250    0.0000 C.ar    1  LIG1        0.0002
     17 C           1.3920   -3.2130    0.0000 C.ar    1  LIG1        0.0031
     18 C           0.4750   -3.6170    0.0000 C.ar    1  LIG1        0.0369
     19 C          -0.3290   -2.9830    0.0000 C.ar    1  LIG1        0.1386
     20 O          -1.2630   -3.3880    0.0000 O.3     1  LIG1       -0.4714
     21 C          -2.0540   -2.7790    0.0000 C.3     1  LIG1        0.2525
     22 C           2.4500   -1.8540    0.0000 C.ar    1  LIG1        0.0000
     23 C           2.5830   -0.8460    0.0000 C.ar    1  LIG1        0.0000
     24 C           1.7790   -0.2420    0.0000 C.ar    1  LIG1        0.0000
     25 C           0.8580   -0.6170    0.0000 C.ar    1  LIG1        0.0001
@<TRIPOS>BOND
     1     1     2    1
     2     1     6    1
     3     1    13    2
     4     2     3    1
     5     2    12    2
     6     3     4    1
     7     4     5    1
     8     4     8    1
     9     4    11    1
    10     5     6    1
    11     6     7    2
    12     8     9    1
    13     9    10    1
    14    10    11    1
    15    13    14    1
    16    14    15   ar
    17    14    19   ar
    18    15    16   ar
    19    15    25   ar
    20    16    17   ar
    21    16    22   ar
    22    17    18   ar
    23    18    19   ar
    24    19    20    1
    25    20    21    1
    26    22    23   ar
    27    23    24   ar
    28    24    25   ar
