@<TRIPOS>MOLECULE
25535_ChemDiv_5254-3304
 23 24 0 0 0
SMALL
GASTEIGER
Energy = 0

@<TRIPOS>ATOM
      1 C           0.8630    0.5000    0.0000 C.2     1  LIG1        0.1511
      2 C          -0.0170    1.0000    0.0000 C.2     1  LIG1        0.3499
      3 O          -0.0170    2.0130    0.0000 O.3     1  LIG1       -0.4170
      4 C           0.8630    2.4960    0.0000 C.3     1  LIG1        0.2750
      5 O           1.7380    2.0130    0.0000 O.3     1  LIG1       -0.4170
      6 C           1.7380    1.0000    0.0000 C.2     1  LIG1        0.3499
      7 O           2.5920    0.5000    0.0000 O.2     1  LIG1       -0.2446
      8 C           1.7210    2.9880    0.0000 C.3     1  LIG1        0.0704
      9 C           1.7130    4.0000    0.0000 C.3     1  LIG1        0.0073
     10 C           2.5920    2.5040    0.0000 C.3     1  LIG1        0.0073
     11 C           0.7500    3.2540    0.0000 C.3     1  LIG1        0.0073
     12 C          -0.0170    2.9880    0.0000 C.3     1  LIG1        0.0915
     13 O          -0.8710    0.5000    0.0000 O.2     1  LIG1       -0.2446
     14 C           0.8630   -0.4920    0.0000 C.2     1  LIG1        0.0131
     15 C          -0.0170   -1.0000    0.0000 C.ar    1  LIG1        0.0036
     16 C          -0.0170   -1.9920    0.0000 C.ar    1  LIG1        0.0402
     17 C          -0.8710   -2.4920    0.0000 C.ar    1  LIG1        0.1774
     18 C          -1.7210   -1.9920    0.0000 C.ar    1  LIG1        0.2293
     19 C          -1.7210   -1.0000    0.0000 C.ar    1  LIG1        0.0452
     20 C          -0.8710   -0.5040    0.0000 C.ar    1  LIG1        0.0035
     21 O          -2.5960   -2.4920    0.0000 O.3     1  LIG1       -0.2833
     22 O          -0.8710   -3.5040    0.0000 O.3     1  LIG1       -0.4682
     23 C          -1.7460   -3.9960    0.0000 C.3     1  LIG1        0.2526
@<TRIPOS>BOND
     1     1     2    1
     2     1     6    1
     3     1    14    2
     4     2     3    1
     5     2    13    2
     6     3     4    1
     7     4     5    1
     8     4     8    1
     9     4    12    1
    10     5     6    1
    11     6     7    2
    12     8     9    1
    13     8    10    1
    14     8    11    1
    15    14    15    1
    16    15    16   ar
    17    15    20   ar
    18    16    17   ar
    19    17    18   ar
    20    17    22    1
    21    18    19   ar
    22    18    21    1
    23    19    20   ar
    24    22    23    1
