@<TRIPOS>MOLECULE
25532_ChemDiv_3043-0024
 33 38 0 0 0
SMALL
GASTEIGER
Energy = 0

@<TRIPOS>ATOM
      1 N           0.1170    0.1130    0.0000 N.am    1  LIG1       -0.2081
      2 C          -0.5250   -0.5460    0.0000 C.2     1  LIG1        0.2358
      3 C          -1.3540   -0.1290    0.0000 C.3     1  LIG1        0.0947
      4 C          -1.2210    0.7710    0.0000 C.3     1  LIG1        0.0947
      5 C          -0.3170    0.9330    0.0000 C.2     1  LIG1        0.2358
      6 O           0.0960    1.7880    0.0000 O.2     1  LIG1       -0.2741
      7 C          -2.2330    0.5290    0.0000 C.3     1  LIG1        0.0531
      8 C          -2.5330   -0.3080    0.0000 C.ar    1  LIG1       -0.0216
      9 C          -3.4380   -0.4830    0.0000 C.ar    1  LIG1       -0.0216
     10 C          -4.0330    0.2130    0.0000 C.3     1  LIG1        0.0531
     11 C          -3.7330    1.0880    0.0000 C.ar    1  LIG1       -0.0216
     12 C          -2.8210    1.2500    0.0000 C.ar    1  LIG1       -0.0216
     13 C          -2.4790    2.0920    0.0000 C.ar    1  LIG1       -0.0042
     14 C          -3.0750    2.8130    0.0000 C.ar    1  LIG1       -0.0003
     15 C          -4.0040    2.6580    0.0000 C.ar    1  LIG1       -0.0003
     16 C          -4.3170    1.7880    0.0000 C.ar    1  LIG1       -0.0042
     17 C          -3.7540   -1.3580    0.0000 C.ar    1  LIG1       -0.0042
     18 C          -3.1790   -2.0790    0.0000 C.ar    1  LIG1       -0.0003
     19 C          -2.2420   -1.9000    0.0000 C.ar    1  LIG1       -0.0003
     20 C          -1.9210   -1.0290    0.0000 C.ar    1  LIG1       -0.0042
     21 O          -0.3750   -1.4500    0.0000 O.2     1  LIG1       -0.2741
     22 C           1.0920   -0.0040    0.0000 C.ar    1  LIG1        0.0607
     23 C           1.7000    0.8000    0.0000 C.ar    1  LIG1        0.0164
     24 C           2.6960    0.6500    0.0000 C.ar    1  LIG1        0.0153
     25 C           3.3080    1.4290    0.0000 C.2     1  LIG1        0.0729
     26 O           2.9670    2.3710    0.0000 O.co2   1  LIG1       -0.5446
     27 O           4.3130    1.3130    0.0000 O.co2   1  LIG1       -0.5446
     28 C           3.0710   -0.2670    0.0000 C.ar    1  LIG1        0.0023
     29 C           2.4540   -1.0710    0.0000 C.ar    1  LIG1        0.0153
     30 C           2.8290   -1.9880    0.0000 C.2     1  LIG1        0.0729
     31 O           3.8130   -2.1380    0.0000 O.co2   1  LIG1       -0.5446
     32 O           2.2540   -2.8080    0.0000 O.co2   1  LIG1       -0.5446
     33 C           1.4500   -0.9080    0.0000 C.ar    1  LIG1        0.0164
@<TRIPOS>BOND
     1     1     2   am
     2     1     5   am
     3     1    22    1
     4     2     3    1
     5     2    21    2
     6     3     4    1
     7     3    10    1
     8     4     5    1
     9     4     7    1
    10     5     6    2
    11     7     8    1
    12     7    12    1
    13     8     9   ar
    14     8    20   ar
    15     9    10    1
    16     9    17   ar
    17    10    11    1
    18    11    12   ar
    19    11    16   ar
    20    12    13   ar
    21    13    14   ar
    22    14    15   ar
    23    15    16   ar
    24    17    18   ar
    25    18    19   ar
    26    19    20   ar
    27    22    23   ar
    28    22    33   ar
    29    23    24   ar
    30    24    25    1
    31    24    28   ar
    32    25    26   ar
    33    25    27   ar
    34    28    29   ar
    35    29    30    1
    36    29    33   ar
    37    30    31   ar
    38    30    32   ar
