@<TRIPOS>MOLECULE
25531_ChemDiv_4180-2890
 26 28 0 0 0
SMALL
GASTEIGER
Energy = 0

@<TRIPOS>ATOM
      1 C           1.3040   -0.2460    0.0000 C.2     1  LIG1        0.1512
      2 C           2.1750    0.2540    0.0000 C.2     1  LIG1        0.3503
      3 O           2.1750    1.2630    0.0000 O.3     1  LIG1       -0.4068
      4 C           1.3040    1.7500    0.0000 C.3     1  LIG1        0.3704
      5 O           0.4250    1.2630    0.0000 O.3     1  LIG1       -0.4068
      6 C           0.4250    0.2540    0.0000 C.2     1  LIG1        0.3503
      7 O          -0.4290   -0.2460    0.0000 O.2     1  LIG1       -0.2446
      8 C           1.3040    2.7500    0.0000 C.ar    1  LIG1        0.0613
      9 C           2.1750    3.2330    0.0000 C.ar    1  LIG1        0.0030
     10 C           2.1750    4.2290    0.0000 C.ar    1  LIG1       -0.0001
     11 C           1.3130    4.7330    0.0000 C.ar    1  LIG1       -0.0000
     12 C           0.4420    4.2420    0.0000 C.ar    1  LIG1       -0.0001
     13 C           0.4420    3.2330    0.0000 C.ar    1  LIG1        0.0030
     14 O           3.0290   -0.2460    0.0000 O.2     1  LIG1       -0.2446
     15 C           1.3040   -1.2330    0.0000 C.2     1  LIG1        0.0130
     16 C           0.4250   -1.7330    0.0000 C.ar    1  LIG1        0.0005
     17 C           0.4250   -2.7330    0.0000 C.ar    1  LIG1        0.0013
     18 C          -0.4290   -3.2330    0.0000 C.ar    1  LIG1        0.0145
     19 C          -1.2920   -2.7330    0.0000 C.ar    1  LIG1        0.0478
     20 N          -2.1670   -3.2330    0.0000 N.pl3   1  LIG1       -0.3075
     21 C          -2.1500   -4.2420    0.0000 C.3     1  LIG1        0.0908
     22 C          -1.2750   -4.7330    0.0000 C.3     1  LIG1        0.0232
     23 C          -3.0290   -2.7330    0.0000 C.3     1  LIG1        0.0908
     24 C          -3.0330   -1.7460    0.0000 C.3     1  LIG1        0.0232
     25 C          -1.3000   -1.7460    0.0000 C.ar    1  LIG1        0.0145
     26 C          -0.4290   -1.2330    0.0000 C.ar    1  LIG1        0.0013
@<TRIPOS>BOND
     1     1     2    1
     2     1     6    1
     3     1    15    2
     4     2     3    1
     5     2    14    2
     6     3     4    1
     7     4     5    1
     8     4     8    1
     9     5     6    1
    10     6     7    2
    11     8     9   ar
    12     8    13   ar
    13     9    10   ar
    14    10    11   ar
    15    11    12   ar
    16    12    13   ar
    17    15    16    1
    18    16    17   ar
    19    16    26   ar
    20    17    18   ar
    21    18    19   ar
    22    19    20    1
    23    19    25   ar
    24    20    21    1
    25    20    23    1
    26    21    22    1
    27    23    24    1
    28    25    26   ar
