@<TRIPOS>MOLECULE
25546_ChemDiv_6406-0120
 29 31 0 0 0
SMALL
GASTEIGER
Energy = 0

@<TRIPOS>ATOM
      1 N          -1.3500   -0.0250    0.0000 N.ar    1  LIG1       -0.1862
      2 C          -0.3500   -0.0330    0.0000 C.ar    1  LIG1        0.2151
      3 N          -0.0460   -0.9880    0.0000 N.ar    1  LIG1       -0.1011
      4 N          -0.8540   -1.5670    0.0000 N.ar    1  LIG1       -0.0218
      5 N          -1.6670   -0.9750    0.0000 N.ar    1  LIG1       -0.0382
      6 S           0.5130    0.4750    0.0000 S.3     1  LIG1       -0.0640
      7 C           1.3750    0.0210    0.0000 C.3     1  LIG1        0.1520
      8 C           2.2380    0.4960    0.0000 C.2     1  LIG1        0.2570
      9 N           3.1130    0.0080    0.0000 N.am    1  LIG1       -0.1782
     10 C           3.1000   -0.9920    0.0000 C.ar    1  LIG1        0.0796
     11 C           3.9630   -1.4880    0.0000 C.ar    1  LIG1        0.0909
     12 C           4.8290   -0.9920    0.0000 C.2     1  LIG1        0.3426
     13 O           5.6920   -1.4920    0.0000 O.2     1  LIG1       -0.2448
     14 O           4.8290    0.0080    0.0000 O.3     1  LIG1       -0.4413
     15 C           5.6920    0.5080    0.0000 C.3     1  LIG1        0.2560
     16 C           3.9630   -2.4880    0.0000 C.ar    1  LIG1        0.0078
     17 C           3.0880   -2.9830    0.0000 C.ar    1  LIG1        0.0003
     18 C           2.2250   -2.4750    0.0000 C.ar    1  LIG1        0.0013
     19 C           2.2330   -1.4750    0.0000 C.ar    1  LIG1        0.0168
     20 O           2.2250    1.4960    0.0000 O.2     1  LIG1       -0.2720
     21 C          -2.2170    0.4750    0.0000 C.ar    1  LIG1        0.0866
     22 C          -3.0920   -0.0250    0.0000 C.ar    1  LIG1        0.0194
     23 C          -3.9580    0.4750    0.0000 C.ar    1  LIG1        0.0062
     24 C          -3.9670    1.4920    0.0000 C.ar    1  LIG1        0.0568
     25 C          -4.8330    1.9920    0.0000 C.2     1  LIG1        0.2842
     26 O          -4.8330    2.9880    0.0000 O.2     1  LIG1       -0.2667
     27 N          -5.6960    1.4920    0.0000 N.am    1  LIG1       -0.0837
     28 C          -3.0920    1.9920    0.0000 C.ar    1  LIG1        0.0062
     29 C          -2.2170    1.4920    0.0000 C.ar    1  LIG1        0.0194
@<TRIPOS>BOND
     1     1     2   ar
     2     1     5   ar
     3     1    21    1
     4     2     3   ar
     5     2     6    1
     6     3     4   ar
     7     4     5   ar
     8     6     7    1
     9     7     8    1
    10     8     9   am
    11     8    20    2
    12     9    10    1
    13    10    11   ar
    14    10    19   ar
    15    11    12    1
    16    11    16   ar
    17    12    13    2
    18    12    14    1
    19    14    15    1
    20    16    17   ar
    21    17    18   ar
    22    18    19   ar
    23    21    22   ar
    24    21    29   ar
    25    22    23   ar
    26    23    24   ar
    27    24    25    1
    28    24    28   ar
    29    25    26    2
    30    25    27   am
    31    28    29   ar
