@<TRIPOS>MOLECULE
25542_ChemDiv_5417-0889
 26 28 0 0 0
SMALL
GASTEIGER
Energy = 0

@<TRIPOS>ATOM
      1 N          -1.3960   -0.3130    0.0000 N.ar    1  LIG1       -0.1862
      2 C          -0.3830   -0.3130    0.0000 C.ar    1  LIG1        0.2151
      3 N          -0.0790   -1.2710    0.0000 N.ar    1  LIG1       -0.1011
      4 N          -0.8960   -1.8540    0.0000 N.ar    1  LIG1       -0.0218
      5 N          -1.7170   -1.2630    0.0000 N.ar    1  LIG1       -0.0382
      6 S           0.2080    0.4750    0.0000 S.3     1  LIG1       -0.0640
      7 C           1.2000    0.4750    0.0000 C.3     1  LIG1        0.1520
      8 C           1.7170   -0.3750    0.0000 C.2     1  LIG1        0.2570
      9 N           2.7000   -0.3750    0.0000 N.am    1  LIG1       -0.1785
     10 C           3.2000   -1.2290    0.0000 C.ar    1  LIG1        0.0735
     11 C           4.1920   -1.2290    0.0000 C.ar    1  LIG1        0.0189
     12 C           4.7040   -2.0960    0.0000 C.ar    1  LIG1        0.0310
     13 C           4.2080   -2.9710    0.0000 C.ar    1  LIG1        0.1402
     14 F           4.7170   -3.8380    0.0000 F       1  LIG1       -0.2042
     15 C           3.2000   -2.9710    0.0000 C.ar    1  LIG1        0.0310
     16 C           2.7000   -2.0960    0.0000 C.ar    1  LIG1        0.0189
     17 O           1.2000   -1.2290    0.0000 O.2     1  LIG1       -0.2720
     18 C          -1.9790    0.4920    0.0000 C.ar    1  LIG1        0.0866
     19 C          -1.5540    1.4130    0.0000 C.ar    1  LIG1        0.0193
     20 C          -2.1460    2.2170    0.0000 C.ar    1  LIG1        0.0027
     21 C          -3.1420    2.1170    0.0000 C.ar    1  LIG1        0.0141
     22 C          -3.7250    2.9290    0.0000 C.2     1  LIG1        0.0729
     23 O          -3.3210    3.8420    0.0000 O.co2   1  LIG1       -0.5446
     24 O          -4.7210    2.8250    0.0000 O.co2   1  LIG1       -0.5446
     25 C          -3.5540    1.2040    0.0000 C.ar    1  LIG1        0.0027
     26 C          -2.9630    0.3960    0.0000 C.ar    1  LIG1        0.0193
@<TRIPOS>BOND
     1     1     2   ar
     2     1     5   ar
     3     1    18    1
     4     2     3   ar
     5     2     6    1
     6     3     4   ar
     7     4     5   ar
     8     6     7    1
     9     7     8    1
    10     8     9   am
    11     8    17    2
    12     9    10    1
    13    10    11   ar
    14    10    16   ar
    15    11    12   ar
    16    12    13   ar
    17    13    14    1
    18    13    15   ar
    19    15    16   ar
    20    18    19   ar
    21    18    26   ar
    22    19    20   ar
    23    20    21   ar
    24    21    22    1
    25    21    25   ar
    26    22    23   ar
    27    22    24   ar
    28    25    26   ar
