@<TRIPOS>MOLECULE
25548_ChemDiv_8012-4816
 35 40 0 0 0
SMALL
GASTEIGER
Energy = 0

@<TRIPOS>ATOM
      1 N          -4.6080   -0.2710    0.0000 N.ar    1  LIG1       -0.1862
      2 C          -4.4750    0.6880    0.0000 C.ar    1  LIG1        0.2151
      3 N          -5.3830    1.1040    0.0000 N.ar    1  LIG1       -0.1011
      4 N          -6.0250    0.4290    0.0000 N.ar    1  LIG1       -0.0218
      5 N          -5.5750   -0.4630    0.0000 N.ar    1  LIG1       -0.0382
      6 S          -3.5880    1.1750    0.0000 S.3     1  LIG1       -0.0640
      7 C          -2.7170    0.6880    0.0000 C.3     1  LIG1        0.1520
      8 C          -1.8540    1.1920    0.0000 C.2     1  LIG1        0.2570
      9 N          -1.0130    0.6880    0.0000 N.am    1  LIG1       -0.1784
     10 C          -0.1540    1.1750    0.0000 C.ar    1  LIG1        0.0747
     11 C           0.7290    0.6960    0.0000 C.ar    1  LIG1        0.0332
     12 C           1.5880    1.2130    0.0000 C.ar    1  LIG1        0.0747
     13 N           2.4710    0.7380    0.0000 N.am    1  LIG1       -0.1792
     14 C           3.3130    1.2420    0.0000 C.2     1  LIG1        0.2446
     15 C           4.3830    0.7500    0.0000 C.3     1  LIG1        0.0708
     16 C           4.3830    1.8080    0.0000 C.3     1  LIG1        0.0087
     17 C           5.2040    2.2080    0.0000 C.3     1  LIG1        0.0005
     18 C           4.7790    1.5630    0.0000 C.3     1  LIG1        0.0000
     19 C           4.7790    0.2250    0.0000 C.3     1  LIG1        0.0005
     20 C           3.6830   -0.0790    0.0000 C.3     1  LIG1        0.0087
     21 C           5.7880   -0.0210    0.0000 C.3     1  LIG1        0.0000
     22 C           6.0250    0.7250    0.0000 C.3     1  LIG1        0.0005
     23 C           5.1290    0.4000    0.0000 C.3     1  LIG1        0.0087
     24 C           6.0250    1.8330    0.0000 C.3     1  LIG1        0.0000
     25 O           3.3130    2.2630    0.0000 O.2     1  LIG1       -0.2730
     26 C           1.5790    2.1960    0.0000 C.ar    1  LIG1        0.0167
     27 C           0.7130    2.6880    0.0000 C.ar    1  LIG1        0.0027
     28 C          -0.1540    2.1790    0.0000 C.ar    1  LIG1        0.0167
     29 O          -1.8540    2.1960    0.0000 O.2     1  LIG1       -0.2720
     30 C          -3.8960   -1.0040    0.0000 C.ar    1  LIG1        0.0866
     31 C          -2.9290   -0.7630    0.0000 C.ar    1  LIG1        0.0193
     32 C          -2.2080   -1.4540    0.0000 C.ar    1  LIG1        0.0015
     33 C          -2.4750   -2.4250    0.0000 C.ar    1  LIG1        0.0001
     34 C          -3.4920   -2.6830    0.0000 C.ar    1  LIG1        0.0015
     35 C          -4.1540   -1.9500    0.0000 C.ar    1  LIG1        0.0193
@<TRIPOS>BOND
     1     1     2   ar
     2     1     5   ar
     3     1    30    1
     4     2     3   ar
     5     2     6    1
     6     3     4   ar
     7     4     5   ar
     8     6     7    1
     9     7     8    1
    10     8     9   am
    11     8    29    2
    12     9    10    1
    13    10    11   ar
    14    10    28   ar
    15    11    12   ar
    16    12    13    1
    17    12    26   ar
    18    13    14   am
    19    14    15    1
    20    14    25    2
    21    15    16    1
    22    15    20    1
    23    15    23    1
    24    16    17    1
    25    17    18    1
    26    17    24    1
    27    18    19    1
    28    19    20    1
    29    19    21    1
    30    21    22    1
    31    22    23    1
    32    22    24    1
    33    26    27   ar
    34    27    28   ar
    35    30    31   ar
    36    30    35   ar
    37    31    32   ar
    38    32    33   ar
    39    33    34   ar
    40    34    35   ar
