@<TRIPOS>MOLECULE
25553_ChemDiv_5650-0552
 25 26 0 0 0
SMALL
GASTEIGER
Energy = 0

@<TRIPOS>ATOM
      1 C          -1.3380    1.0210    0.0000 C.2     1  LIG1        0.1511
      2 C          -0.4750    1.5040    0.0000 C.2     1  LIG1        0.3499
      3 O          -0.4750    2.4920    0.0000 O.3     1  LIG1       -0.4170
      4 C          -1.3380    2.9790    0.0000 C.3     1  LIG1        0.2755
      5 O          -2.1920    2.4920    0.0000 O.3     1  LIG1       -0.4170
      6 C          -2.1920    1.5040    0.0000 C.2     1  LIG1        0.3499
      7 O          -3.0420    1.0210    0.0000 O.2     1  LIG1       -0.2446
      8 C          -0.4920    3.4790    0.0000 C.3     1  LIG1        0.0840
      9 C           0.3960    2.9750    0.0000 C.3     1  LIG1        0.0075
     10 C           1.2790    3.4880    0.0000 C.3     1  LIG1        0.0003
     11 C           2.1670    2.9790    0.0000 C.3     1  LIG1        0.0000
     12 C          -2.1920    3.4630    0.0000 C.3     1  LIG1        0.0915
     13 O           0.3710    1.0210    0.0000 O.2     1  LIG1       -0.2446
     14 C          -1.3250    0.0290    0.0000 C.2     1  LIG1        0.0130
     15 C          -0.4500   -0.4710    0.0000 C.ar    1  LIG1        0.0005
     16 C           0.4170    0.0290    0.0000 C.ar    1  LIG1        0.0013
     17 C           1.3040   -0.4790    0.0000 C.ar    1  LIG1        0.0145
     18 C           1.3040   -1.5000    0.0000 C.ar    1  LIG1        0.0478
     19 N           2.1750   -1.9920    0.0000 N.pl3   1  LIG1       -0.3075
     20 C           2.1750   -2.9920    0.0000 C.3     1  LIG1        0.0908
     21 C           1.3040   -3.4830    0.0000 C.3     1  LIG1        0.0232
     22 C           3.0380   -1.5000    0.0000 C.3     1  LIG1        0.0908
     23 C           3.0380   -0.4920    0.0000 C.3     1  LIG1        0.0232
     24 C           0.4170   -2.0080    0.0000 C.ar    1  LIG1        0.0145
     25 C          -0.4500   -1.5000    0.0000 C.ar    1  LIG1        0.0013
@<TRIPOS>BOND
     1     1     2    1
     2     1     6    1
     3     1    14    2
     4     2     3    1
     5     2    13    2
     6     3     4    1
     7     4     5    1
     8     4     8    1
     9     4    12    1
    10     5     6    1
    11     6     7    2
    12     8     9    1
    13     9    10    1
    14    10    11    1
    15    14    15    1
    16    15    16   ar
    17    15    25   ar
    18    16    17   ar
    19    17    18   ar
    20    18    19    1
    21    18    24   ar
    22    19    20    1
    23    19    22    1
    24    20    21    1
    25    22    23    1
    26    24    25   ar
