@<TRIPOS>MOLECULE
25557_ChemDiv_0550-0098
 19 22 0 0 0
SMALL
GASTEIGER
Energy = 0

@<TRIPOS>ATOM
      1 N          -0.0920   -0.3500    0.0000 N.am    1  LIG1       -0.2081
      2 C          -0.4130    0.5580    0.0000 C.2     1  LIG1        0.2354
      3 C          -1.3830    0.6630    0.0000 C.3     1  LIG1        0.0903
      4 C          -1.6210    0.2460    0.0000 C.3     1  LIG1        0.0903
      5 C          -1.1460   -0.6500    0.0000 C.2     1  LIG1        0.2354
      6 O          -1.4580   -1.6420    0.0000 O.2     1  LIG1       -0.2741
      7 C          -2.5540    0.7710    0.0000 C.3     1  LIG1        0.0311
      8 C          -3.7000    0.3000    0.0000 C.2     1  LIG1       -0.0305
      9 C          -3.4000    0.7710    0.0000 C.2     1  LIG1       -0.0305
     10 C          -2.3040    1.1880    0.0000 C.3     1  LIG1        0.0311
     11 C          -2.4580    2.1080    0.0000 C.3     1  LIG1        0.0096
     12 O           0.1830    1.3170    0.0000 O.2     1  LIG1       -0.2741
     13 C           0.8040   -0.7250    0.0000 C.ar    1  LIG1        0.0606
     14 C           1.6170   -0.1330    0.0000 C.ar    1  LIG1        0.0150
     15 C           2.5380   -0.5210    0.0000 C.ar    1  LIG1       -0.0030
     16 C           2.6420   -1.5130    0.0000 C.ar    1  LIG1       -0.0218
     17 C           1.8500   -2.1040    0.0000 C.ar    1  LIG1       -0.0030
     18 C           0.9170   -1.7000    0.0000 C.ar    1  LIG1        0.0150
     19 C           3.6960   -1.9040    0.0000 C.3     1  LIG1        0.0310
@<TRIPOS>BOND
     1     1     2   am
     2     1     5   am
     3     1    13    1
     4     2     3    1
     5     2    12    2
     6     3     4    1
     7     3    10    1
     8     4     5    1
     9     4     7    1
    10     5     6    2
    11     7     8    1
    12     7    11    1
    13     8     9    2
    14     9    10    1
    15    10    11    1
    16    13    14   ar
    17    13    18   ar
    18    14    15   ar
    19    15    16   ar
    20    16    17   ar
    21    16    19    1
    22    17    18   ar
