@<TRIPOS>MOLECULE
25564_ChemDiv_3773-3664
 34 39 0 0 0
SMALL
GASTEIGER
Energy = 0

@<TRIPOS>ATOM
      1 N          -0.4920    0.1000    0.0000 N.am    1  LIG1       -0.2081
      2 C          -1.3210    0.6380    0.0000 C.2     1  LIG1        0.2358
      3 C          -2.0500   -0.2040    0.0000 C.3     1  LIG1        0.0966
      4 C          -3.2540   -0.4250    0.0000 C.3     1  LIG1        0.0763
      5 C          -3.8670    0.8380    0.0000 C.ar    1  LIG1       -0.0197
      6 C          -3.3210    0.5380    0.0000 C.ar    1  LIG1       -0.0215
      7 C          -2.7630   -0.6710    0.0000 C.3     1  LIG1        0.0531
      8 C          -1.8290   -0.7500    0.0000 C.3     1  LIG1        0.0948
      9 C          -0.7000   -0.8630    0.0000 C.2     1  LIG1        0.2358
     10 O          -0.2040   -1.2830    0.0000 O.2     1  LIG1       -0.2741
     11 C          -3.2920   -1.7920    0.0000 C.ar    1  LIG1       -0.0215
     12 C          -3.7710   -1.5500    0.0000 C.ar    1  LIG1       -0.0197
     13 C          -4.8710   -2.0080    0.0000 C.ar    1  LIG1       -0.0042
     14 C          -4.8000   -3.0540    0.0000 C.ar    1  LIG1       -0.0003
     15 C          -3.8830   -3.5080    0.0000 C.ar    1  LIG1       -0.0003
     16 C          -3.0040   -2.9420    0.0000 C.ar    1  LIG1       -0.0042
     17 C          -2.2540    0.9750    0.0000 C.ar    1  LIG1       -0.0042
     18 C          -2.2920    2.0170    0.0000 C.ar    1  LIG1       -0.0003
     19 C          -3.2000    2.5130    0.0000 C.ar    1  LIG1       -0.0003
     20 C          -4.0880    1.9790    0.0000 C.ar    1  LIG1       -0.0042
     21 C          -4.2290   -0.5880    0.0000 C.3     1  LIG1        0.1905
     22 O          -4.7750    0.1290    0.0000 O.3     1  LIG1       -0.2197
     23 O          -1.3170    1.2250    0.0000 O.2     1  LIG1       -0.2741
     24 C           0.4540    0.4830    0.0000 C.ar    1  LIG1        0.0608
     25 C           0.5630    1.5000    0.0000 C.ar    1  LIG1        0.0184
     26 C           1.5170    1.9000    0.0000 C.ar    1  LIG1        0.0382
     27 C           2.3420    1.2830    0.0000 C.ar    1  LIG1        0.1386
     28 C           2.2210    0.2540    0.0000 C.ar    1  LIG1        0.0382
     29 C           1.2630   -0.1460    0.0000 C.ar    1  LIG1        0.0184
     30 O           3.4290    1.5920    0.0000 O.3     1  LIG1       -0.4755
     31 C           3.4960    2.4710    0.0000 C.3     1  LIG1        0.2054
     32 C           4.4250    2.5420    0.0000 C.3     1  LIG1        0.0473
     33 C           4.2080    3.2580    0.0000 C.3     1  LIG1        0.0038
     34 C           4.8670    3.5130    0.0000 C.3     1  LIG1        0.0001
@<TRIPOS>BOND
     1     1     2   am
     2     1     9   am
     3     1    24    1
     4     2     3    1
     5     2    23    2
     6     3     4    1
     7     3     8    1
     8     4     5    1
     9     4    12    1
    10     4    21    1
    11     5     6   ar
    12     5    20   ar
    13     6     7    1
    14     6    17   ar
    15     7     8    1
    16     7    11    1
    17     8     9    1
    18     9    10    2
    19    11    12   ar
    20    11    16   ar
    21    12    13   ar
    22    13    14   ar
    23    14    15   ar
    24    15    16   ar
    25    17    18   ar
    26    18    19   ar
    27    19    20   ar
    28    21    22    1
    29    24    25   ar
    30    24    29   ar
    31    25    26   ar
    32    26    27   ar
    33    27    28   ar
    34    27    30    1
    35    28    29   ar
    36    30    31    1
    37    31    32    1
    38    32    33    1
    39    33    34    1
