@<TRIPOS>MOLECULE
25566_ChemDiv_6105-0794
 33 38 0 0 0
SMALL
GASTEIGER
Energy = 0

@<TRIPOS>ATOM
      1 C          -3.5380    0.0580    0.0000 C.3     1  LIG1        0.0775
      2 C          -1.7540    1.1630    0.0000 C.3     1  LIG1        0.0990
      3 C          -0.8710    1.5670    0.0000 C.2     1  LIG1        0.2361
      4 N          -0.2080    0.8580    0.0000 N.am    1  LIG1       -0.2081
      5 C          -0.6670    0.0080    0.0000 C.2     1  LIG1        0.2358
      6 C          -1.6290    0.1830    0.0000 C.3     1  LIG1        0.0950
      7 C          -2.5290    0.0580    0.0000 C.3     1  LIG1        0.0531
      8 C          -2.5290   -0.8290    0.0000 C.ar    1  LIG1       -0.0213
      9 C          -3.4880   -0.8750    0.0000 C.ar    1  LIG1       -0.0173
     10 C          -3.9170   -1.7330    0.0000 C.ar    1  LIG1       -0.0039
     11 C          -3.4130   -2.5460    0.0000 C.ar    1  LIG1       -0.0003
     12 C          -2.4500   -2.4920    0.0000 C.ar    1  LIG1       -0.0003
     13 C          -2.0250   -1.6290    0.0000 C.ar    1  LIG1       -0.0042
     14 C          -3.2080    0.7170    0.0000 C.ar    1  LIG1       -0.0213
     15 C          -4.1460    0.9580    0.0000 C.ar    1  LIG1       -0.0173
     16 C          -4.4000    1.8670    0.0000 C.ar    1  LIG1       -0.0039
     17 C          -3.7130    2.5500    0.0000 C.ar    1  LIG1       -0.0003
     18 C          -2.8080    2.3210    0.0000 C.ar    1  LIG1       -0.0003
     19 C          -2.5540    1.4170    0.0000 C.ar    1  LIG1       -0.0042
     20 O          -0.2630   -0.8540    0.0000 O.2     1  LIG1       -0.2741
     21 C           0.7670    0.9880    0.0000 C.ar    1  LIG1        0.0608
     22 C           1.1420    1.9040    0.0000 C.ar    1  LIG1        0.0184
     23 C           2.1330    2.0460    0.0000 C.ar    1  LIG1        0.0382
     24 C           2.7630    1.2540    0.0000 C.ar    1  LIG1        0.1386
     25 C           2.3710    0.3460    0.0000 C.ar    1  LIG1        0.0382
     26 C           1.3750    0.2000    0.0000 C.ar    1  LIG1        0.0184
     27 O           3.8500    1.3540    0.0000 O.3     1  LIG1       -0.4755
     28 C           4.2960    2.2790    0.0000 C.3     1  LIG1        0.2055
     29 C           5.0960    1.8210    0.0000 C.3     1  LIG1        0.0512
     30 O          -0.6880    2.5250    0.0000 O.2     1  LIG1       -0.2741
     31 C          -4.4670   -0.1500    0.0000 C.2     1  LIG1        0.0577
     32 O          -4.7790   -1.0580    0.0000 O.co2   1  LIG1       -0.5485
     33 O          -5.1000    0.5580    0.0000 O.co2   1  LIG1       -0.5485
@<TRIPOS>BOND
     1     1     2    1
     2     1     9    1
     3     1    15    1
     4     1    31    1
     5     2     3    1
     6     2     6    1
     7     3     4   am
     8     3    30    2
     9     4     5   am
    10     4    21    1
    11     5     6    1
    12     5    20    2
    13     6     7    1
    14     7     8    1
    15     7    14    1
    16     8     9   ar
    17     8    13   ar
    18     9    10   ar
    19    10    11   ar
    20    11    12   ar
    21    12    13   ar
    22    14    15   ar
    23    14    19   ar
    24    15    16   ar
    25    16    17   ar
    26    17    18   ar
    27    18    19   ar
    28    21    22   ar
    29    21    26   ar
    30    22    23   ar
    31    23    24   ar
    32    24    25   ar
    33    24    27    1
    34    25    26   ar
    35    27    28    1
    36    28    29    1
    37    31    32   ar
    38    31    33   ar
