@<TRIPOS>MOLECULE
25562_ChemDiv_3566-0018
 37 42 0 0 0
SMALL
GASTEIGER
Energy = 0

@<TRIPOS>ATOM
      1 C          -1.2790    0.6460    0.0000 C.3     1  LIG1        0.0861
      2 C          -0.4460    0.1790    0.0000 C.3     1  LIG1        0.0977
      3 C           0.4920    0.4960    0.0000 C.2     1  LIG1        0.2359
      4 N           1.1080   -0.2580    0.0000 N.am    1  LIG1       -0.2081
      5 C           0.5210   -1.1000    0.0000 C.2     1  LIG1        0.2359
      6 C          -0.4460   -0.7540    0.0000 C.3     1  LIG1        0.0977
      7 C          -1.2500   -0.3290    0.0000 C.3     1  LIG1        0.0861
      8 C           0.0420    1.5250    0.0000 C.ar    1  LIG1       -0.0186
      9 C          -0.7960    2.0330    0.0000 C.ar    1  LIG1       -0.0186
     10 C          -0.7960    2.9540    0.0000 C.ar    1  LIG1       -0.0041
     11 C           0.0420    3.3960    0.0000 C.ar    1  LIG1       -0.0003
     12 C           0.8380    2.9540    0.0000 C.ar    1  LIG1       -0.0003
     13 C           0.8380    2.0330    0.0000 C.ar    1  LIG1       -0.0041
     14 C          -2.1040   -0.7540    0.0000 C.ar    1  LIG1       -0.0186
     15 C          -2.1040    0.1790    0.0000 C.ar    1  LIG1       -0.0186
     16 C          -2.9290    0.6460    0.0000 C.ar    1  LIG1       -0.0041
     17 C          -3.7670    0.1790    0.0000 C.ar    1  LIG1       -0.0003
     18 C          -3.7670   -0.7540    0.0000 C.ar    1  LIG1       -0.0003
     19 C          -2.9290   -1.2330    0.0000 C.ar    1  LIG1       -0.0041
     20 C          -1.2500   -1.2330    0.0000 C.3     1  LIG1        0.2167
     21 O          -0.6750   -1.5790    0.0000 O.3     1  LIG1       -0.4478
     22 C          -1.0040   -2.5170    0.0000 C.2     1  LIG1        0.3176
     23 O          -0.4290   -3.3920    0.0000 O.2     1  LIG1       -0.2501
     24 C          -1.9380   -2.6630    0.0000 C.3     1  LIG1        0.1212
     25 O           0.8670   -2.0500    0.0000 O.2     1  LIG1       -0.2741
     26 C           2.0290   -0.2580    0.0000 C.ar    1  LIG1        0.0606
     27 C           2.5420    0.6040    0.0000 C.ar    1  LIG1        0.0153
     28 C           3.5290    0.6040    0.0000 C.ar    1  LIG1        0.0013
     29 C           4.0250   -0.2580    0.0000 C.ar    1  LIG1        0.0001
     30 C           3.5040   -1.1380    0.0000 C.ar    1  LIG1        0.0013
     31 C           2.5170   -1.1380    0.0000 C.ar    1  LIG1        0.0153
     32 O           0.8210    1.4420    0.0000 O.2     1  LIG1       -0.2741
     33 C          -1.8830    1.3880    0.0000 C.3     1  LIG1        0.2167
     34 O          -2.6830    1.3880    0.0000 O.3     1  LIG1       -0.4478
     35 C          -3.0170    2.3210    0.0000 C.2     1  LIG1        0.3176
     36 O          -4.0290    2.6170    0.0000 O.2     1  LIG1       -0.2501
     37 C          -2.3920    3.0250    0.0000 C.3     1  LIG1        0.1212
@<TRIPOS>BOND
     1     1     2    1
     2     1     9    1
     3     1    15    1
     4     1    33    1
     5     2     3    1
     6     2     6    1
     7     3     4   am
     8     3    32    2
     9     4     5   am
    10     4    26    1
    11     5     6    1
    12     5    25    2
    13     6     7    1
    14     7     8    1
    15     7    14    1
    16     7    20    1
    17     8     9   ar
    18     8    13   ar
    19     9    10   ar
    20    10    11   ar
    21    11    12   ar
    22    12    13   ar
    23    14    15   ar
    24    14    19   ar
    25    15    16   ar
    26    16    17   ar
    27    17    18   ar
    28    18    19   ar
    29    20    21    1
    30    21    22    1
    31    22    23    2
    32    22    24    1
    33    26    27   ar
    34    26    31   ar
    35    27    28   ar
    36    28    29   ar
    37    29    30   ar
    38    30    31   ar
    39    33    34    1
    40    34    35    1
    41    35    36    2
    42    35    37    1
