@<TRIPOS>MOLECULE
25565_ChemDiv_2267-0408
 26 30 0 0 0
SMALL
GASTEIGER
Energy = 0

@<TRIPOS>ATOM
      1 N          -1.7040   -0.2040    0.0000 N.am    1  LIG1       -0.2081
      2 C          -2.5130   -0.7630    0.0000 C.2     1  LIG1        0.2354
      3 C          -3.3000   -0.1830    0.0000 C.3     1  LIG1        0.0903
      4 C          -2.9830    0.7630    0.0000 C.3     1  LIG1        0.0903
      5 C          -2.0170    0.7630    0.0000 C.2     1  LIG1        0.2354
      6 O          -1.4080    1.5500    0.0000 O.2     1  LIG1       -0.2741
      7 C          -3.6750    1.5000    0.0000 C.3     1  LIG1        0.0311
      8 C          -4.6170    1.2630    0.0000 C.2     1  LIG1       -0.0305
      9 C          -4.9250    0.3420    0.0000 C.2     1  LIG1       -0.0305
     10 C          -4.2500   -0.3960    0.0000 C.3     1  LIG1        0.0311
     11 C          -3.4580    0.3830    0.0000 C.3     1  LIG1        0.0096
     12 O          -2.5130   -1.7580    0.0000 O.2     1  LIG1       -0.2741
     13 C          -0.7250   -0.4210    0.0000 C.ar    1  LIG1        0.0608
     14 C          -0.0460    0.3210    0.0000 C.ar    1  LIG1        0.0184
     15 C           0.9210    0.0790    0.0000 C.ar    1  LIG1        0.0388
     16 C           1.2170   -0.8630    0.0000 C.ar    1  LIG1        0.1454
     17 O           2.1670   -1.1040    0.0000 O.3     1  LIG1       -0.4535
     18 C           2.8710   -0.3960    0.0000 C.ar    1  LIG1        0.1454
     19 C           2.6080    0.5830    0.0000 C.ar    1  LIG1        0.0384
     20 C           3.2880    1.2880    0.0000 C.ar    1  LIG1        0.0145
     21 C           4.2380    1.0250    0.0000 C.ar    1  LIG1        0.0579
     22 CL          4.9210    1.7630    0.0000 Cl      1  LIG1       -0.0822
     23 C           4.5000    0.0790    0.0000 C.ar    1  LIG1        0.0145
     24 C           3.8130   -0.6330    0.0000 C.ar    1  LIG1        0.0384
     25 C           0.5290   -1.6000    0.0000 C.ar    1  LIG1        0.0388
     26 C          -0.4420   -1.3670    0.0000 C.ar    1  LIG1        0.0184
@<TRIPOS>BOND
     1     1     2   am
     2     1     5   am
     3     1    13    1
     4     2     3    1
     5     2    12    2
     6     3     4    1
     7     3    10    1
     8     4     5    1
     9     4     7    1
    10     5     6    2
    11     7     8    1
    12     7    11    1
    13     8     9    2
    14     9    10    1
    15    10    11    1
    16    13    14   ar
    17    13    26   ar
    18    14    15   ar
    19    15    16   ar
    20    16    17    1
    21    16    25   ar
    22    17    18    1
    23    18    19   ar
    24    18    24   ar
    25    19    20   ar
    26    20    21   ar
    27    21    22    1
    28    21    23   ar
    29    23    24   ar
    30    25    26   ar
