@<TRIPOS>MOLECULE
25563_ChemDiv_2036-1090
 24 27 0 0 0
SMALL
GASTEIGER
Energy = 0

@<TRIPOS>ATOM
      1 N           0.3830   -0.4750    0.0000 N.am    1  LIG1       -0.2081
      2 C          -0.2710   -1.2330    0.0000 C.2     1  LIG1        0.2354
      3 C           0.2460   -2.0540    0.0000 C.3     1  LIG1        0.0903
      4 C           1.1920   -1.8130    0.0000 C.3     1  LIG1        0.0903
      5 C           1.2580   -0.8290    0.0000 C.2     1  LIG1        0.2354
      6 O           2.1000   -0.2880    0.0000 O.2     1  LIG1       -0.2741
      7 C           1.8920   -2.5000    0.0000 C.3     1  LIG1        0.0311
      8 C           1.6130   -3.4460    0.0000 C.2     1  LIG1       -0.0305
      9 C           0.7000   -3.7130    0.0000 C.2     1  LIG1       -0.0305
     10 C          -0.0210   -3.0040    0.0000 C.3     1  LIG1        0.0311
     11 C           1.1250   -3.2170    0.0000 C.3     1  LIG1        0.0096
     12 O          -1.2630   -1.1830    0.0000 O.2     1  LIG1       -0.2741
     13 C           0.2250    0.5040    0.0000 C.ar    1  LIG1        0.0607
     14 C          -0.7170    0.8880    0.0000 C.ar    1  LIG1        0.0164
     15 C          -0.8630    1.8580    0.0000 C.ar    1  LIG1        0.0153
     16 C          -1.7880    2.2130    0.0000 C.2     1  LIG1        0.0729
     17 O          -2.5670    1.5790    0.0000 O.co2   1  LIG1       -0.5446
     18 O          -1.9580    3.2040    0.0000 O.co2   1  LIG1       -0.5446
     19 C          -0.0880    2.4920    0.0000 C.ar    1  LIG1        0.0023
     20 C           0.8580    2.1080    0.0000 C.ar    1  LIG1        0.0153
     21 C           1.6500    2.7420    0.0000 C.2     1  LIG1        0.0729
     22 O           1.4920    3.7170    0.0000 O.co2   1  LIG1       -0.5446
     23 O           2.5630    2.3630    0.0000 O.co2   1  LIG1       -0.5446
     24 C           1.0170    1.1380    0.0000 C.ar    1  LIG1        0.0164
@<TRIPOS>BOND
     1     1     2   am
     2     1     5   am
     3     1    13    1
     4     2     3    1
     5     2    12    2
     6     3     4    1
     7     3    10    1
     8     4     5    1
     9     4     7    1
    10     5     6    2
    11     7     8    1
    12     7    11    1
    13     8     9    2
    14     9    10    1
    15    10    11    1
    16    13    14   ar
    17    13    24   ar
    18    14    15   ar
    19    15    16    1
    20    15    19   ar
    21    16    17   ar
    22    16    18   ar
    23    19    20   ar
    24    20    21    1
    25    20    24   ar
    26    21    22   ar
    27    21    23   ar
