@<TRIPOS>MOLECULE
25560_ChemDiv_3406-0981
 32 37 0 0 0
SMALL
GASTEIGER
Energy = 0

@<TRIPOS>ATOM
      1 N          -0.0960    0.5130    0.0000 N.am    1  LIG1       -0.2081
      2 C          -0.9170    1.0460    0.0000 C.2     1  LIG1        0.2358
      3 C          -1.6330    0.2130    0.0000 C.3     1  LIG1        0.0966
      4 C          -2.8250   -0.0040    0.0000 C.3     1  LIG1        0.0763
      5 C          -3.3380   -1.1170    0.0000 C.ar    1  LIG1       -0.0197
      6 C          -2.8630   -1.3540    0.0000 C.ar    1  LIG1       -0.0215
      7 C          -2.3380   -0.2500    0.0000 C.3     1  LIG1        0.0531
      8 C          -1.4170   -0.3250    0.0000 C.3     1  LIG1        0.0948
      9 C          -0.3000   -0.4380    0.0000 C.2     1  LIG1        0.2358
     10 O           0.1880   -0.8540    0.0000 O.2     1  LIG1       -0.2741
     11 C          -2.8920    0.9460    0.0000 C.ar    1  LIG1       -0.0215
     12 C          -3.4330    1.2420    0.0000 C.ar    1  LIG1       -0.0197
     13 C          -3.6500    2.3670    0.0000 C.ar    1  LIG1       -0.0042
     14 C          -2.7710    2.8960    0.0000 C.ar    1  LIG1       -0.0003
     15 C          -1.8750    2.4080    0.0000 C.ar    1  LIG1       -0.0003
     16 C          -1.8380    1.3790    0.0000 C.ar    1  LIG1       -0.0042
     17 C          -2.5790   -2.4960    0.0000 C.ar    1  LIG1       -0.0042
     18 C          -3.4460   -3.0540    0.0000 C.ar    1  LIG1       -0.0003
     19 C          -4.3540   -2.6040    0.0000 C.ar    1  LIG1       -0.0003
     20 C          -4.4210   -1.5750    0.0000 C.ar    1  LIG1       -0.0042
     21 C          -3.8580    0.0380    0.0000 C.3     1  LIG1        0.1905
     22 O          -4.2250    0.6500    0.0000 O.3     1  LIG1       -0.2197
     23 O          -0.9130    1.6210    0.0000 O.2     1  LIG1       -0.2741
     24 C           0.8380    0.8920    0.0000 C.ar    1  LIG1        0.0606
     25 C           0.9460    1.9000    0.0000 C.ar    1  LIG1        0.0154
     26 C           1.8920    2.2920    0.0000 C.ar    1  LIG1        0.0024
     27 C           2.7040    1.6830    0.0000 C.ar    1  LIG1        0.0141
     28 C           3.6040    2.0750    0.0000 C.2     1  LIG1        0.0729
     29 O           3.7250    3.0580    0.0000 O.co2   1  LIG1       -0.5446
     30 O           4.4170    1.5170    0.0000 O.co2   1  LIG1       -0.5446
     31 C           2.5880    0.6630    0.0000 C.ar    1  LIG1        0.0024
     32 C           1.6380    0.3080    0.0000 C.ar    1  LIG1        0.0154
@<TRIPOS>BOND
     1     1     2   am
     2     1     9   am
     3     1    24    1
     4     2     3    1
     5     2    23    2
     6     3     4    1
     7     3     8    1
     8     4     5    1
     9     4    12    1
    10     4    21    1
    11     5     6   ar
    12     5    20   ar
    13     6     7    1
    14     6    17   ar
    15     7     8    1
    16     7    11    1
    17     8     9    1
    18     9    10    2
    19    11    12   ar
    20    11    16   ar
    21    12    13   ar
    22    13    14   ar
    23    14    15   ar
    24    15    16   ar
    25    17    18   ar
    26    18    19   ar
    27    19    20   ar
    28    21    22    1
    29    24    25   ar
    30    24    32   ar
    31    25    26   ar
    32    26    27   ar
    33    27    28    1
    34    27    31   ar
    35    28    29   ar
    36    28    30   ar
    37    31    32   ar
