@<TRIPOS>MOLECULE
25568_ChemDiv_6105-0816
 32 37 0 0 0
SMALL
GASTEIGER
Energy = 0

@<TRIPOS>ATOM
      1 N           0.9580    0.8630    0.0000 N.am    1  LIG1       -0.2084
      2 C           0.2960    1.5710    0.0000 C.2     1  LIG1        0.2361
      3 C          -0.5920    1.1670    0.0000 C.3     1  LIG1        0.0990
      4 C          -2.3790    0.0580    0.0000 C.3     1  LIG1        0.0775
      5 C          -2.9920    0.9630    0.0000 C.ar    1  LIG1       -0.0173
      6 C          -2.0460    0.7170    0.0000 C.ar    1  LIG1       -0.0213
      7 C          -1.3670    0.0580    0.0000 C.3     1  LIG1        0.0531
      8 C          -0.4630    0.1830    0.0000 C.3     1  LIG1        0.0950
      9 C           0.5000    0.0080    0.0000 C.2     1  LIG1        0.2358
     10 O           0.9040   -0.8540    0.0000 O.2     1  LIG1       -0.2741
     11 C          -1.3670   -0.8290    0.0000 C.ar    1  LIG1       -0.0213
     12 C          -2.3250   -0.8790    0.0000 C.ar    1  LIG1       -0.0173
     13 C          -2.7580   -1.7380    0.0000 C.ar    1  LIG1       -0.0039
     14 C          -2.2540   -2.5500    0.0000 C.ar    1  LIG1       -0.0003
     15 C          -1.2880   -2.5000    0.0000 C.ar    1  LIG1       -0.0003
     16 C          -0.8630   -1.6330    0.0000 C.ar    1  LIG1       -0.0042
     17 C          -1.3960    1.4210    0.0000 C.ar    1  LIG1       -0.0042
     18 C          -1.6460    2.3290    0.0000 C.ar    1  LIG1       -0.0003
     19 C          -2.5540    2.5540    0.0000 C.ar    1  LIG1       -0.0003
     20 C          -3.2420    1.8710    0.0000 C.ar    1  LIG1       -0.0039
     21 C          -3.3080   -0.1500    0.0000 C.2     1  LIG1        0.0577
     22 O          -3.6210   -1.0630    0.0000 O.co2   1  LIG1       -0.5485
     23 O          -3.9460    0.5630    0.0000 O.co2   1  LIG1       -0.5485
     24 O           0.4790    2.5330    0.0000 O.2     1  LIG1       -0.2741
     25 C           1.9380    0.9880    0.0000 C.ar    1  LIG1        0.0566
     26 C           2.5500    0.2000    0.0000 C.ar    1  LIG1       -0.0081
     27 C           2.0630   -0.5630    0.0000 C.3     1  LIG1        0.0276
     28 C           2.8790   -1.2080    0.0000 C.3     1  LIG1        0.0051
     29 C           3.5500    0.3460    0.0000 C.ar    1  LIG1       -0.0030
     30 C           3.9420    1.2580    0.0000 C.ar    1  LIG1       -0.0002
     31 C           3.3080    2.0540    0.0000 C.ar    1  LIG1        0.0013
     32 C           2.3130    1.9080    0.0000 C.ar    1  LIG1        0.0150
@<TRIPOS>BOND
     1     1     2   am
     2     1     9   am
     3     1    25    1
     4     2     3    1
     5     2    24    2
     6     3     4    1
     7     3     8    1
     8     4     5    1
     9     4    12    1
    10     4    21    1
    11     5     6   ar
    12     5    20   ar
    13     6     7    1
    14     6    17   ar
    15     7     8    1
    16     7    11    1
    17     8     9    1
    18     9    10    2
    19    11    12   ar
    20    11    16   ar
    21    12    13   ar
    22    13    14   ar
    23    14    15   ar
    24    15    16   ar
    25    17    18   ar
    26    18    19   ar
    27    19    20   ar
    28    21    22   ar
    29    21    23   ar
    30    25    26   ar
    31    25    32   ar
    32    26    27    1
    33    26    29   ar
    34    27    28    1
    35    29    30   ar
    36    30    31   ar
    37    31    32   ar
