@<TRIPOS>MOLECULE
25576_ChemDiv_C066-1346
 29 30 0 0 0
SMALL
GASTEIGER
Energy = 0

@<TRIPOS>ATOM
      1 C           1.2880    0.7420    0.0000 C.ar    1  LIG1        0.0725
      2 C           0.4250    1.2380    0.0000 C.ar    1  LIG1        0.0137
      3 C           0.4250    2.2380    0.0000 C.ar    1  LIG1        0.0596
      4 C           1.2880    2.7380    0.0000 C.ar    1  LIG1        0.2609
      5 N           2.1580    2.2380    0.0000 N.ar    1  LIG1       -0.2940
      6 C           2.1580    1.2380    0.0000 C.ar    1  LIG1        0.0828
      7 C           3.0250    2.7460    0.0000 C.3     1  LIG1        0.1092
      8 C           3.9040    2.2460    0.0000 C.3     1  LIG1        0.0266
      9 O           1.2880    3.7330    0.0000 O.2     1  LIG1       -0.2670
     10 C          -0.4380    2.7380    0.0000 C.ar    1  LIG1        0.0448
     11 C          -1.3000    2.2380    0.0000 C.ar    1  LIG1        0.1725
     12 C          -1.3000    1.2380    0.0000 C.ar    1  LIG1        0.1724
     13 C          -0.4380    0.7420    0.0000 C.ar    1  LIG1        0.0404
     14 O          -2.1790    0.7420    0.0000 O.3     1  LIG1       -0.4684
     15 C          -2.1790   -0.2580    0.0000 C.3     1  LIG1        0.2526
     16 O          -2.1790    2.7460    0.0000 O.3     1  LIG1       -0.4684
     17 C          -2.1710    3.7500    0.0000 C.3     1  LIG1        0.2526
     18 C           1.2880   -0.2580    0.0000 C.2     1  LIG1        0.2662
     19 O           2.1580   -0.7580    0.0000 O.2     1  LIG1       -0.2683
     20 N           0.4250   -0.7580    0.0000 N.am    1  LIG1       -0.2014
     21 C          -0.4380   -0.2460    0.0000 C.3     1  LIG1        0.1207
     22 C          -1.3040   -0.7500    0.0000 C.3     1  LIG1        0.0847
     23 C          -1.3170   -1.7460    0.0000 C.3     1  LIG1        0.2369
     24 O          -2.1790   -2.2420    0.0000 O.3     1  LIG1       -0.3305
     25 C          -3.0460   -2.7290    0.0000 C.3     1  LIG1        0.1449
     26 C          -3.9080   -2.2290    0.0000 C.3     1  LIG1        0.0347
     27 O          -0.4540   -2.2460    0.0000 O.3     1  LIG1       -0.3305
     28 C           0.4080   -2.7460    0.0000 C.3     1  LIG1        0.1449
     29 C           0.4080   -3.7460    0.0000 C.3     1  LIG1        0.0347
@<TRIPOS>BOND
     1     1     2   ar
     2     1     6   ar
     3     1    18    1
     4     2     3   ar
     5     2    13   ar
     6     3     4   ar
     7     3    10   ar
     8     4     5   ar
     9     4     9    2
    10     5     6   ar
    11     5     7    1
    12     7     8    1
    13    10    11   ar
    14    11    12   ar
    15    11    16    1
    16    12    13   ar
    17    12    14    1
    18    14    15    1
    19    16    17    1
    20    18    19    2
    21    18    20   am
    22    20    21    1
    23    21    22    1
    24    22    23    1
    25    23    24    1
    26    23    27    1
    27    24    25    1
    28    25    26    1
    29    27    28    1
    30    28    29    1
