@<TRIPOS>MOLECULE
25572_ChemDiv_D272-0220
 28 30 0 0 0
SMALL
GASTEIGER
Energy = 0

@<TRIPOS>ATOM
      1 N          -2.5750   -2.4210    0.0000 N.ar    1  LIG1       -0.1862
      2 C          -1.7580   -1.8330    0.0000 C.ar    1  LIG1        0.2149
      3 N          -0.9580   -2.4210    0.0000 N.ar    1  LIG1       -0.1011
      4 N          -1.2580   -3.3710    0.0000 N.ar    1  LIG1       -0.0218
      5 N          -2.2580   -3.3710    0.0000 N.ar    1  LIG1       -0.0382
      6 S          -1.7580   -0.8330    0.0000 S.3     1  LIG1       -0.0676
      7 C          -0.8960   -0.3330    0.0000 C.3     1  LIG1        0.1275
      8 C          -0.8960    0.6580    0.0000 C.3     1  LIG1        0.1472
      9 N          -0.0330    1.1580    0.0000 N.4     1  LIG1        0.3596
     10 C           0.8330    0.6580    0.0000 C.3     1  LIG1        0.1622
     11 C           1.7960    0.9210    0.0000 C.ar    1  LIG1        0.0374
     12 C           2.0580    1.8960    0.0000 C.ar    1  LIG1        0.0415
     13 C           3.0210    2.1670    0.0000 C.ar    1  LIG1        0.1721
     14 C           3.7330    1.4540    0.0000 C.ar    1  LIG1        0.1724
     15 C           3.4790    0.4790    0.0000 C.ar    1  LIG1        0.0399
     16 C           2.5080    0.2210    0.0000 C.ar    1  LIG1        0.0048
     17 O           4.7040    1.7080    0.0000 O.3     1  LIG1       -0.4684
     18 C           5.4170    1.0040    0.0000 C.3     1  LIG1        0.2526
     19 O           3.2830    3.1210    0.0000 O.3     1  LIG1       -0.4724
     20 C           4.2460    3.3750    0.0000 C.3     1  LIG1        0.2057
     21 C           4.9580    2.6750    0.0000 C.3     1  LIG1        0.0512
     22 C          -3.5210   -2.1210    0.0000 C.ar    1  LIG1        0.0866
     23 C          -3.7250   -1.1420    0.0000 C.ar    1  LIG1        0.0193
     24 C          -4.6830   -0.8330    0.0000 C.ar    1  LIG1        0.0015
     25 C          -5.4210   -1.5040    0.0000 C.ar    1  LIG1        0.0001
     26 C          -5.2080   -2.4830    0.0000 C.ar    1  LIG1        0.0015
     27 C          -4.2580   -2.7830    0.0000 C.ar    1  LIG1        0.0193
     28 H          -0.0330    2.1670    0.0000 H       1  LIG1        0.2385
@<TRIPOS>BOND
     1     1     2   ar
     2     1     5   ar
     3     1    22    1
     4     2     3   ar
     5     2     6    1
     6     3     4   ar
     7     4     5   ar
     8     6     7    1
     9     7     8    1
    10     8     9    1
    11     9    10    1
    12     9    28    1
    13    10    11    1
    14    11    12   ar
    15    11    16   ar
    16    12    13   ar
    17    13    14   ar
    18    13    19    1
    19    14    15   ar
    20    14    17    1
    21    15    16   ar
    22    17    18    1
    23    19    20    1
    24    20    21    1
    25    22    23   ar
    26    22    27   ar
    27    23    24   ar
    28    24    25   ar
    29    25    26   ar
    30    26    27   ar
