@<TRIPOS>MOLECULE
25588_ChemDiv_8004-9620
 33 38 0 0 0
SMALL
GASTEIGER
Energy = 0

@<TRIPOS>ATOM
      1 N           0.3290    1.2380    0.0000 N.am    1  LIG1       -0.2081
      2 C           0.6330    0.2790    0.0000 C.2     1  LIG1        0.2359
      3 C          -0.2040   -0.2330    0.0000 C.3     1  LIG1        0.0988
      4 C          -1.1380   -1.5210    0.0000 C.3     1  LIG1        0.0976
      5 C          -2.0580   -2.1170    0.0000 C.ar    1  LIG1       -0.0175
      6 C          -2.0580   -1.2210    0.0000 C.ar    1  LIG1       -0.0215
      7 C          -1.1630   -0.6540    0.0000 C.3     1  LIG1        0.0531
      8 C          -0.7000    0.0630    0.0000 C.3     1  LIG1        0.0948
      9 C          -0.7000    0.9580    0.0000 C.2     1  LIG1        0.2358
     10 O          -1.5460    1.4580    0.0000 O.2     1  LIG1       -0.2741
     11 C          -0.2630   -1.1750    0.0000 C.ar    1  LIG1       -0.0215
     12 C          -0.2630   -2.0880    0.0000 C.ar    1  LIG1       -0.0175
     13 C           0.5960   -2.6210    0.0000 C.ar    1  LIG1       -0.0041
     14 C           1.4460   -2.1380    0.0000 C.ar    1  LIG1       -0.0003
     15 C           1.4460   -1.1170    0.0000 C.ar    1  LIG1       -0.0003
     16 C           0.5960   -0.6330    0.0000 C.ar    1  LIG1       -0.0042
     17 C          -2.9130   -0.6710    0.0000 C.ar    1  LIG1       -0.0042
     18 C          -3.7710   -1.1750    0.0000 C.ar    1  LIG1       -0.0003
     19 C          -3.7710   -2.1750    0.0000 C.ar    1  LIG1       -0.0003
     20 C          -2.9130   -2.6710    0.0000 C.ar    1  LIG1       -0.0041
     21 C          -1.1380   -2.6130    0.0000 C.3     1  LIG1        0.2432
     22 O          -0.2420   -3.1960    0.0000 O.3     1  LIG1       -0.3273
     23 C           0.6540   -3.1960    0.0000 C.3     1  LIG1        0.1769
     24 O          -1.9460   -3.1540    0.0000 O.3     1  LIG1       -0.3273
     25 C          -2.9130   -3.1540    0.0000 C.3     1  LIG1        0.1769
     26 O           1.5000   -0.2540    0.0000 O.2     1  LIG1       -0.2741
     27 C           1.1880    1.6960    0.0000 C.ar    1  LIG1        0.0608
     28 C           2.0630    1.1830    0.0000 C.ar    1  LIG1        0.0176
     29 C           2.9080    1.6960    0.0000 C.ar    1  LIG1        0.0309
     30 C           2.9080    2.6960    0.0000 C.ar    1  LIG1        0.1402
     31 C           2.0540    3.2000    0.0000 C.ar    1  LIG1        0.0309
     32 C           1.1880    2.6960    0.0000 C.ar    1  LIG1        0.0176
     33 F           3.7670    3.1880    0.0000 F       1  LIG1       -0.2042
@<TRIPOS>BOND
     1     1     2   am
     2     1     9   am
     3     1    27    1
     4     2     3    1
     5     2    26    2
     6     3     4    1
     7     3     8    1
     8     4     5    1
     9     4    12    1
    10     4    21    1
    11     5     6   ar
    12     5    20   ar
    13     6     7    1
    14     6    17   ar
    15     7     8    1
    16     7    11    1
    17     8     9    1
    18     9    10    2
    19    11    12   ar
    20    11    16   ar
    21    12    13   ar
    22    13    14   ar
    23    14    15   ar
    24    15    16   ar
    25    17    18   ar
    26    18    19   ar
    27    19    20   ar
    28    21    22    1
    29    21    24    1
    30    22    23    1
    31    24    25    1
    32    27    28   ar
    33    27    32   ar
    34    28    29   ar
    35    29    30   ar
    36    30    31   ar
    37    30    33    1
    38    31    32   ar
