@<TRIPOS>MOLECULE
25585_ChemDiv_2746-0047
 29 33 0 0 0
SMALL
GASTEIGER
Energy = 0

@<TRIPOS>ATOM
      1 N          -2.9330    0.1250    0.0000 N.am    1  LIG1       -0.2081
      2 C          -3.3460    1.0330    0.0000 C.2     1  LIG1        0.2354
      3 C          -4.3290    0.9250    0.0000 C.3     1  LIG1        0.0903
      4 C          -4.5250   -0.0580    0.0000 C.3     1  LIG1        0.0903
      5 C          -3.6460   -0.5540    0.0000 C.2     1  LIG1        0.2354
      6 O          -3.5080   -1.5420    0.0000 O.2     1  LIG1       -0.2741
      7 C          -5.4670   -0.3790    0.0000 C.3     1  LIG1        0.0311
      8 C          -6.2250    0.2630    0.0000 C.2     1  LIG1       -0.0305
      9 C          -6.0250    1.2290    0.0000 C.2     1  LIG1       -0.0305
     10 C          -5.0920    1.5630    0.0000 C.3     1  LIG1        0.0311
     11 C          -4.9250    0.4540    0.0000 C.3     1  LIG1        0.0096
     12 O          -2.8290    1.9250    0.0000 O.2     1  LIG1       -0.2741
     13 C          -1.9670   -0.1500    0.0000 C.ar    1  LIG1        0.0606
     14 C          -1.2580    0.5500    0.0000 C.ar    1  LIG1        0.0155
     15 C          -0.3170    0.2920    0.0000 C.ar    1  LIG1        0.0059
     16 C          -0.0460   -0.6830    0.0000 C.ar    1  LIG1        0.0555
     17 C           0.9210   -0.9710    0.0000 C.2     1  LIG1        0.2690
     18 N           1.6460   -0.2670    0.0000 N.am    1  LIG1       -0.1754
     19 C           2.5920   -0.5540    0.0000 C.ar    1  LIG1        0.0739
     20 C           2.8290   -1.5080    0.0000 C.ar    1  LIG1        0.0197
     21 C           3.7830   -1.7960    0.0000 C.ar    1  LIG1        0.0382
     22 C           4.4960   -1.1000    0.0000 C.ar    1  LIG1        0.1388
     23 C           4.2540   -0.1290    0.0000 C.ar    1  LIG1        0.0382
     24 C           3.3170    0.1380    0.0000 C.ar    1  LIG1        0.0197
     25 O           5.4670   -1.4000    0.0000 O.3     1  LIG1       -0.4714
     26 C           6.2250   -0.7380    0.0000 C.3     1  LIG1        0.2525
     27 O           1.1500   -1.9210    0.0000 O.2     1  LIG1       -0.2680
     28 C          -0.7420   -1.3710    0.0000 C.ar    1  LIG1        0.0059
     29 C          -1.7170   -1.1000    0.0000 C.ar    1  LIG1        0.0155
@<TRIPOS>BOND
     1     1     2   am
     2     1     5   am
     3     1    13    1
     4     2     3    1
     5     2    12    2
     6     3     4    1
     7     3    10    1
     8     4     5    1
     9     4     7    1
    10     5     6    2
    11     7     8    1
    12     7    11    1
    13     8     9    2
    14     9    10    1
    15    10    11    1
    16    13    14   ar
    17    13    29   ar
    18    14    15   ar
    19    15    16   ar
    20    16    17    1
    21    16    28   ar
    22    17    18   am
    23    17    27    2
    24    18    19    1
    25    19    20   ar
    26    19    24   ar
    27    20    21   ar
    28    21    22   ar
    29    22    23   ar
    30    22    25    1
    31    23    24   ar
    32    25    26    1
    33    28    29   ar
