@<TRIPOS>MOLECULE
25582_ChemDiv_C066-1534
 36 39 0 0 0
SMALL
GASTEIGER
Energy = 0

@<TRIPOS>ATOM
      1 C           2.0750    0.7500    0.0000 C.ar    1  LIG1        0.0711
      2 C           1.2130    1.2500    0.0000 C.ar    1  LIG1        0.0136
      3 C           1.2130    2.2460    0.0000 C.ar    1  LIG1        0.0596
      4 C           2.0750    2.7420    0.0000 C.ar    1  LIG1        0.2609
      5 N           2.9380    2.2460    0.0000 N.ar    1  LIG1       -0.2940
      6 C           2.9380    1.2500    0.0000 C.ar    1  LIG1        0.0828
      7 C           3.8130    2.7420    0.0000 C.3     1  LIG1        0.1090
      8 C           3.8130    3.7420    0.0000 C.3     1  LIG1        0.0227
      9 C           4.8380    3.5290    0.0000 C.3     1  LIG1        0.0020
     10 C           3.5540    4.7330    0.0000 C.3     1  LIG1        0.0020
     11 O           2.0750    3.7420    0.0000 O.2     1  LIG1       -0.2670
     12 C           0.3500    2.7420    0.0000 C.ar    1  LIG1        0.0448
     13 C          -0.5170    2.2460    0.0000 C.ar    1  LIG1        0.1725
     14 C          -0.5170    1.2500    0.0000 C.ar    1  LIG1        0.1724
     15 C           0.3500    0.7500    0.0000 C.ar    1  LIG1        0.0404
     16 O          -1.3880    0.7330    0.0000 O.3     1  LIG1       -0.4684
     17 C          -2.2630    1.2330    0.0000 C.3     1  LIG1        0.2526
     18 O          -1.3880    2.7420    0.0000 O.3     1  LIG1       -0.4684
     19 C          -2.2460    2.2380    0.0000 C.3     1  LIG1        0.2526
     20 C           2.0750   -0.2500    0.0000 C.2     1  LIG1        0.2506
     21 N           1.2130   -0.7460    0.0000 N.am    1  LIG1       -0.2725
     22 C           0.3460   -0.2500    0.0000 C.3     1  LIG1        0.1151
     23 C          -0.5250   -0.7460    0.0000 C.3     1  LIG1        0.1123
     24 N          -0.5250   -1.7420    0.0000 N.pl3   1  LIG1       -0.3041
     25 C          -1.3880   -2.2380    0.0000 C.ar    1  LIG1        0.0479
     26 C          -2.2460   -1.7380    0.0000 C.ar    1  LIG1        0.0146
     27 C          -3.1080   -2.2380    0.0000 C.ar    1  LIG1        0.0041
     28 C          -3.1080   -3.2330    0.0000 C.ar    1  LIG1        0.0348
     29 C          -3.9710   -3.7380    0.0000 C.2     1  LIG1        0.1735
     30 O          -4.8420   -3.2380    0.0000 O.2     1  LIG1       -0.2913
     31 C          -3.9710   -4.7330    0.0000 C.3     1  LIG1        0.0773
     32 C          -2.2380   -3.7290    0.0000 C.ar    1  LIG1        0.0041
     33 C          -1.3880   -3.2330    0.0000 C.ar    1  LIG1        0.0146
     34 C           0.3380   -2.2420    0.0000 C.3     1  LIG1        0.1123
     35 C           1.1960   -1.7420    0.0000 C.3     1  LIG1        0.1151
     36 O           2.9380   -0.7460    0.0000 O.2     1  LIG1       -0.2699
@<TRIPOS>BOND
     1     1     2   ar
     2     1     6   ar
     3     1    20    1
     4     2     3   ar
     5     2    15   ar
     6     3     4   ar
     7     3    12   ar
     8     4     5   ar
     9     4    11    2
    10     5     6   ar
    11     5     7    1
    12     7     8    1
    13     8     9    1
    14     8    10    1
    15    12    13   ar
    16    13    14   ar
    17    13    18    1
    18    14    15   ar
    19    14    16    1
    20    16    17    1
    21    18    19    1
    22    20    21   am
    23    20    36    2
    24    21    22    1
    25    21    35    1
    26    22    23    1
    27    23    24    1
    28    24    25    1
    29    24    34    1
    30    25    26   ar
    31    25    33   ar
    32    26    27   ar
    33    27    28   ar
    34    28    29    1
    35    28    32   ar
    36    29    30    2
    37    29    31    1
    38    32    33   ar
    39    34    35    1
