@<TRIPOS>MOLECULE
25584_ChemDiv_C066-4017
 18 20 0 0 0
SMALL
GASTEIGER
Energy = 0

@<TRIPOS>ATOM
      1 C           0.4080    0.0040    0.0000 C.ar    1  LIG1        0.0724
      2 C           1.2460    0.4830    0.0000 C.ar    1  LIG1        0.0829
      3 N           1.2460    1.4540    0.0000 N.ar    1  LIG1       -0.2920
      4 C           0.4080    1.9380    0.0000 C.ar    1  LIG1        0.2609
      5 C          -0.4290    1.4540    0.0000 C.ar    1  LIG1        0.0564
      6 C          -0.4290    0.4830    0.0000 C.ar    1  LIG1        0.0105
      7 C          -1.2580    0.0040    0.0000 C.ar    1  LIG1        0.0003
      8 C          -2.0920    0.4830    0.0000 C.ar    1  LIG1        0.0000
      9 C          -2.0920    1.4460    0.0000 C.ar    1  LIG1        0.0002
     10 C          -1.2580    1.9380    0.0000 C.ar    1  LIG1        0.0047
     11 O           0.4080    2.9000    0.0000 O.2     1  LIG1       -0.2670
     12 C           2.0880    1.9380    0.0000 C.3     1  LIG1        0.1336
     13 C           0.4080   -0.9630    0.0000 C.2     1  LIG1        0.2662
     14 N           1.2460   -1.4420    0.0000 N.am    1  LIG1       -0.2034
     15 C           1.2460   -2.4170    0.0000 C.3     1  LIG1        0.0957
     16 C           0.4080   -2.8920    0.0000 C.3     1  LIG1        0.0234
     17 C           2.0750   -2.8960    0.0000 C.3     1  LIG1        0.0234
     18 O          -0.4290   -1.4420    0.0000 O.2     1  LIG1       -0.2683
@<TRIPOS>BOND
     1     1     2   ar
     2     1     6   ar
     3     1    13    1
     4     2     3   ar
     5     3     4   ar
     6     3    12    1
     7     4     5   ar
     8     4    11    2
     9     5     6   ar
    10     5    10   ar
    11     6     7   ar
    12     7     8   ar
    13     8     9   ar
    14     9    10   ar
    15    13    14   am
    16    13    18    2
    17    14    15    1
    18    15    16    1
    19    15    17    1
    20    16    17    1
