@<TRIPOS>MOLECULE
25587_ChemDiv_2746-0342
 30 34 0 0 0
SMALL
GASTEIGER
Energy = 0

@<TRIPOS>ATOM
      1 N           2.5250    1.3420    0.0000 N.am    1  LIG1       -0.2081
      2 C           2.1130    2.2210    0.0000 C.2     1  LIG1        0.2354
      3 C           2.8420    2.8790    0.0000 C.3     1  LIG1        0.0903
      4 C           3.6960    2.4000    0.0000 C.3     1  LIG1        0.0903
      5 C           3.4960    1.4210    0.0000 C.2     1  LIG1        0.2354
      6 O           4.1500    0.6710    0.0000 O.2     1  LIG1       -0.2741
      7 C           4.5460    2.8790    0.0000 C.3     1  LIG1        0.0311
      8 C           4.5460    3.8790    0.0000 C.2     1  LIG1       -0.0305
      9 C           3.6960    4.3630    0.0000 C.2     1  LIG1       -0.0305
     10 C           2.8420    3.8790    0.0000 C.3     1  LIG1        0.0311
     11 C           3.4040    2.9670    0.0000 C.3     1  LIG1        0.0096
     12 O           1.1080    2.3750    0.0000 O.2     1  LIG1       -0.2741
     13 C           2.1130    0.4460    0.0000 C.ar    1  LIG1        0.0608
     14 C           1.1080    0.3500    0.0000 C.ar    1  LIG1        0.0199
     15 C           0.6960   -0.5500    0.0000 C.ar    1  LIG1        0.0566
     16 C          -0.3210   -0.6500    0.0000 C.2     1  LIG1        0.2690
     17 N          -0.7380   -1.5790    0.0000 N.am    1  LIG1       -0.1754
     18 C          -1.7380   -1.6460    0.0000 C.ar    1  LIG1        0.0737
     19 C          -2.1460   -2.5500    0.0000 C.ar    1  LIG1        0.0177
     20 C          -3.1500   -2.6500    0.0000 C.ar    1  LIG1        0.0153
     21 C          -3.5630   -3.5290    0.0000 C.2     1  LIG1        0.0729
     22 O          -3.0290   -4.3630    0.0000 O.co2   1  LIG1       -0.5446
     23 O          -4.5500   -3.6460    0.0000 O.co2   1  LIG1       -0.5446
     24 C          -3.7040   -1.8210    0.0000 C.ar    1  LIG1        0.0012
     25 C          -3.2920   -0.9130    0.0000 C.ar    1  LIG1        0.0014
     26 C          -2.3000   -0.8460    0.0000 C.ar    1  LIG1        0.0166
     27 O          -0.8830    0.1830    0.0000 O.2     1  LIG1       -0.2680
     28 C           1.2630   -1.3540    0.0000 C.ar    1  LIG1        0.0047
     29 C           2.2580   -1.2790    0.0000 C.ar    1  LIG1        0.0014
     30 C           2.6710   -0.3790    0.0000 C.ar    1  LIG1        0.0153
@<TRIPOS>BOND
     1     1     2   am
     2     1     5   am
     3     1    13    1
     4     2     3    1
     5     2    12    2
     6     3     4    1
     7     3    10    1
     8     4     5    1
     9     4     7    1
    10     5     6    2
    11     7     8    1
    12     7    11    1
    13     8     9    2
    14     9    10    1
    15    10    11    1
    16    13    14   ar
    17    13    30   ar
    18    14    15   ar
    19    15    16    1
    20    15    28   ar
    21    16    17   am
    22    16    27    2
    23    17    18    1
    24    18    19   ar
    25    18    26   ar
    26    19    20   ar
    27    20    21    1
    28    20    24   ar
    29    21    22   ar
    30    21    23   ar
    31    24    25   ar
    32    25    26   ar
    33    28    29   ar
    34    29    30   ar
