@<TRIPOS>MOLECULE
25580_ChemDiv_C066-1501
 34 36 0 0 0
SMALL
GASTEIGER
Energy = 0

@<TRIPOS>ATOM
      1 C           0.8670    1.4000    0.0000 C.ar    1  LIG1        0.0714
      2 C           0.0040    1.9000    0.0000 C.ar    1  LIG1        0.0136
      3 C           0.0040    2.9000    0.0000 C.ar    1  LIG1        0.0596
      4 C           0.8670    3.4000    0.0000 C.ar    1  LIG1        0.2609
      5 N           1.7290    2.9000    0.0000 N.ar    1  LIG1       -0.2940
      6 C           1.7290    1.9000    0.0000 C.ar    1  LIG1        0.0828
      7 C           2.6080    3.4000    0.0000 C.3     1  LIG1        0.1090
      8 C           2.6080    4.3960    0.0000 C.3     1  LIG1        0.0227
      9 C           3.4750    4.8960    0.0000 C.3     1  LIG1        0.0020
     10 C           1.9830    5.1130    0.0000 C.3     1  LIG1        0.0020
     11 O           0.8670    4.3960    0.0000 O.2     1  LIG1       -0.2670
     12 C          -0.8580    3.4000    0.0000 C.ar    1  LIG1        0.0448
     13 C          -1.7290    2.9000    0.0000 C.ar    1  LIG1        0.1725
     14 C          -1.7290    1.9000    0.0000 C.ar    1  LIG1        0.1724
     15 C          -0.8580    1.4000    0.0000 C.ar    1  LIG1        0.0404
     16 O          -2.6000    1.3920    0.0000 O.3     1  LIG1       -0.4684
     17 C          -3.4790    1.8880    0.0000 C.3     1  LIG1        0.2526
     18 O          -2.6000    3.4000    0.0000 O.3     1  LIG1       -0.4684
     19 C          -3.4670    2.9000    0.0000 C.3     1  LIG1        0.2526
     20 C           0.8670    0.4000    0.0000 C.2     1  LIG1        0.2543
     21 N           0.0040   -0.1000    0.0000 N.am    1  LIG1       -0.2507
     22 C           0.0040   -1.1000    0.0000 C.ar    1  LIG1        0.0893
     23 C           0.8830   -1.6000    0.0000 C.ar    1  LIG1        0.0324
     24 C           0.8830   -2.5960    0.0000 C.ar    1  LIG1        0.0930
     25 C           0.0170   -3.1130    0.0000 C.ar    1  LIG1        0.1523
     26 C          -0.8580   -2.6130    0.0000 C.ar    1  LIG1        0.0759
     27 C          -0.8670   -1.6080    0.0000 C.ar    1  LIG1        0.1553
     28 O          -1.7210   -1.1130    0.0000 O.3     1  LIG1       -0.4701
     29 C          -2.5920   -1.6130    0.0000 C.3     1  LIG1        0.2525
     30 O           0.0040   -4.1130    0.0000 O.3     1  LIG1       -0.4705
     31 C           0.0000   -5.1130    0.0000 C.3     1  LIG1        0.2525
     32 CL          1.7460   -3.0960    0.0000 Cl      1  LIG1       -0.0790
     33 C          -0.8670    0.4000    0.0000 C.3     1  LIG1        0.1204
     34 O           1.7290   -0.1000    0.0000 O.2     1  LIG1       -0.2695
@<TRIPOS>BOND
     1     1     2   ar
     2     1     6   ar
     3     1    20    1
     4     2     3   ar
     5     2    15   ar
     6     3     4   ar
     7     3    12   ar
     8     4     5   ar
     9     4    11    2
    10     5     6   ar
    11     5     7    1
    12     7     8    1
    13     8     9    1
    14     8    10    1
    15    12    13   ar
    16    13    14   ar
    17    13    18    1
    18    14    15   ar
    19    14    16    1
    20    16    17    1
    21    18    19    1
    22    20    21   am
    23    20    34    2
    24    21    22    1
    25    21    33    1
    26    22    23   ar
    27    22    27   ar
    28    23    24   ar
    29    24    25   ar
    30    24    32    1
    31    25    26   ar
    32    25    30    1
    33    26    27   ar
    34    27    28    1
    35    28    29    1
    36    30    31    1
