@<TRIPOS>MOLECULE
25592_ChemDiv_8007-0539
 31 36 0 0 0
SMALL
GASTEIGER
Energy = 0

@<TRIPOS>ATOM
      1 N           0.0750    0.8080    0.0000 N.am    1  LIG1       -0.2081
      2 C           0.0750   -0.1830    0.0000 C.2     1  LIG1        0.2357
      3 C           1.0040   -0.5210    0.0000 C.3     1  LIG1        0.0941
      4 C           1.7000   -1.8250    0.0000 C.3     1  LIG1        0.0458
      5 C           0.8670   -2.3210    0.0000 C.ar    1  LIG1       -0.0222
      6 C           0.8670   -1.3790    0.0000 C.ar    1  LIG1       -0.0222
      7 C           1.6710   -0.9080    0.0000 C.3     1  LIG1        0.0458
      8 C           1.6710    0.3040    0.0000 C.3     1  LIG1        0.0941
      9 C           1.0960    1.1290    0.0000 C.2     1  LIG1        0.2357
     10 O           1.4210    2.0580    0.0000 O.2     1  LIG1       -0.2741
     11 C           2.5500   -1.3460    0.0000 C.ar    1  LIG1       -0.0222
     12 C           2.5500   -2.2960    0.0000 C.ar    1  LIG1       -0.0222
     13 C           3.3670   -2.7670    0.0000 C.ar    1  LIG1       -0.0043
     14 C           4.2000   -2.2960    0.0000 C.ar    1  LIG1       -0.0003
     15 C           4.2000   -1.3460    0.0000 C.ar    1  LIG1       -0.0003
     16 C           3.3670   -0.8920    0.0000 C.ar    1  LIG1       -0.0043
     17 C           2.5710   -0.3130    0.0000 C.3     1  LIG1        0.0092
     18 C           0.0500   -0.9000    0.0000 C.ar    1  LIG1       -0.0043
     19 C          -0.7630   -1.3790    0.0000 C.ar    1  LIG1       -0.0003
     20 C          -0.7630   -2.3210    0.0000 C.ar    1  LIG1       -0.0003
     21 C           0.0500   -2.7920    0.0000 C.ar    1  LIG1       -0.0043
     22 C           1.7000   -2.8210    0.0000 C.3     1  LIG1        0.0092
     23 O          -0.8250   -0.6790    0.0000 O.2     1  LIG1       -0.2741
     24 C          -0.7960    1.3580    0.0000 C.ar    1  LIG1        0.0608
     25 C          -1.6540    0.8420    0.0000 C.ar    1  LIG1        0.0184
     26 C          -2.4790    1.3380    0.0000 C.ar    1  LIG1        0.0382
     27 C          -2.4790    2.3210    0.0000 C.ar    1  LIG1        0.1388
     28 C          -1.6540    2.8210    0.0000 C.ar    1  LIG1        0.0382
     29 C          -0.7960    2.3420    0.0000 C.ar    1  LIG1        0.0184
     30 O          -3.3420    2.8250    0.0000 O.3     1  LIG1       -0.4714
     31 C          -4.2040    2.3420    0.0000 C.3     1  LIG1        0.2525
@<TRIPOS>BOND
     1     1     2   am
     2     1     9   am
     3     1    24    1
     4     2     3    1
     5     2    23    2
     6     3     4    1
     7     3     8    1
     8     4     5    1
     9     4    12    1
    10     4    22    1
    11     5     6   ar
    12     5    21   ar
    13     6     7    1
    14     6    18   ar
    15     7     8    1
    16     7    11    1
    17     7    17    1
    18     8     9    1
    19     9    10    2
    20    11    12   ar
    21    11    16   ar
    22    12    13   ar
    23    13    14   ar
    24    14    15   ar
    25    15    16   ar
    26    18    19   ar
    27    19    20   ar
    28    20    21   ar
    29    24    25   ar
    30    24    29   ar
    31    25    26   ar
    32    26    27   ar
    33    27    28   ar
    34    27    30    1
    35    28    29   ar
    36    30    31    1
