@<TRIPOS>MOLECULE
25594_ChemDiv_8007-0740
 31 36 0 0 0
SMALL
GASTEIGER
Energy = 0

@<TRIPOS>ATOM
      1 N          -0.7880    0.8040    0.0000 N.am    1  LIG1       -0.2051
      2 C          -0.7880   -0.1880    0.0000 C.2     1  LIG1        0.2358
      3 C           0.1420   -0.5250    0.0000 C.3     1  LIG1        0.0941
      4 C           0.8420   -1.8330    0.0000 C.3     1  LIG1        0.0458
      5 C           0.0040   -2.3330    0.0000 C.ar    1  LIG1       -0.0222
      6 C           0.0040   -1.3880    0.0000 C.ar    1  LIG1       -0.0216
      7 C           0.8130   -0.9130    0.0000 C.3     1  LIG1        0.0531
      8 C           0.8130    0.3040    0.0000 C.3     1  LIG1        0.0947
      9 C           0.2290    1.1250    0.0000 C.2     1  LIG1        0.2359
     10 O           0.5580    2.0630    0.0000 O.2     1  LIG1       -0.2741
     11 C           1.6960   -1.3500    0.0000 C.ar    1  LIG1       -0.0216
     12 C           1.6960   -2.3040    0.0000 C.ar    1  LIG1       -0.0222
     13 C           2.5130   -2.7790    0.0000 C.ar    1  LIG1       -0.0043
     14 C           3.3500   -2.3040    0.0000 C.ar    1  LIG1       -0.0003
     15 C           3.3500   -1.3500    0.0000 C.ar    1  LIG1       -0.0003
     16 C           2.5130   -0.8960    0.0000 C.ar    1  LIG1       -0.0042
     17 C          -0.8130   -0.9040    0.0000 C.ar    1  LIG1       -0.0042
     18 C          -1.6290   -1.3880    0.0000 C.ar    1  LIG1       -0.0003
     19 C          -1.6290   -2.3330    0.0000 C.ar    1  LIG1       -0.0003
     20 C          -0.8130   -2.8040    0.0000 C.ar    1  LIG1       -0.0043
     21 C           0.8420   -2.8290    0.0000 C.3     1  LIG1        0.0092
     22 O          -1.6880   -0.6880    0.0000 O.2     1  LIG1       -0.2741
     23 C          -1.6540    1.3540    0.0000 C.ar    1  LIG1        0.0945
     24 C          -1.6540    2.3460    0.0000 C.ar    1  LIG1        0.1525
     25 O          -0.8040    2.8330    0.0000 O.3     1  LIG1       -0.4742
     26 C           0.0500    2.3460    0.0000 C.3     1  LIG1        0.2056
     27 C           0.9210    2.8330    0.0000 C.3     1  LIG1        0.0512
     28 C          -2.5290    2.8250    0.0000 C.ar    1  LIG1        0.0382
     29 C          -3.3540    2.3250    0.0000 C.ar    1  LIG1        0.0032
     30 C          -3.3540    1.3330    0.0000 C.ar    1  LIG1        0.0015
     31 C          -2.5290    0.8380    0.0000 C.ar    1  LIG1        0.0184
@<TRIPOS>BOND
     1     1     2   am
     2     1     9   am
     3     1    23    1
     4     2     3    1
     5     2    22    2
     6     3     4    1
     7     3     8    1
     8     4     5    1
     9     4    12    1
    10     4    21    1
    11     5     6   ar
    12     5    20   ar
    13     6     7    1
    14     6    17   ar
    15     7     8    1
    16     7    11    1
    17     8     9    1
    18     9    10    2
    19    11    12   ar
    20    11    16   ar
    21    12    13   ar
    22    13    14   ar
    23    14    15   ar
    24    15    16   ar
    25    17    18   ar
    26    18    19   ar
    27    19    20   ar
    28    23    24   ar
    29    23    31   ar
    30    24    25    1
    31    24    28   ar
    32    25    26    1
    33    26    27    1
    34    28    29   ar
    35    29    30   ar
    36    30    31   ar
