@<TRIPOS>MOLECULE
25593_ChemDiv_3226-1596
 33 37 0 0 0
SMALL
GASTEIGER
Energy = 0

@<TRIPOS>ATOM
      1 N          -2.6250    0.8540    0.0000 N.am    1  LIG1       -0.2081
      2 C          -3.1830    1.6580    0.0000 C.2     1  LIG1        0.2354
      3 C          -4.1580    1.3670    0.0000 C.3     1  LIG1        0.0903
      4 C          -4.1670    0.3710    0.0000 C.3     1  LIG1        0.0903
      5 C          -3.2080    0.0580    0.0000 C.2     1  LIG1        0.2354
      6 O          -2.9080   -0.9040    0.0000 O.2     1  LIG1       -0.2741
      7 C          -5.0330   -0.0540    0.0000 C.3     1  LIG1        0.0311
      8 C          -5.9040    0.3960    0.0000 C.2     1  LIG1       -0.0305
      9 C          -5.8960    1.3790    0.0000 C.2     1  LIG1       -0.0305
     10 C          -5.0170    1.8830    0.0000 C.3     1  LIG1        0.0311
     11 C          -4.7630    0.9170    0.0000 C.3     1  LIG1        0.0096
     12 O          -2.8460    2.6130    0.0000 O.2     1  LIG1       -0.2741
     13 C          -1.6170    0.8540    0.0000 C.ar    1  LIG1        0.0606
     14 C          -1.1040    1.7290    0.0000 C.ar    1  LIG1        0.0155
     15 C          -0.1000    1.7290    0.0000 C.ar    1  LIG1        0.0059
     16 C           0.3710    0.8540    0.0000 C.ar    1  LIG1        0.0555
     17 C           1.3830    0.8540    0.0000 C.2     1  LIG1        0.2690
     18 N           1.8920    0.0040    0.0000 N.am    1  LIG1       -0.1754
     19 C           2.8880    0.0040    0.0000 C.ar    1  LIG1        0.0737
     20 C           3.3880    0.8710    0.0000 C.ar    1  LIG1        0.0177
     21 C           4.3790    0.8710    0.0000 C.ar    1  LIG1        0.0153
     22 C           4.8790    1.7460    0.0000 C.2     1  LIG1        0.0729
     23 O           4.3670    2.6130    0.0000 O.co2   1  LIG1       -0.5446
     24 O           5.8790    1.7460    0.0000 O.co2   1  LIG1       -0.5446
     25 C           4.8920    0.0040    0.0000 C.ar    1  LIG1        0.0023
     26 C           4.3790   -0.8500    0.0000 C.ar    1  LIG1        0.0153
     27 C           4.8920   -1.7170    0.0000 C.2     1  LIG1        0.0729
     28 O           5.9000   -1.7290    0.0000 O.co2   1  LIG1       -0.5446
     29 O           4.3960   -2.6080    0.0000 O.co2   1  LIG1       -0.5446
     30 C           3.3880   -0.8670    0.0000 C.ar    1  LIG1        0.0177
     31 O           1.8750    1.7290    0.0000 O.2     1  LIG1       -0.2680
     32 C          -0.1130    0.0000    0.0000 C.ar    1  LIG1        0.0059
     33 C          -1.1210    0.0000    0.0000 C.ar    1  LIG1        0.0155
@<TRIPOS>BOND
     1     1     2   am
     2     1     5   am
     3     1    13    1
     4     2     3    1
     5     2    12    2
     6     3     4    1
     7     3    10    1
     8     4     5    1
     9     4     7    1
    10     5     6    2
    11     7     8    1
    12     7    11    1
    13     8     9    2
    14     9    10    1
    15    10    11    1
    16    13    14   ar
    17    13    33   ar
    18    14    15   ar
    19    15    16   ar
    20    16    17    1
    21    16    32   ar
    22    17    18   am
    23    17    31    2
    24    18    19    1
    25    19    20   ar
    26    19    30   ar
    27    20    21   ar
    28    21    22    1
    29    21    25   ar
    30    22    23   ar
    31    22    24   ar
    32    25    26   ar
    33    26    27    1
    34    26    30   ar
    35    27    28   ar
    36    27    29   ar
    37    32    33   ar
