@<TRIPOS>MOLECULE
25599_ChemDiv_3668-0151
 27 31 0 0 0
SMALL
GASTEIGER
Energy = 0

@<TRIPOS>ATOM
      1 N          -1.9670    0.0250    0.0000 N.am    1  LIG1       -0.2081
      2 C          -2.5500    0.8250    0.0000 C.2     1  LIG1        0.2354
      3 C          -3.5000    0.5210    0.0000 C.3     1  LIG1        0.0903
      4 C          -3.5080   -0.4750    0.0000 C.3     1  LIG1        0.0903
      5 C          -2.5500   -0.7830    0.0000 C.2     1  LIG1        0.2354
      6 O          -2.2500   -1.7420    0.0000 O.2     1  LIG1       -0.2741
      7 C          -4.3670   -0.9750    0.0000 C.3     1  LIG1        0.0311
      8 C          -5.2330   -0.4670    0.0000 C.2     1  LIG1       -0.0305
      9 C          -5.2210    0.5250    0.0000 C.2     1  LIG1       -0.0305
     10 C          -4.3540    1.0130    0.0000 C.3     1  LIG1        0.0311
     11 C          -4.1000    0.0500    0.0000 C.3     1  LIG1        0.0096
     12 O          -2.2500    1.7830    0.0000 O.2     1  LIG1       -0.2741
     13 C          -1.0130   -0.2790    0.0000 C.ar    1  LIG1        0.0608
     14 C          -0.2710    0.3920    0.0000 C.ar    1  LIG1        0.0184
     15 C           0.6790    0.0880    0.0000 C.ar    1  LIG1        0.0388
     16 C           0.8880   -0.8830    0.0000 C.ar    1  LIG1        0.1454
     17 O           1.8460   -1.1790    0.0000 O.3     1  LIG1       -0.4538
     18 C           2.5830   -0.5170    0.0000 C.ar    1  LIG1        0.1410
     19 C           3.5330   -0.8080    0.0000 C.ar    1  LIG1        0.0088
     20 C           4.2710   -0.1210    0.0000 C.ar    1  LIG1       -0.0229
     21 C           4.0460    0.8380    0.0000 C.ar    1  LIG1       -0.0044
     22 C           3.0960    1.1420    0.0000 C.ar    1  LIG1        0.0028
     23 C           2.3580    0.4630    0.0000 C.ar    1  LIG1        0.0371
     24 C           5.2290   -0.4250    0.0000 C.3     1  LIG1        0.0308
     25 C           3.7580   -1.7790    0.0000 C.3     1  LIG1        0.0339
     26 C           0.1460   -1.5580    0.0000 C.ar    1  LIG1        0.0388
     27 C          -0.8000   -1.2540    0.0000 C.ar    1  LIG1        0.0184
@<TRIPOS>BOND
     1     1     2   am
     2     1     5   am
     3     1    13    1
     4     2     3    1
     5     2    12    2
     6     3     4    1
     7     3    10    1
     8     4     5    1
     9     4     7    1
    10     5     6    2
    11     7     8    1
    12     7    11    1
    13     8     9    2
    14     9    10    1
    15    10    11    1
    16    13    14   ar
    17    13    27   ar
    18    14    15   ar
    19    15    16   ar
    20    16    17    1
    21    16    26   ar
    22    17    18    1
    23    18    19   ar
    24    18    23   ar
    25    19    20   ar
    26    19    25    1
    27    20    21   ar
    28    20    24    1
    29    21    22   ar
    30    22    23   ar
    31    26    27   ar
