@<TRIPOS>MOLECULE
25596_ChemDiv_8008-1659
 31 36 0 0 0
SMALL
GASTEIGER
Energy = 0

@<TRIPOS>ATOM
      1 N           0.0170   -0.6880    0.0000 N.am    1  LIG1       -0.2081
      2 C          -0.3290    0.2670    0.0000 C.2     1  LIG1        0.2358
      3 C          -1.3500    0.0830    0.0000 C.3     1  LIG1        0.0947
      4 C          -1.5630   -0.6130    0.0000 C.3     1  LIG1        0.0947
      5 C          -0.7420   -1.3040    0.0000 C.2     1  LIG1        0.2358
      6 O          -0.7080   -2.2880    0.0000 O.2     1  LIG1       -0.2741
      7 C          -2.7710   -0.3290    0.0000 C.3     1  LIG1        0.0531
      8 C          -4.1080   -1.2670    0.0000 C.ar    1  LIG1       -0.0216
      9 C          -3.8750   -0.4960    0.0000 C.ar    1  LIG1       -0.0216
     10 C          -2.6540    0.4040    0.0000 C.3     1  LIG1        0.0531
     11 C          -3.1170    1.2710    0.0000 C.ar    1  LIG1       -0.0216
     12 C          -3.7080    0.6790    0.0000 C.ar    1  LIG1       -0.0216
     13 C          -4.5130    0.9420    0.0000 C.ar    1  LIG1       -0.0042
     14 C          -4.7040    1.7330    0.0000 C.ar    1  LIG1       -0.0003
     15 C          -4.0880    2.2920    0.0000 C.ar    1  LIG1       -0.0003
     16 C          -3.3080    2.0540    0.0000 C.ar    1  LIG1       -0.0042
     17 C          -4.5210    0.1710    0.0000 C.ar    1  LIG1       -0.0042
     18 C          -5.3170    0.0170    0.0000 C.ar    1  LIG1       -0.0003
     19 C          -5.5290   -0.8540    0.0000 C.ar    1  LIG1       -0.0003
     20 C          -4.9040   -1.4580    0.0000 C.ar    1  LIG1       -0.0042
     21 O           0.1710    1.1210    0.0000 O.2     1  LIG1       -0.2741
     22 C           0.9750   -0.9710    0.0000 C.ar    1  LIG1        0.0607
     23 C           1.2040   -1.9540    0.0000 C.ar    1  LIG1        0.0167
     24 C           2.1880   -2.2500    0.0000 C.ar    1  LIG1        0.0179
     25 C           2.9130   -1.5670    0.0000 C.ar    1  LIG1        0.0734
     26 N           3.8580   -1.8630    0.0000 N.am    1  LIG1       -0.1792
     27 C           4.6000   -1.2080    0.0000 C.2     1  LIG1        0.2461
     28 O           4.3710   -0.2460    0.0000 O.2     1  LIG1       -0.2730
     29 C           5.5250   -1.5290    0.0000 C.3     1  LIG1        0.0968
     30 C           2.6750   -0.5710    0.0000 C.ar    1  LIG1        0.0179
     31 C           1.7170   -0.2830    0.0000 C.ar    1  LIG1        0.0167
@<TRIPOS>BOND
     1     1     2   am
     2     1     5   am
     3     1    22    1
     4     2     3    1
     5     2    21    2
     6     3     4    1
     7     3    10    1
     8     4     5    1
     9     4     7    1
    10     5     6    2
    11     7     8    1
    12     7    12    1
    13     8     9   ar
    14     8    20   ar
    15     9    10    1
    16     9    17   ar
    17    10    11    1
    18    11    12   ar
    19    11    16   ar
    20    12    13   ar
    21    13    14   ar
    22    14    15   ar
    23    15    16   ar
    24    17    18   ar
    25    18    19   ar
    26    19    20   ar
    27    22    23   ar
    28    22    31   ar
    29    23    24   ar
    30    24    25   ar
    31    25    26    1
    32    25    30   ar
    33    26    27   am
    34    27    28    2
    35    27    29    1
    36    30    31   ar
