@<TRIPOS>MOLECULE
25597_ChemDiv_3379-1402
 28 32 0 0 0
SMALL
GASTEIGER
Energy = 0

@<TRIPOS>ATOM
      1 N          -0.6250   -0.8580    0.0000 N.am    1  LIG1       -0.2081
      2 C          -1.2000   -1.6670    0.0000 C.2     1  LIG1        0.2354
      3 C          -2.1460   -1.3500    0.0000 C.3     1  LIG1        0.0903
      4 C          -2.1460   -0.3750    0.0000 C.3     1  LIG1        0.0903
      5 C          -1.2000   -0.0750    0.0000 C.2     1  LIG1        0.2354
      6 O          -0.8960    0.8920    0.0000 O.2     1  LIG1       -0.2741
      7 C          -3.0040    0.1380    0.0000 C.3     1  LIG1        0.0311
      8 C          -3.8540   -0.3750    0.0000 C.2     1  LIG1       -0.0305
      9 C          -3.8540   -1.3500    0.0000 C.2     1  LIG1       -0.0305
     10 C          -3.0040   -1.8500    0.0000 C.3     1  LIG1        0.0311
     11 C          -2.4920   -0.7830    0.0000 C.3     1  LIG1        0.0096
     12 O          -0.8960   -2.5920    0.0000 O.2     1  LIG1       -0.2741
     13 C           0.3670   -0.8580    0.0000 C.ar    1  LIG1        0.0606
     14 C           0.8540   -1.7130    0.0000 C.ar    1  LIG1        0.0155
     15 C           1.8630   -1.7130    0.0000 C.ar    1  LIG1        0.0059
     16 C           2.3580   -0.8580    0.0000 C.ar    1  LIG1        0.0555
     17 C           3.3460   -0.8580    0.0000 C.2     1  LIG1        0.2690
     18 N           3.8420    0.0170    0.0000 N.am    1  LIG1       -0.1755
     19 C           3.3460    0.8670    0.0000 C.ar    1  LIG1        0.0734
     20 C           2.3580    0.8670    0.0000 C.ar    1  LIG1        0.0124
     21 C           1.8500    1.7250    0.0000 C.ar    1  LIG1       -0.0206
     22 C           2.3420    2.5960    0.0000 C.ar    1  LIG1       -0.0042
     23 C           3.3460    2.5960    0.0000 C.ar    1  LIG1        0.0010
     24 C           3.8420    1.7380    0.0000 C.ar    1  LIG1        0.0166
     25 C           0.8500    1.7210    0.0000 C.3     1  LIG1        0.0311
     26 O           3.8500   -1.7040    0.0000 O.2     1  LIG1       -0.2680
     27 C           1.8500    0.0000    0.0000 C.ar    1  LIG1        0.0059
     28 C           0.8540    0.0000    0.0000 C.ar    1  LIG1        0.0155
@<TRIPOS>BOND
     1     1     2   am
     2     1     5   am
     3     1    13    1
     4     2     3    1
     5     2    12    2
     6     3     4    1
     7     3    10    1
     8     4     5    1
     9     4     7    1
    10     5     6    2
    11     7     8    1
    12     7    11    1
    13     8     9    2
    14     9    10    1
    15    10    11    1
    16    13    14   ar
    17    13    28   ar
    18    14    15   ar
    19    15    16   ar
    20    16    17    1
    21    16    27   ar
    22    17    18   am
    23    17    26    2
    24    18    19    1
    25    19    20   ar
    26    19    24   ar
    27    20    21   ar
    28    21    22   ar
    29    21    25    1
    30    22    23   ar
    31    23    24   ar
    32    27    28   ar
