@<TRIPOS>MOLECULE
25591_ChemDiv_3043-0022
 26 29 0 0 0
SMALL
GASTEIGER
Energy = 0

@<TRIPOS>ATOM
      1 N          -0.6420    0.0170    0.0000 N.am    1  LIG1       -0.2081
      2 C          -1.2170    0.7830    0.0000 C.2     1  LIG1        0.2354
      3 C          -2.1460    0.4920    0.0000 C.3     1  LIG1        0.0903
      4 C          -2.1460   -0.4920    0.0000 C.3     1  LIG1        0.0903
      5 C          -1.2130   -0.8000    0.0000 C.2     1  LIG1        0.2354
      6 O          -0.8830   -1.7460    0.0000 O.2     1  LIG1       -0.2741
      7 C          -3.0130   -0.9830    0.0000 C.3     1  LIG1        0.0311
      8 C          -3.8500   -0.5000    0.0000 C.2     1  LIG1       -0.0305
      9 C          -3.8500    0.4790    0.0000 C.2     1  LIG1       -0.0305
     10 C          -3.0130    0.9750    0.0000 C.3     1  LIG1        0.0311
     11 C          -2.4540    0.0380    0.0000 C.3     1  LIG1        0.0096
     12 O          -0.9080    1.7420    0.0000 O.2     1  LIG1       -0.2741
     13 C           0.3540    0.0170    0.0000 C.ar    1  LIG1        0.0611
     14 C           0.8580   -0.8460    0.0000 C.ar    1  LIG1        0.0218
     15 C           1.8420   -0.8460    0.0000 C.ar    1  LIG1        0.0771
     16 C           2.3460   -1.7250    0.0000 C.2     1  LIG1        0.3414
     17 O           1.8630   -2.5830    0.0000 O.2     1  LIG1       -0.2449
     18 O           3.3540   -1.7250    0.0000 O.3     1  LIG1       -0.4413
     19 C           3.8500   -2.5880    0.0000 C.3     1  LIG1        0.2560
     20 C           2.3460    0.0040    0.0000 C.ar    1  LIG1        0.0130
     21 C           1.8290    0.8580    0.0000 C.ar    1  LIG1        0.0771
     22 C           2.3170    1.7290    0.0000 C.2     1  LIG1        0.3414
     23 O           1.8080    2.5920    0.0000 O.2     1  LIG1       -0.2449
     24 O           3.3170    1.7290    0.0000 O.3     1  LIG1       -0.4413
     25 C           3.8170    2.5920    0.0000 C.3     1  LIG1        0.2560
     26 C           0.8380    0.8580    0.0000 C.ar    1  LIG1        0.0218
@<TRIPOS>BOND
     1     1     2   am
     2     1     5   am
     3     1    13    1
     4     2     3    1
     5     2    12    2
     6     3     4    1
     7     3    10    1
     8     4     5    1
     9     4     7    1
    10     5     6    2
    11     7     8    1
    12     7    11    1
    13     8     9    2
    14     9    10    1
    15    10    11    1
    16    13    14   ar
    17    13    26   ar
    18    14    15   ar
    19    15    16    1
    20    15    20   ar
    21    16    17    2
    22    16    18    1
    23    18    19    1
    24    20    21   ar
    25    21    22    1
    26    21    26   ar
    27    22    23    2
    28    22    24    1
    29    24    25    1
