@<TRIPOS>MOLECULE
25598_ChemDiv_8008-7592
 31 36 0 0 0
SMALL
GASTEIGER
Energy = 0

@<TRIPOS>ATOM
      1 N           0.3000    0.5920    0.0000 N.am    1  LIG1       -0.2073
      2 C          -0.5210    1.1210    0.0000 C.2     1  LIG1        0.2359
      3 C          -1.2380    0.2920    0.0000 C.3     1  LIG1        0.0966
      4 C          -2.4210    0.0750    0.0000 C.3     1  LIG1        0.0763
      5 C          -3.0250    1.3170    0.0000 C.ar    1  LIG1       -0.0197
      6 C          -2.4830    1.0250    0.0000 C.ar    1  LIG1       -0.0215
      7 C          -1.9380   -0.1630    0.0000 C.3     1  LIG1        0.0531
      8 C          -1.0170   -0.2380    0.0000 C.3     1  LIG1        0.0948
      9 C           0.0960   -0.3540    0.0000 C.2     1  LIG1        0.2358
     10 O           0.5790   -0.7670    0.0000 O.2     1  LIG1       -0.2741
     11 C          -2.4540   -1.2670    0.0000 C.ar    1  LIG1       -0.0215
     12 C          -2.9290   -1.0290    0.0000 C.ar    1  LIG1       -0.0197
     13 C          -4.0130   -1.4830    0.0000 C.ar    1  LIG1       -0.0042
     14 C          -3.9460   -2.5040    0.0000 C.ar    1  LIG1       -0.0003
     15 C          -3.0330   -2.9630    0.0000 C.ar    1  LIG1       -0.0003
     16 C          -2.1790   -2.4000    0.0000 C.ar    1  LIG1       -0.0042
     17 C          -1.4420    1.4540    0.0000 C.ar    1  LIG1       -0.0042
     18 C          -1.4750    2.4790    0.0000 C.ar    1  LIG1       -0.0003
     19 C          -2.3630    2.9670    0.0000 C.ar    1  LIG1       -0.0003
     20 C          -3.2420    2.4380    0.0000 C.ar    1  LIG1       -0.0042
     21 C          -3.5250    0.2500    0.0000 C.3     1  LIG1        0.1905
     22 O          -4.0330    0.8960    0.0000 O.3     1  LIG1       -0.2197
     23 O          -0.5080    1.6920    0.0000 O.2     1  LIG1       -0.2741
     24 C           1.2290    0.9750    0.0000 C.ar    1  LIG1        0.0712
     25 C           2.0290    0.3880    0.0000 C.ar    1  LIG1        0.0725
     26 C           2.9710    0.7500    0.0000 C.ar    1  LIG1        0.0241
     27 C           3.0880    1.7580    0.0000 C.ar    1  LIG1        0.0586
     28 C           2.2750    2.3630    0.0000 C.ar    1  LIG1        0.0127
     29 C           1.3330    1.9710    0.0000 C.ar    1  LIG1        0.0170
     30 CL          4.0290    2.0830    0.0000 Cl      1  LIG1       -0.0822
     31 CL          1.8540   -0.5290    0.0000 Cl      1  LIG1       -0.0809
@<TRIPOS>BOND
     1     1     2   am
     2     1     9   am
     3     1    24    1
     4     2     3    1
     5     2    23    2
     6     3     4    1
     7     3     8    1
     8     4     5    1
     9     4    12    1
    10     4    21    1
    11     5     6   ar
    12     5    20   ar
    13     6     7    1
    14     6    17   ar
    15     7     8    1
    16     7    11    1
    17     8     9    1
    18     9    10    2
    19    11    12   ar
    20    11    16   ar
    21    12    13   ar
    22    13    14   ar
    23    14    15   ar
    24    15    16   ar
    25    17    18   ar
    26    18    19   ar
    27    19    20   ar
    28    21    22    1
    29    24    25   ar
    30    24    29   ar
    31    25    26   ar
    32    25    31    1
    33    26    27   ar
    34    27    28   ar
    35    27    30    1
    36    28    29   ar
