@<TRIPOS>MOLECULE
25606_ChemDiv_C168-0221
 30 32 0 0 0
SMALL
GASTEIGER
Energy = 0

@<TRIPOS>ATOM
      1 C           0.8580    1.2630    0.0000 C.ar    1  LIG1        0.0711
      2 C          -0.0080    1.7630    0.0000 C.ar    1  LIG1        0.0136
      3 C          -0.0080    2.7670    0.0000 C.ar    1  LIG1        0.0596
      4 C           0.8580    3.2670    0.0000 C.ar    1  LIG1        0.2609
      5 N           1.7250    2.7670    0.0000 N.ar    1  LIG1       -0.2940
      6 C           1.7250    1.7630    0.0000 C.ar    1  LIG1        0.0828
      7 C           2.6080    3.2670    0.0000 C.3     1  LIG1        0.1092
      8 C           3.4750    2.7670    0.0000 C.3     1  LIG1        0.0266
      9 O           0.8580    4.2670    0.0000 O.2     1  LIG1       -0.2670
     10 C          -0.8630    3.2670    0.0000 C.ar    1  LIG1        0.0448
     11 C          -1.7420    2.7670    0.0000 C.ar    1  LIG1        0.1725
     12 C          -1.7420    1.7630    0.0000 C.ar    1  LIG1        0.1724
     13 C          -0.8630    1.2630    0.0000 C.ar    1  LIG1        0.0404
     14 O          -2.6130    1.2500    0.0000 O.3     1  LIG1       -0.4684
     15 C          -3.3250    1.8250    0.0000 C.3     1  LIG1        0.2526
     16 O          -2.6130    3.2670    0.0000 O.3     1  LIG1       -0.4684
     17 C          -2.6130    4.2670    0.0000 C.3     1  LIG1        0.2526
     18 C           0.8580    0.2580    0.0000 C.2     1  LIG1        0.2506
     19 N          -0.0080   -0.2420    0.0000 N.am    1  LIG1       -0.2725
     20 C          -0.8630    0.2580    0.0000 C.3     1  LIG1        0.1153
     21 C          -1.7420   -0.2420    0.0000 C.3     1  LIG1        0.1182
     22 N          -1.7420   -1.2460    0.0000 N.am    1  LIG1       -0.2425
     23 C          -2.6130   -1.7580    0.0000 C.2     1  LIG1        0.4050
     24 O          -3.4790   -1.2580    0.0000 O.2     1  LIG1       -0.2262
     25 O          -2.6130   -2.7630    0.0000 O.3     1  LIG1       -0.4345
     26 C          -3.4750   -3.2630    0.0000 C.3     1  LIG1        0.2102
     27 C          -3.4750   -4.2670    0.0000 C.3     1  LIG1        0.0513
     28 C          -0.8630   -1.7500    0.0000 C.3     1  LIG1        0.1182
     29 C          -0.0080   -1.2460    0.0000 C.3     1  LIG1        0.1153
     30 O           1.7250   -0.2420    0.0000 O.2     1  LIG1       -0.2699
@<TRIPOS>BOND
     1     1     2   ar
     2     1     6   ar
     3     1    18    1
     4     2     3   ar
     5     2    13   ar
     6     3     4   ar
     7     3    10   ar
     8     4     5   ar
     9     4     9    2
    10     5     6   ar
    11     5     7    1
    12     7     8    1
    13    10    11   ar
    14    11    12   ar
    15    11    16    1
    16    12    13   ar
    17    12    14    1
    18    14    15    1
    19    16    17    1
    20    18    19   am
    21    18    30    2
    22    19    20    1
    23    19    29    1
    24    20    21    1
    25    21    22    1
    26    22    23   am
    27    22    28    1
    28    23    24    2
    29    23    25    1
    30    25    26    1
    31    26    27    1
    32    28    29    1
