@<TRIPOS>MOLECULE
25604_ChemDiv_C168-0205
 24 25 0 0 0
SMALL
GASTEIGER
Energy = 0

@<TRIPOS>ATOM
      1 C           0.4250    0.7500    0.0000 C.ar    1  LIG1        0.0725
      2 C          -0.4380    1.2500    0.0000 C.ar    1  LIG1        0.0137
      3 C          -0.4380    2.2500    0.0000 C.ar    1  LIG1        0.0596
      4 C           0.4250    2.7500    0.0000 C.ar    1  LIG1        0.2609
      5 N           1.2920    2.2500    0.0000 N.ar    1  LIG1       -0.2940
      6 C           1.2920    1.2500    0.0000 C.ar    1  LIG1        0.0828
      7 C           2.1670    2.7500    0.0000 C.3     1  LIG1        0.1092
      8 C           3.0290    2.2500    0.0000 C.3     1  LIG1        0.0266
      9 O           0.4250    3.7500    0.0000 O.2     1  LIG1       -0.2670
     10 C          -1.3040    2.7500    0.0000 C.ar    1  LIG1        0.0448
     11 C          -2.1710    2.2500    0.0000 C.ar    1  LIG1        0.1725
     12 C          -2.1710    1.2500    0.0000 C.ar    1  LIG1        0.1724
     13 C          -1.3040    0.7500    0.0000 C.ar    1  LIG1        0.0404
     14 O          -3.0330    0.7420    0.0000 O.3     1  LIG1       -0.4684
     15 C          -3.0330   -0.2580    0.0000 C.3     1  LIG1        0.2526
     16 O          -3.0330    2.7500    0.0000 O.3     1  LIG1       -0.4684
     17 C          -3.0330    3.7500    0.0000 C.3     1  LIG1        0.2526
     18 C           0.4250   -0.2460    0.0000 C.2     1  LIG1        0.2663
     19 O           1.2920   -0.7460    0.0000 O.2     1  LIG1       -0.2683
     20 N          -0.4380   -0.7460    0.0000 N.am    1  LIG1       -0.1989
     21 C          -0.4380   -1.7500    0.0000 C.3     1  LIG1        0.1474
     22 C          -1.3040   -2.2460    0.0000 C.3     1  LIG1        0.1656
     23 O          -1.3040   -3.2460    0.0000 O.3     1  LIG1       -0.3492
     24 C          -2.1630   -3.7460    0.0000 C.3     1  LIG1        0.1742
@<TRIPOS>BOND
     1     1     2   ar
     2     1     6   ar
     3     1    18    1
     4     2     3   ar
     5     2    13   ar
     6     3     4   ar
     7     3    10   ar
     8     4     5   ar
     9     4     9    2
    10     5     6   ar
    11     5     7    1
    12     7     8    1
    13    10    11   ar
    14    11    12   ar
    15    11    16    1
    16    12    13   ar
    17    12    14    1
    18    14    15    1
    19    16    17    1
    20    18    19    2
    21    18    20   am
    22    20    21    1
    23    21    22    1
    24    22    23    1
    25    23    24    1
