@<TRIPOS>MOLECULE
25602_ChemDiv_C154-0252
 24 26 0 0 0
SMALL
GASTEIGER
Energy = 0

@<TRIPOS>ATOM
      1 C           1.2920   -0.0040    0.0000 C.ar    1  LIG1        0.0711
      2 C           0.4130    0.4960    0.0000 C.ar    1  LIG1        0.0136
      3 C           0.4130    1.4960    0.0000 C.ar    1  LIG1        0.0596
      4 C           1.2920    2.0080    0.0000 C.ar    1  LIG1        0.2610
      5 N           2.1540    1.4960    0.0000 N.ar    1  LIG1       -0.2920
      6 C           2.1630    0.4960    0.0000 C.ar    1  LIG1        0.0829
      7 C           3.0290    2.0040    0.0000 C.3     1  LIG1        0.1336
      8 O           1.2920    3.0080    0.0000 O.2     1  LIG1       -0.2670
      9 C          -0.4500    2.0040    0.0000 C.ar    1  LIG1        0.0448
     10 C          -1.3080    1.4920    0.0000 C.ar    1  LIG1        0.1725
     11 C          -1.3040    0.4790    0.0000 C.ar    1  LIG1        0.1724
     12 C          -0.4330   -0.0040    0.0000 C.ar    1  LIG1        0.0404
     13 O          -2.1540   -0.0210    0.0000 O.3     1  LIG1       -0.4684
     14 C          -2.1540   -0.9960    0.0000 C.3     1  LIG1        0.2526
     15 O          -2.1710    1.9790    0.0000 O.3     1  LIG1       -0.4684
     16 C          -3.0330    1.4790    0.0000 C.3     1  LIG1        0.2526
     17 C           1.2920   -0.9960    0.0000 C.2     1  LIG1        0.2505
     18 N           0.4290   -1.4960    0.0000 N.am    1  LIG1       -0.2760
     19 C           0.4290   -2.5080    0.0000 C.3     1  LIG1        0.0937
     20 C          -0.4380   -3.0040    0.0000 C.3     1  LIG1        0.0216
     21 C          -1.2920   -2.5080    0.0000 C.3     1  LIG1        0.0035
     22 C          -1.3040   -1.4960    0.0000 C.3     1  LIG1        0.0216
     23 C          -0.4330   -0.9960    0.0000 C.3     1  LIG1        0.0937
     24 O           2.1630   -1.4960    0.0000 O.2     1  LIG1       -0.2699
@<TRIPOS>BOND
     1     1     2   ar
     2     1     6   ar
     3     1    17    1
     4     2     3   ar
     5     2    12   ar
     6     3     4   ar
     7     3     9   ar
     8     4     5   ar
     9     4     8    2
    10     5     6   ar
    11     5     7    1
    12     9    10   ar
    13    10    11   ar
    14    10    15    1
    15    11    12   ar
    16    11    13    1
    17    13    14    1
    18    15    16    1
    19    17    18   am
    20    17    24    2
    21    18    19    1
    22    18    23    1
    23    19    20    1
    24    20    21    1
    25    21    22    1
    26    22    23    1
