@<TRIPOS>MOLECULE
25610_ChemDiv_C168-0252
 25 27 0 0 0
SMALL
GASTEIGER
Energy = 0

@<TRIPOS>ATOM
      1 C           0.8830    0.0000    0.0000 C.ar    1  LIG1        0.0711
      2 C           0.0290    0.5000    0.0000 C.ar    1  LIG1        0.0136
      3 C           0.0290    1.4960    0.0000 C.ar    1  LIG1        0.0596
      4 C           0.8830    1.9960    0.0000 C.ar    1  LIG1        0.2609
      5 N           1.7540    1.4960    0.0000 N.ar    1  LIG1       -0.2940
      6 C           1.7540    0.5000    0.0000 C.ar    1  LIG1        0.0828
      7 C           2.6130    2.0000    0.0000 C.3     1  LIG1        0.1092
      8 C           3.4830    1.5000    0.0000 C.3     1  LIG1        0.0266
      9 O           0.8830    2.9880    0.0000 O.2     1  LIG1       -0.2670
     10 C          -0.8290    1.9960    0.0000 C.ar    1  LIG1        0.0448
     11 C          -1.6960    1.4960    0.0000 C.ar    1  LIG1        0.1725
     12 C          -1.6960    0.5000    0.0000 C.ar    1  LIG1        0.1724
     13 C          -0.8290    0.0000    0.0000 C.ar    1  LIG1        0.0404
     14 O          -2.5670    0.0000    0.0000 O.3     1  LIG1       -0.4684
     15 C          -3.4880    0.5290    0.0000 C.3     1  LIG1        0.2526
     16 O          -2.5670    2.0000    0.0000 O.3     1  LIG1       -0.4684
     17 C          -2.5670    2.9920    0.0000 C.3     1  LIG1        0.2526
     18 C           0.8830   -0.9960    0.0000 C.2     1  LIG1        0.2505
     19 N           0.0290   -1.4960    0.0000 N.am    1  LIG1       -0.2760
     20 C           0.0290   -2.4920    0.0000 C.3     1  LIG1        0.0937
     21 C          -0.8290   -2.9880    0.0000 C.3     1  LIG1        0.0216
     22 C          -1.7040   -2.4920    0.0000 C.3     1  LIG1        0.0035
     23 C          -1.7040   -1.4960    0.0000 C.3     1  LIG1        0.0216
     24 C          -0.8380   -0.9960    0.0000 C.3     1  LIG1        0.0937
     25 O           1.7540   -1.4960    0.0000 O.2     1  LIG1       -0.2699
@<TRIPOS>BOND
     1     1     2   ar
     2     1     6   ar
     3     1    18    1
     4     2     3   ar
     5     2    13   ar
     6     3     4   ar
     7     3    10   ar
     8     4     5   ar
     9     4     9    2
    10     5     6   ar
    11     5     7    1
    12     7     8    1
    13    10    11   ar
    14    11    12   ar
    15    11    16    1
    16    12    13   ar
    17    12    14    1
    18    14    15    1
    19    16    17    1
    20    18    19   am
    21    18    25    2
    22    19    20    1
    23    19    24    1
    24    20    21    1
    25    21    22    1
    26    22    23    1
    27    23    24    1
