@<TRIPOS>MOLECULE
25614_ChemDiv_C168-0451
 30 32 0 0 0
SMALL
GASTEIGER
Energy = 0

@<TRIPOS>ATOM
      1 C           0.8630    2.1920    0.0000 C.ar    1  LIG1        0.0729
      2 C           0.0000    2.6500    0.0000 C.ar    1  LIG1        0.0137
      3 C           0.0000    3.5920    0.0000 C.ar    1  LIG1        0.0596
      4 C           0.7920    4.0540    0.0000 C.ar    1  LIG1        0.2609
      5 N           1.5830    3.5920    0.0000 N.ar    1  LIG1       -0.2940
      6 C           1.5830    2.6500    0.0000 C.ar    1  LIG1        0.0828
      7 C           2.3790    4.0540    0.0000 C.3     1  LIG1        0.1090
      8 C           2.3880    4.9880    0.0000 C.3     1  LIG1        0.0227
      9 C           1.5960    5.4630    0.0000 C.3     1  LIG1        0.0020
     10 C           3.1710    5.4630    0.0000 C.3     1  LIG1        0.0020
     11 O           0.7920    4.9880    0.0000 O.2     1  LIG1       -0.2670
     12 C          -0.7750    4.0540    0.0000 C.ar    1  LIG1        0.0448
     13 C          -1.5710    3.5920    0.0000 C.ar    1  LIG1        0.1725
     14 C          -1.5710    2.6500    0.0000 C.ar    1  LIG1        0.1724
     15 C          -0.7750    2.1790    0.0000 C.ar    1  LIG1        0.0404
     16 O          -2.3750    2.1750    0.0000 O.3     1  LIG1       -0.4684
     17 C          -3.1750    2.6420    0.0000 C.3     1  LIG1        0.2526
     18 O          -2.3750    4.0460    0.0000 O.3     1  LIG1       -0.4684
     19 C          -3.1580    3.5710    0.0000 C.3     1  LIG1        0.2526
     20 C           0.8630   -0.4960    0.0000 C.2     1  LIG1        0.2704
     21 N           0.0170   -0.9920    0.0000 N.am    1  LIG1       -0.1757
     22 C           0.0170   -2.7500    0.0000 C.ar    1  LIG1        0.0697
     23 C          -0.7540   -3.2000    0.0000 C.ar    1  LIG1       -0.0060
     24 C          -0.7540   -4.1040    0.0000 C.ar    1  LIG1        0.0037
     25 C           0.0170   -4.5580    0.0000 C.ar    1  LIG1        0.0343
     26 C           0.7830   -4.1040    0.0000 C.ar    1  LIG1        0.0080
     27 C           0.7830   -3.2000    0.0000 C.ar    1  LIG1        0.0168
     28 BR          0.0170   -5.4630    0.0000 Br      1  LIG1       -0.0490
     29 C          -1.5210   -2.7380    0.0000 C.3     1  LIG1        0.0324
     30 O           1.6540   -0.9630    0.0000 O.2     1  LIG1       -0.2680
@<TRIPOS>BOND
     1     1     2   ar
     2     1     6   ar
     3     1    20    1
     4     2     3   ar
     5     2    15   ar
     6     3     4   ar
     7     3    12   ar
     8     4     5   ar
     9     4    11    2
    10     5     6   ar
    11     5     7    1
    12     7     8    1
    13     8     9    1
    14     8    10    1
    15    12    13   ar
    16    13    14   ar
    17    13    18    1
    18    14    15   ar
    19    14    16    1
    20    16    17    1
    21    18    19    1
    22    20    21   am
    23    20    30    2
    24    21    22    1
    25    22    23   ar
    26    22    27   ar
    27    23    24   ar
    28    23    29    1
    29    24    25   ar
    30    25    26   ar
    31    25    28    1
    32    26    27   ar
