@<TRIPOS>MOLECULE
25629_ChemDiv_8015-3580
 25 28 0 0 0
SMALL
GASTEIGER
Energy = 0

@<TRIPOS>ATOM
      1 N          -2.5290    0.0630    0.0000 N.am    1  LIG1       -0.2080
      2 C          -2.5290    1.0330    0.0000 C.2     1  LIG1        0.2354
      3 C          -4.2080    1.0330    0.0000 C.3     1  LIG1        0.0903
      4 C          -4.2080    0.0630    0.0000 C.3     1  LIG1        0.0903
      5 C          -3.3670   -0.4170    0.0000 C.2     1  LIG1        0.2354
      6 O          -3.3670   -1.3790    0.0000 O.2     1  LIG1       -0.2741
      7 C          -5.0380   -0.4170    0.0000 C.3     1  LIG1        0.0311
      8 C          -5.8790    0.0630    0.0000 C.2     1  LIG1       -0.0305
      9 C          -5.8790    1.0330    0.0000 C.2     1  LIG1       -0.0305
     10 C          -5.0380    1.5210    0.0000 C.3     1  LIG1        0.0311
     11 C          -4.5580    0.6750    0.0000 C.3     1  LIG1        0.0096
     12 O          -2.0420    1.8670    0.0000 O.2     1  LIG1       -0.2741
     13 C          -1.6880   -0.4170    0.0000 C.ar    1  LIG1        0.0637
     14 C          -0.8460    0.0630    0.0000 C.ar    1  LIG1        0.0522
     15 C          -0.0130   -0.4170    0.0000 C.ar    1  LIG1        0.1398
     16 O           0.8330    0.0630    0.0000 O.3     1  LIG1       -0.4754
     17 C           1.6670   -0.4170    0.0000 C.3     1  LIG1        0.2054
     18 C           2.5130    0.0630    0.0000 C.3     1  LIG1        0.0473
     19 C           3.3540   -0.4170    0.0000 C.3     1  LIG1        0.0038
     20 C           4.1880    0.0630    0.0000 C.3     1  LIG1        0.0001
     21 C           5.0330   -0.4170    0.0000 C.3     1  LIG1        0.0000
     22 C           5.8750    0.0630    0.0000 C.3     1  LIG1        0.0000
     23 C          -0.0130   -1.3790    0.0000 C.ar    1  LIG1        0.0370
     24 C          -0.8460   -1.8630    0.0000 C.ar    1  LIG1        0.0044
     25 C          -1.6880   -1.3790    0.0000 C.ar    1  LIG1        0.0155
@<TRIPOS>BOND
     1     1     2   am
     2     1     5   am
     3     1    13    1
     4     2     3    1
     5     2    12    2
     6     3     4    1
     7     3    10    1
     8     4     5    1
     9     4     7    1
    10     5     6    2
    11     7     8    1
    12     7    11    1
    13     8     9    2
    14     9    10    1
    15    10    11    1
    16    13    14   ar
    17    13    25   ar
    18    14    15   ar
    19    15    16    1
    20    15    23   ar
    21    16    17    1
    22    17    18    1
    23    18    19    1
    24    19    20    1
    25    20    21    1
    26    21    22    1
    27    23    24   ar
    28    24    25   ar
