@<TRIPOS>MOLECULE
25628_ChemDiv_0584-0331
 22 23 0 0 0
SMALL
GASTEIGER
Energy = 0

@<TRIPOS>ATOM
      1 C          -2.1750   -0.2460    0.0000 C.ar    1  LIG1        0.1023
      2 C          -3.0420    0.2500    0.0000 C.ar    1  LIG1        0.1325
      3 O          -3.9080   -0.2460    0.0000 O.2     1  LIG1       -0.4253
      4 C          -3.9080   -1.2540    0.0000 C.ar    1  LIG1        0.3453
      5 C          -3.0420   -1.7540    0.0000 C.ar    1  LIG1        0.0783
      6 C          -2.1750   -1.2540    0.0000 C.ar    1  LIG1       -0.0065
      7 C          -1.3130   -1.7830    0.0000 C.3     1  LIG1        0.0316
      8 O          -4.7920   -1.7540    0.0000 O.2     1  LIG1       -0.2445
      9 C          -3.0420    1.2710    0.0000 C.3     1  LIG1        0.0728
     10 C          -1.2880    0.2880    0.0000 C.2     1  LIG1        0.3440
     11 O          -0.4210   -0.2130    0.0000 O.3     1  LIG1       -0.4368
     12 C           0.4460    0.2880    0.0000 C.3     1  LIG1        0.2769
     13 C           1.3040   -0.2130    0.0000 C.2     1  LIG1        0.2170
     14 C           2.1710    0.3130    0.0000 C.ar    1  LIG1        0.0385
     15 C           2.1710    1.2960    0.0000 C.ar    1  LIG1        0.0038
     16 C           3.0250    1.7880    0.0000 C.ar    1  LIG1        0.0115
     17 C           3.8920    1.2710    0.0000 C.ar    1  LIG1        0.0577
     18 C           3.8920    0.3130    0.0000 C.ar    1  LIG1        0.0115
     19 C           3.0250   -0.1750    0.0000 C.ar    1  LIG1        0.0038
     20 CL          4.7880    1.7580    0.0000 Cl      1  LIG1       -0.0822
     21 O           1.3040   -1.1960    0.0000 O.2     1  LIG1       -0.2874
     22 O          -1.2880    1.2710    0.0000 O.2     1  LIG1       -0.2448
@<TRIPOS>BOND
     1     1     2   ar
     2     1     6   ar
     3     1    10    1
     4     2     3   ar
     5     2     9    1
     6     3     4   ar
     7     4     5   ar
     8     4     8    2
     9     5     6   ar
    10     6     7    1
    11    10    11    1
    12    10    22    2
    13    11    12    1
    14    12    13    1
    15    13    14    1
    16    13    21    2
    17    14    15   ar
    18    14    19   ar
    19    15    16   ar
    20    16    17   ar
    21    17    18   ar
    22    17    20    1
    23    18    19   ar
