@<TRIPOS>MOLECULE
25624_ChemDiv_8011-5571
 31 36 0 0 0
SMALL
GASTEIGER
Energy = 0

@<TRIPOS>ATOM
      1 N           0.2580    0.3580    0.0000 N.am    1  LIG1       -0.2081
      2 C          -0.2540   -0.4670    0.0000 C.2     1  LIG1        0.2358
      3 C          -1.7170    0.3880    0.0000 C.3     1  LIG1        0.0947
      4 C          -1.2130    1.2040    0.0000 C.3     1  LIG1        0.0947
      5 C          -0.2080    1.2040    0.0000 C.2     1  LIG1        0.2358
      6 O           0.3040    2.0580    0.0000 O.2     1  LIG1       -0.2741
      7 C          -2.5830    0.2130    0.0000 C.3     1  LIG1        0.0531
      8 C          -2.1380   -0.5670    0.0000 C.ar    1  LIG1       -0.0216
      9 C          -2.6000   -1.3290    0.0000 C.ar    1  LIG1       -0.0216
     10 C          -3.0420   -0.5380    0.0000 C.3     1  LIG1        0.0531
     11 C          -3.9250   -0.5380    0.0000 C.ar    1  LIG1       -0.0216
     12 C          -3.4540    0.2130    0.0000 C.ar    1  LIG1       -0.0216
     13 C          -3.9000    1.0080    0.0000 C.ar    1  LIG1       -0.0042
     14 C          -4.7880    1.0080    0.0000 C.ar    1  LIG1       -0.0003
     15 C          -5.2330    0.2580    0.0000 C.ar    1  LIG1       -0.0003
     16 C          -4.7790   -0.5380    0.0000 C.ar    1  LIG1       -0.0042
     17 C          -2.1500   -2.0540    0.0000 C.ar    1  LIG1       -0.0042
     18 C          -1.2790   -2.0540    0.0000 C.ar    1  LIG1       -0.0003
     19 C          -0.8170   -1.3460    0.0000 C.ar    1  LIG1       -0.0003
     20 C          -1.2420   -0.5670    0.0000 C.ar    1  LIG1       -0.0042
     21 O           0.2540   -1.3460    0.0000 O.2     1  LIG1       -0.2741
     22 C           1.2500    0.3580    0.0000 C.ar    1  LIG1        0.0607
     23 C           1.7540   -0.5040    0.0000 C.ar    1  LIG1        0.0167
     24 C           2.7630   -0.5040    0.0000 C.ar    1  LIG1        0.0213
     25 C           3.2630    0.3580    0.0000 C.ar    1  LIG1        0.1251
     26 S           4.2540    0.3580    0.0000 S.O2    1  LIG1        0.0935
     27 O           4.2540    1.3460    0.0000 O.2     1  LIG1       -0.1503
     28 O           4.2540   -0.6330    0.0000 O.2     1  LIG1       -0.1503
     29 N           5.2290    0.3580    0.0000 N.3     1  LIG1        0.0392
     30 C           2.7630    1.2290    0.0000 C.ar    1  LIG1        0.0213
     31 C           1.7540    1.2290    0.0000 C.ar    1  LIG1        0.0167
@<TRIPOS>BOND
     1     1     2   am
     2     1     5   am
     3     1    22    1
     4     2     3    1
     5     2    21    2
     6     3     4    1
     7     3    10    1
     8     4     5    1
     9     4     7    1
    10     5     6    2
    11     7     8    1
    12     7    12    1
    13     8     9   ar
    14     8    20   ar
    15     9    10    1
    16     9    17   ar
    17    10    11    1
    18    11    12   ar
    19    11    16   ar
    20    12    13   ar
    21    13    14   ar
    22    14    15   ar
    23    15    16   ar
    24    17    18   ar
    25    18    19   ar
    26    19    20   ar
    27    22    23   ar
    28    22    31   ar
    29    23    24   ar
    30    24    25   ar
    31    25    26    1
    32    25    30   ar
    33    26    27    2
    34    26    28    2
    35    26    29    1
    36    30    31   ar
