@<TRIPOS>MOLECULE
25620_ChemDiv_8009-9049
 34 39 0 0 0
SMALL
GASTEIGER
Energy = 0

@<TRIPOS>ATOM
      1 N          -0.4250    1.4670    0.0000 N.am    1  LIG1       -0.2081
      2 C          -1.1290    1.0670    0.0000 C.2     1  LIG1        0.2362
      3 C          -1.8250    1.4670    0.0000 C.3     1  LIG1        0.1007
      4 C          -3.3460   -1.5330    0.0000 C.3     1  LIG1        0.0970
      5 C          -2.6250   -1.1040    0.0000 C.ar    1  LIG1       -0.0156
      6 C          -2.6250   -0.2830    0.0000 C.ar    1  LIG1       -0.0212
      7 C          -3.3460    0.1290    0.0000 C.3     1  LIG1        0.0531
      8 C          -1.8250    2.3080    0.0000 C.3     1  LIG1        0.0951
      9 C          -0.4250    2.3080    0.0000 C.2     1  LIG1        0.2358
     10 O           0.2920    2.7540    0.0000 O.2     1  LIG1       -0.2741
     11 C          -4.0960   -0.2830    0.0000 C.ar    1  LIG1       -0.0212
     12 C          -4.0960   -1.1040    0.0000 C.ar    1  LIG1       -0.0156
     13 C          -4.8290   -1.5330    0.0000 C.ar    1  LIG1       -0.0039
     14 C          -5.5460   -1.1040    0.0000 C.ar    1  LIG1       -0.0003
     15 C          -5.5460   -0.2830    0.0000 C.ar    1  LIG1       -0.0003
     16 C          -4.8290    0.1290    0.0000 C.ar    1  LIG1       -0.0042
     17 C          -1.9080    0.1290    0.0000 C.ar    1  LIG1       -0.0042
     18 C          -1.1880   -0.2830    0.0000 C.ar    1  LIG1       -0.0003
     19 C          -1.1880   -1.1040    0.0000 C.ar    1  LIG1       -0.0003
     20 C          -1.9080   -1.5330    0.0000 C.ar    1  LIG1       -0.0039
     21 C          -3.3460   -2.3540    0.0000 C.2     1  LIG1        0.1582
     22 O          -4.0750   -2.7500    0.0000 O.2     1  LIG1       -0.2954
     23 C          -2.6830   -2.7380    0.0000 C.3     1  LIG1        0.0729
     24 O          -1.1290    0.2830    0.0000 O.2     1  LIG1       -0.2741
     25 C           0.3630    1.0170    0.0000 C.ar    1  LIG1        0.0608
     26 C           0.3630    0.0210    0.0000 C.ar    1  LIG1        0.0184
     27 C           1.2580   -0.4670    0.0000 C.ar    1  LIG1        0.0382
     28 C           2.1210    0.0210    0.0000 C.ar    1  LIG1        0.1386
     29 C           2.1210    1.0170    0.0000 C.ar    1  LIG1        0.0382
     30 C           1.2580    1.5250    0.0000 C.ar    1  LIG1        0.0184
     31 O           2.9830   -0.4880    0.0000 O.3     1  LIG1       -0.4755
     32 C           3.8580   -0.0080    0.0000 C.3     1  LIG1        0.2054
     33 C           4.6580   -0.5080    0.0000 C.3     1  LIG1        0.0473
     34 C           5.5420   -0.0420    0.0000 C.3     1  LIG1        0.0040
@<TRIPOS>BOND
     1     1     2   am
     2     1     9   am
     3     1    25    1
     4     2     3    1
     5     2    24    2
     6     3     4    1
     7     3     8    1
     8     4     5    1
     9     4    12    1
    10     4    21    1
    11     5     6   ar
    12     5    20   ar
    13     6     7    1
    14     6    17   ar
    15     7     8    1
    16     7    11    1
    17     8     9    1
    18     9    10    2
    19    11    12   ar
    20    11    16   ar
    21    12    13   ar
    22    13    14   ar
    23    14    15   ar
    24    15    16   ar
    25    17    18   ar
    26    18    19   ar
    27    19    20   ar
    28    21    22    2
    29    21    23    1
    30    25    26   ar
    31    25    30   ar
    32    26    27   ar
    33    27    28   ar
    34    28    29   ar
    35    28    31    1
    36    29    30   ar
    37    31    32    1
    38    32    33    1
    39    33    34    1
