@<TRIPOS>MOLECULE
25625_ChemDiv_5135-0043
 23 26 0 0 0
SMALL
GASTEIGER
Energy = 0

@<TRIPOS>ATOM
      1 N          -1.2670    0.1420    0.0000 N.am    1  LIG1       -0.2081
      2 C          -1.8330    0.8960    0.0000 C.2     1  LIG1        0.2354
      3 C          -2.7920    0.5830    0.0000 C.3     1  LIG1        0.0903
      4 C          -2.7920   -0.4040    0.0000 C.3     1  LIG1        0.0903
      5 C          -1.8330   -0.7130    0.0000 C.2     1  LIG1        0.2354
      6 O          -1.5130   -1.6460    0.0000 O.2     1  LIG1       -0.2741
      7 C          -3.6330   -0.9040    0.0000 C.3     1  LIG1        0.0311
      8 C          -4.4920   -0.4040    0.0000 C.2     1  LIG1       -0.0305
      9 C          -4.4920    0.5830    0.0000 C.2     1  LIG1       -0.0305
     10 C          -3.6330    1.0920    0.0000 C.3     1  LIG1        0.0311
     11 C          -3.2210    0.1420    0.0000 C.3     1  LIG1        0.0096
     12 O          -1.5130    1.8170    0.0000 O.2     1  LIG1       -0.2741
     13 C          -0.2580    0.1420    0.0000 C.ar    1  LIG1        0.0606
     14 C           0.2290   -0.7290    0.0000 C.ar    1  LIG1        0.0155
     15 C           1.2290   -0.7290    0.0000 C.ar    1  LIG1        0.0077
     16 C           1.7250    0.1250    0.0000 C.ar    1  LIG1        0.0757
     17 C           2.7170    0.0960    0.0000 C.2     1  LIG1        0.3412
     18 O           3.2500    0.9580    0.0000 O.2     1  LIG1       -0.2449
     19 O           3.1000   -0.7920    0.0000 O.3     1  LIG1       -0.4454
     20 C           4.0920   -0.8960    0.0000 C.3     1  LIG1        0.2089
     21 C           4.4880   -1.8130    0.0000 C.3     1  LIG1        0.0513
     22 C           1.2290    1.0040    0.0000 C.ar    1  LIG1        0.0077
     23 C           0.2290    1.0040    0.0000 C.ar    1  LIG1        0.0155
@<TRIPOS>BOND
     1     1     2   am
     2     1     5   am
     3     1    13    1
     4     2     3    1
     5     2    12    2
     6     3     4    1
     7     3    10    1
     8     4     5    1
     9     4     7    1
    10     5     6    2
    11     7     8    1
    12     7    11    1
    13     8     9    2
    14     9    10    1
    15    10    11    1
    16    13    14   ar
    17    13    23   ar
    18    14    15   ar
    19    15    16   ar
    20    16    17    1
    21    16    22   ar
    22    17    18    2
    23    17    19    1
    24    19    20    1
    25    20    21    1
    26    22    23   ar
