@<TRIPOS>MOLECULE
25635_ChemDiv_C168-0509
 27 28 0 0 0
SMALL
GASTEIGER
Energy = 0

@<TRIPOS>ATOM
      1 C           0.8580    1.2920    0.0000 C.ar    1  LIG1        0.0711
      2 C          -0.0080    1.7460    0.0000 C.ar    1  LIG1        0.0136
      3 C          -0.0080    2.6790    0.0000 C.ar    1  LIG1        0.0596
      4 C           0.7920    3.1420    0.0000 C.ar    1  LIG1        0.2609
      5 N           1.6000    2.6790    0.0000 N.ar    1  LIG1       -0.2940
      6 C           1.6000    1.7540    0.0000 C.ar    1  LIG1        0.0828
      7 C           2.4040    3.1420    0.0000 C.3     1  LIG1        0.1090
      8 C           2.4080    4.0630    0.0000 C.3     1  LIG1        0.0227
      9 C           1.6040    4.5210    0.0000 C.3     1  LIG1        0.0020
     10 C           3.2080    4.5210    0.0000 C.3     1  LIG1        0.0020
     11 O           0.7920    4.0630    0.0000 O.2     1  LIG1       -0.2670
     12 C          -0.7960    3.1420    0.0000 C.ar    1  LIG1        0.0448
     13 C          -1.6040    2.6790    0.0000 C.ar    1  LIG1        0.1725
     14 C          -1.6040    1.7540    0.0000 C.ar    1  LIG1        0.1724
     15 C          -0.7960    1.2920    0.0000 C.ar    1  LIG1        0.0404
     16 O          -2.4080    1.2790    0.0000 O.3     1  LIG1       -0.4684
     17 C          -3.2130    1.7420    0.0000 C.3     1  LIG1        0.2526
     18 O          -2.4080    3.1420    0.0000 O.3     1  LIG1       -0.4684
     19 C          -3.2000    2.6630    0.0000 C.3     1  LIG1        0.2526
     20 C           0.8580   -1.3630    0.0000 C.2     1  LIG1        0.2505
     21 N           0.0080   -1.8540    0.0000 N.am    1  LIG1       -0.2743
     22 C           0.0000   -2.8960    0.0000 C.3     1  LIG1        0.0938
     23 C           0.6330   -3.2790    0.0000 C.3     1  LIG1        0.0215
     24 C           0.6460   -4.0170    0.0000 C.3     1  LIG1        0.0018
     25 C           1.5580   -4.5210    0.0000 C.3     1  LIG1        0.0001
     26 C          -1.1880   -1.1830    0.0000 C.3     1  LIG1        0.1152
     27 O           1.6630   -1.8250    0.0000 O.2     1  LIG1       -0.2699
@<TRIPOS>BOND
     1     1     2   ar
     2     1     6   ar
     3     1    20    1
     4     2     3   ar
     5     2    15   ar
     6     3     4   ar
     7     3    12   ar
     8     4     5   ar
     9     4    11    2
    10     5     6   ar
    11     5     7    1
    12     7     8    1
    13     8     9    1
    14     8    10    1
    15    12    13   ar
    16    13    14   ar
    17    13    18    1
    18    14    15   ar
    19    14    16    1
    20    16    17    1
    21    18    19    1
    22    20    21   am
    23    20    27    2
    24    21    22    1
    25    21    26    1
    26    22    23    1
    27    23    24    1
    28    24    25    1
