@<TRIPOS>MOLECULE
25638_ChemDiv_C301-6223
 13 14 0 0 0
SMALL
GASTEIGER
Energy = 0

@<TRIPOS>ATOM
      1 N           0.9580   -0.8540    0.0000 N.ar    1  LIG1       -0.2427
      2 C          -0.0460   -0.9580    0.0000 C.ar    1  LIG1        0.0880
      3 C          -0.2460   -1.9330    0.0000 C.ar    1  LIG1        0.0556
      4 S           0.6130   -2.4330    0.0000 S.2     1  LIG1       -0.0702
      5 C           1.3630   -1.7580    0.0000 C.ar    1  LIG1        0.0886
      6 C           2.3420   -1.9750    0.0000 C.3     1  LIG1        0.0594
      7 C          -0.7040   -0.2130    0.0000 C.ar    1  LIG1        0.0190
      8 C          -0.3880    0.7420    0.0000 C.ar    1  LIG1        0.0129
      9 C          -1.0580    1.4920    0.0000 C.ar    1  LIG1        0.0577
     10 CL         -0.7460    2.4380    0.0000 Cl      1  LIG1       -0.0822
     11 C          -2.0460    1.2750    0.0000 C.ar    1  LIG1        0.0114
     12 C          -2.3460    0.3210    0.0000 C.ar    1  LIG1        0.0009
     13 C          -1.6750   -0.4170    0.0000 C.ar    1  LIG1        0.0016
@<TRIPOS>BOND
     1     1     2   ar
     2     1     5   ar
     3     2     3   ar
     4     2     7    1
     5     3     4   ar
     6     4     5   ar
     7     5     6    1
     8     7     8   ar
     9     7    13   ar
    10     8     9   ar
    11     9    10    1
    12     9    11   ar
    13    11    12   ar
    14    12    13   ar
