@<TRIPOS>MOLECULE
25639_ChemDiv_K844-0646
 24 26 0 0 0
SMALL
GASTEIGER
Energy = 0

@<TRIPOS>ATOM
      1 C          -1.7250    0.7460    0.0000 C.ar    1  LIG1        0.1498
      2 C          -1.7250   -0.2670    0.0000 C.ar    1  LIG1        0.2684
      3 N          -2.6130   -0.7630    0.0000 N.ar    1  LIG1       -0.2955
      4 C          -3.4750   -0.2670    0.0000 C.ar    1  LIG1        0.0615
      5 C          -3.4670    0.7460    0.0000 C.ar    1  LIG1        0.0548
      6 C          -2.6000    1.2500    0.0000 C.ar    1  LIG1        0.2060
      7 O          -2.6000    2.2500    0.0000 O.3     1  LIG1       -0.2862
      8 C          -4.3420    1.2460    0.0000 C.ar    1  LIG1        0.0046
      9 C          -5.2040    0.7380    0.0000 C.ar    1  LIG1       -0.0001
     10 C          -5.2040   -0.2630    0.0000 C.ar    1  LIG1       -0.0028
     11 C          -4.3290   -0.7540    0.0000 C.ar    1  LIG1       -0.0061
     12 C          -4.3420   -1.7380    0.0000 C.3     1  LIG1        0.0298
     13 C          -3.4830   -2.2460    0.0000 C.3     1  LIG1        0.0293
     14 C          -2.6210   -1.7500    0.0000 C.3     1  LIG1        0.1094
     15 O          -0.8630   -0.7790    0.0000 O.2     1  LIG1       -0.2667
     16 C          -0.8580    1.2380    0.0000 C.2     1  LIG1        0.2726
     17 O          -0.8580    2.2330    0.0000 O.2     1  LIG1       -0.2681
     18 N           0.0040    0.7380    0.0000 N.am    1  LIG1       -0.2014
     19 C           0.8670    1.2380    0.0000 C.3     1  LIG1        0.1155
     20 C           1.7330    0.7330    0.0000 C.3     1  LIG1        0.0234
     21 C           2.6040    1.2290    0.0000 C.3     1  LIG1        0.0018
     22 C           3.4670    0.7330    0.0000 C.3     1  LIG1        0.0001
     23 C           4.3380    1.2290    0.0000 C.3     1  LIG1        0.0000
     24 C           5.2000    0.7330    0.0000 C.3     1  LIG1        0.0000
@<TRIPOS>BOND
     1     1     2   ar
     2     1     6   ar
     3     1    16    1
     4     2     3   ar
     5     2    15    2
     6     3     4   ar
     7     3    14    1
     8     4     5   ar
     9     4    11   ar
    10     5     6   ar
    11     5     8   ar
    12     6     7    1
    13     8     9   ar
    14     9    10   ar
    15    10    11   ar
    16    11    12    1
    17    12    13    1
    18    13    14    1
    19    16    17    2
    20    16    18   am
    21    18    19    1
    22    19    20    1
    23    20    21    1
    24    21    22    1
    25    22    23    1
    26    23    24    1
