@<TRIPOS>MOLECULE
25630_ChemDiv_0814-0115
 23 24 0 0 0
SMALL
GASTEIGER
Energy = 0

@<TRIPOS>ATOM
      1 C          -1.2630    1.8000    0.0000 C.ar    1  LIG1        0.1023
      2 C          -1.2250    2.8250    0.0000 C.ar    1  LIG1        0.1325
      3 O          -2.1080    3.3000    0.0000 O.2     1  LIG1       -0.4253
      4 C          -2.9750    2.8040    0.0000 C.ar    1  LIG1        0.3453
      5 C          -2.9750    1.8000    0.0000 C.ar    1  LIG1        0.0783
      6 C          -2.1080    1.3290    0.0000 C.ar    1  LIG1       -0.0065
      7 C          -2.0920    0.3290    0.0000 C.3     1  LIG1        0.0316
      8 O          -3.8250    3.3170    0.0000 O.2     1  LIG1       -0.2445
      9 C          -0.3750    3.3250    0.0000 C.3     1  LIG1        0.0728
     10 C          -0.3960    1.2960    0.0000 C.2     1  LIG1        0.3440
     11 O          -0.4210    0.2830    0.0000 O.3     1  LIG1       -0.4368
     12 C           0.4630   -0.2290    0.0000 C.3     1  LIG1        0.2769
     13 C           0.3670   -1.1750    0.0000 C.2     1  LIG1        0.2171
     14 C           1.2330   -1.7000    0.0000 C.ar    1  LIG1        0.0393
     15 C           2.0880   -1.2460    0.0000 C.ar    1  LIG1        0.0152
     16 C           2.9330   -1.7790    0.0000 C.ar    1  LIG1        0.0683
     17 C           2.9540   -2.7500    0.0000 C.ar    1  LIG1        0.0682
     18 C           2.0460   -3.2630    0.0000 C.ar    1  LIG1        0.0123
     19 C           1.2000   -2.7250    0.0000 C.ar    1  LIG1        0.0039
     20 CL          3.8210   -3.3210    0.0000 Cl      1  LIG1       -0.0814
     21 CL          3.7790   -1.2920    0.0000 Cl      1  LIG1       -0.0814
     22 O          -0.5000   -1.6880    0.0000 O.2     1  LIG1       -0.2874
     23 O           0.4920    1.7670    0.0000 O.2     1  LIG1       -0.2448
@<TRIPOS>BOND
     1     1     2   ar
     2     1     6   ar
     3     1    10    1
     4     2     3   ar
     5     2     9    1
     6     3     4   ar
     7     4     5   ar
     8     4     8    2
     9     5     6   ar
    10     6     7    1
    11    10    11    1
    12    10    23    2
    13    11    12    1
    14    12    13    1
    15    13    14    1
    16    13    22    2
    17    14    15   ar
    18    14    19   ar
    19    15    16   ar
    20    16    17   ar
    21    16    21    1
    22    17    18   ar
    23    17    20    1
    24    18    19   ar
