@<TRIPOS>MOLECULE
25636_ChemDiv_8015-7431
 19 21 0 0 0
SMALL
GASTEIGER
Energy = 0

@<TRIPOS>ATOM
      1 N          -0.9210    0.3130    0.0000 N.ar    1  LIG1       -0.2320
      2 C          -0.2960   -0.4750    0.0000 C.ar    1  LIG1        0.1368
      3 S          -0.8250   -1.3170    0.0000 S.2     1  LIG1       -0.0597
      4 C          -1.8000   -1.0790    0.0000 C.ar    1  LIG1        0.0565
      5 C          -1.8580   -0.0670    0.0000 C.ar    1  LIG1        0.0889
      6 C          -2.7210    0.4460    0.0000 C.ar    1  LIG1        0.0182
      7 C          -3.5830   -0.0670    0.0000 C.ar    1  LIG1        0.0015
      8 C          -4.4460    0.4460    0.0000 C.ar    1  LIG1        0.0000
      9 C          -4.4460    1.4330    0.0000 C.ar    1  LIG1        0.0000
     10 C          -3.5830    1.9460    0.0000 C.ar    1  LIG1        0.0000
     11 C          -2.7210    1.4330    0.0000 C.ar    1  LIG1        0.0015
     12 S           0.7210   -0.4750    0.0000 S.3     1  LIG1       -0.0820
     13 C           1.2580   -1.2790    0.0000 C.3     1  LIG1        0.1102
     14 C           2.2540   -1.2920    0.0000 C.ar    1  LIG1        0.0769
     15 N           2.7210   -0.3420    0.0000 N.ar    1  LIG1       -0.2461
     16 C           3.7080   -0.5170    0.0000 C.ar    1  LIG1        0.0883
     17 S           3.8460   -1.4920    0.0000 S.2     1  LIG1       -0.0705
     18 C           2.9580   -1.9420    0.0000 C.ar    1  LIG1        0.0521
     19 C           4.4420    0.1830    0.0000 C.3     1  LIG1        0.0594
@<TRIPOS>BOND
     1     1     2   ar
     2     1     5   ar
     3     2     3   ar
     4     2    12    1
     5     3     4   ar
     6     4     5   ar
     7     5     6    1
     8     6     7   ar
     9     6    11   ar
    10     7     8   ar
    11     8     9   ar
    12     9    10   ar
    13    10    11   ar
    14    12    13    1
    15    13    14    1
    16    14    15   ar
    17    14    18   ar
    18    15    16   ar
    19    16    17   ar
    20    16    19    1
    21    17    18   ar
