@<TRIPOS>MOLECULE
25637_ChemDiv_K844-0620
 26 30 0 0 0
SMALL
GASTEIGER
Energy = 0

@<TRIPOS>ATOM
      1 C          -0.5670    0.1380    0.0000 C.ar    1  LIG1        0.1498
      2 C          -0.5670   -0.8330    0.0000 C.ar    1  LIG1        0.2685
      3 N          -1.3750   -1.2880    0.0000 N.ar    1  LIG1       -0.2932
      4 C          -2.3210   -0.8330    0.0000 C.ar    1  LIG1        0.0656
      5 C          -2.3210    0.1380    0.0000 C.ar    1  LIG1        0.0551
      6 C          -1.4540    0.6540    0.0000 C.ar    1  LIG1        0.2060
      7 O          -1.4540    1.6420    0.0000 O.3     1  LIG1       -0.2862
      8 C          -3.1750    0.6540    0.0000 C.ar    1  LIG1        0.0046
      9 C          -4.0420    0.1380    0.0000 C.ar    1  LIG1        0.0002
     10 C          -4.0420   -0.8330    0.0000 C.ar    1  LIG1        0.0015
     11 C          -3.1750   -1.3540    0.0000 C.ar    1  LIG1        0.0174
     12 C          -1.3540   -2.3830    0.0000 C.3     1  LIG1        0.1335
     13 O           0.3040   -1.3540    0.0000 O.2     1  LIG1       -0.2667
     14 C           0.3040    0.6540    0.0000 C.2     1  LIG1        0.2725
     15 N           1.1500    0.1750    0.0000 N.am    1  LIG1       -0.2049
     16 C           2.0040    0.6750    0.0000 C.3     1  LIG1        0.0789
     17 C           2.4290   -0.2420    0.0000 C.3     1  LIG1        0.0200
     18 C           3.4000   -0.3250    0.0000 C.3     1  LIG1        0.0017
     19 C           4.0370    0.4630    0.0000 C.3     1  LIG1        0.0001
     20 C           3.5830    1.4210    0.0000 C.3     1  LIG1        0.0017
     21 C           2.5170    1.3000    0.0000 C.3     1  LIG1        0.0200
     22 C           3.8040    2.3880    0.0000 C.3     1  LIG1        0.0001
     23 C           3.1000    1.6670    0.0000 C.3     1  LIG1        0.0017
     24 C           2.2130    1.6210    0.0000 C.3     1  LIG1        0.0200
     25 C           3.6960    0.4130    0.0000 C.3     1  LIG1        0.0001
     26 O           0.3040    1.6630    0.0000 O.2     1  LIG1       -0.2681
@<TRIPOS>BOND
     1     1     2   ar
     2     1     6   ar
     3     1    14    1
     4     2     3   ar
     5     2    13    2
     6     3     4   ar
     7     3    12    1
     8     4     5   ar
     9     4    11   ar
    10     5     6   ar
    11     5     8   ar
    12     6     7    1
    13     8     9   ar
    14     9    10   ar
    15    10    11   ar
    16    14    15   am
    17    14    26    2
    18    15    16    1
    19    16    17    1
    20    16    21    1
    21    16    24    1
    22    17    18    1
    23    18    19    1
    24    18    25    1
    25    19    20    1
    26    20    21    1
    27    20    22    1
    28    22    23    1
    29    23    24    1
    30    23    25    1
