@<TRIPOS>MOLECULE
25640_ChemDiv_0815-0159
 17 20 0 0 0
SMALL
GASTEIGER
Energy = 0

@<TRIPOS>ATOM
      1 C          -0.1790   -0.2250    0.0000 C.ar    1  LIG1        0.0563
      2 C           0.0830    0.7540    0.0000 C.ar    1  LIG1        0.1728
      3 N           1.0670    0.9880    0.0000 N.ar    1  LIG1       -0.2592
      4 C           1.7420    0.2500    0.0000 C.ar    1  LIG1        0.1274
      5 N           1.4710   -0.6960    0.0000 N.ar    1  LIG1       -0.2254
      6 C           0.5290   -0.9330    0.0000 C.ar    1  LIG1        0.1143
      7 S           0.1170   -1.8250    0.0000 S.2     1  LIG1       -0.0726
      8 C          -0.8580   -1.7040    0.0000 C.ar    1  LIG1        0.0049
      9 C          -1.0460   -0.6960    0.0000 C.ar    1  LIG1       -0.0152
     10 C          -1.9880   -0.3750    0.0000 C.3     1  LIG1        0.0267
     11 C          -2.7540   -1.0210    0.0000 C.3     1  LIG1        0.0050
     12 C          -2.5790   -2.0040    0.0000 C.3     1  LIG1        0.0055
     13 C          -1.6380   -2.3540    0.0000 C.3     1  LIG1        0.0327
     14 C           2.7500    0.4580    0.0000 C.3     1  LIG1        0.0723
     15 C           1.1210    1.9960    0.0000 C.ar    1  LIG1        0.2077
     16 N           0.1750    2.3580    0.0000 N.ar    1  LIG1       -0.1251
     17 N          -0.4540    1.5790    0.0000 N.ar    1  LIG1       -0.1282
@<TRIPOS>BOND
     1     1     2   ar
     2     1     6   ar
     3     1     9   ar
     4     2     3   ar
     5     2    17   ar
     6     3     4   ar
     7     3    15   ar
     8     4     5   ar
     9     4    14    1
    10     5     6   ar
    11     6     7   ar
    12     7     8   ar
    13     8     9   ar
    14     8    13    1
    15     9    10    1
    16    10    11    1
    17    11    12    1
    18    12    13    1
    19    15    16   ar
    20    16    17   ar
