@<TRIPOS>MOLECULE
25649_ChemDiv_2595-1135
 17 18 0 0 0
SMALL
GASTEIGER
Energy = 0

@<TRIPOS>ATOM
      1 C           0.8630    0.7540    0.0000 C.ar    1  LIG1        0.0720
      2 C          -0.0080    1.2540    0.0000 C.ar    1  LIG1        0.1996
      3 C          -0.8790    0.7540    0.0000 C.ar    1  LIG1        0.0567
      4 C          -0.8790   -0.2710    0.0000 C.ar    1  LIG1        0.0854
      5 N          -0.0210   -0.7750    0.0000 N.ar    1  LIG1       -0.2436
      6 C           0.8630   -0.2710    0.0000 C.ar    1  LIG1        0.1031
      7 C          -1.7290   -0.7750    0.0000 C.ar    1  LIG1        0.0317
      8 C          -1.7290   -1.7630    0.0000 C.2     1  LIG1        0.0743
      9 O          -0.8790   -2.2580    0.0000 O.co2   1  LIG1       -0.5445
     10 O          -2.5880   -2.2580    0.0000 O.co2   1  LIG1       -0.5445
     11 C          -2.5880   -0.2710    0.0000 C.ar    1  LIG1        0.0026
     12 C          -2.5880    0.7540    0.0000 C.ar    1  LIG1        0.0002
     13 C          -1.7290    1.2380    0.0000 C.ar    1  LIG1        0.0047
     14 O          -0.0080    2.2630    0.0000 O.2     1  LIG1       -0.2864
     15 C           1.7250    1.2380    0.0000 C.2     1  LIG1        0.0775
     16 O           1.7250    2.2460    0.0000 O.co2   1  LIG1       -0.5444
     17 O           2.5830    0.7540    0.0000 O.co2   1  LIG1       -0.5444
@<TRIPOS>BOND
     1     1     2   ar
     2     1     6   ar
     3     1    15    1
     4     2     3   ar
     5     2    14    2
     6     3     4   ar
     7     3    13   ar
     8     4     5   ar
     9     4     7   ar
    10     5     6   ar
    11     7     8    1
    12     7    11   ar
    13     8     9   ar
    14     8    10   ar
    15    11    12   ar
    16    12    13   ar
    17    15    16   ar
    18    15    17   ar
