@<TRIPOS>MOLECULE
25642_ChemDiv_1855-0058
 23 25 0 0 0
SMALL
GASTEIGER
Energy = 0

@<TRIPOS>ATOM
      1 C          -1.0580   -0.5000    0.0000 C.ar    1  LIG1        0.1169
      2 C          -1.6380    0.3130    0.0000 C.ar    1  LIG1        0.0779
      3 C          -1.2290    1.2130    0.0000 C.ar    1  LIG1        0.2826
      4 N          -0.2420    1.3130    0.0000 N.ar    1  LIG1       -0.1827
      5 C           0.3460    0.4880    0.0000 C.ar    1  LIG1        0.1936
      6 N          -0.0670   -0.4080    0.0000 N.ar    1  LIG1       -0.2144
      7 S           1.3460    0.5290    0.0000 S.3     1  LIG1       -0.0704
      8 C           1.8960   -0.2920    0.0000 C.3     1  LIG1        0.0966
      9 C           2.8960   -0.2380    0.0000 C.3     1  LIG1        0.0585
     10 C           3.3380    0.6420    0.0000 C.2     1  LIG1        0.0516
     11 O           2.7830    1.5080    0.0000 O.co2   1  LIG1       -0.5491
     12 O           4.3170    0.6130    0.0000 O.co2   1  LIG1       -0.5491
     13 C           1.4540   -1.1710    0.0000 C.2     1  LIG1        0.0608
     14 O           2.0000   -2.0250    0.0000 O.co2   1  LIG1       -0.5483
     15 O           0.4710   -1.1420    0.0000 O.co2   1  LIG1       -0.5483
     16 O          -1.8170    2.0290    0.0000 O.2     1  LIG1       -0.2651
     17 C          -2.6000   -0.0420    0.0000 C.ar    1  LIG1       -0.0135
     18 C          -2.6000   -1.0630    0.0000 C.ar    1  LIG1        0.0049
     19 S          -1.6000   -1.3250    0.0000 S.2     1  LIG1       -0.0725
     20 C          -3.4540   -1.5630    0.0000 C.3     1  LIG1        0.0327
     21 C          -4.3210   -1.0630    0.0000 C.3     1  LIG1        0.0055
     22 C          -4.3210   -0.0630    0.0000 C.3     1  LIG1        0.0050
     23 C          -3.4540    0.4580    0.0000 C.3     1  LIG1        0.0268
@<TRIPOS>BOND
     1     1     2   ar
     2     1     6   ar
     3     1    19   ar
     4     2     3   ar
     5     2    17   ar
     6     3     4   ar
     7     3    16    2
     8     4     5   ar
     9     5     6   ar
    10     5     7    1
    11     7     8    1
    12     8     9    1
    13     8    13    1
    14     9    10    1
    15    10    11   ar
    16    10    12   ar
    17    13    14   ar
    18    13    15   ar
    19    17    18   ar
    20    17    23    1
    21    18    19   ar
    22    18    20    1
    23    20    21    1
    24    21    22    1
    25    22    23    1
