@<TRIPOS>MOLECULE
25648_ChemDiv_3993-2140
 21 24 0 0 0
SMALL
GASTEIGER
Energy = 0

@<TRIPOS>ATOM
      1 C           0.8380   -1.0170    0.0000 C.ar    1  LIG1        0.0517
      2 C           1.3670   -1.8630    0.0000 C.ar    1  LIG1        0.1145
      3 S           0.7250   -2.6540    0.0000 S.2     1  LIG1       -0.0725
      4 C          -0.2000   -2.2790    0.0000 C.ar    1  LIG1        0.0048
      5 C          -0.1630   -1.2750    0.0000 C.ar    1  LIG1       -0.0155
      6 C          -1.0040   -0.7580    0.0000 C.3     1  LIG1        0.0267
      7 C          -1.8830   -1.1960    0.0000 C.3     1  LIG1        0.0050
      8 C          -1.9250   -2.1750    0.0000 C.3     1  LIG1        0.0052
      9 C          -1.0750   -2.7330    0.0000 C.3     1  LIG1        0.0327
     10 C          -2.8420   -2.6540    0.0000 C.3     1  LIG1        0.0004
     11 N           2.3580   -1.8210    0.0000 N.ar    1  LIG1       -0.2173
     12 C           2.8380   -0.9420    0.0000 C.ar    1  LIG1        0.2005
     13 N           2.2920   -0.0920    0.0000 N.ar    1  LIG1       -0.2090
     14 C           1.2790   -0.1330    0.0000 C.ar    1  LIG1        0.1350
     15 N           0.7580    0.7170    0.0000 N.pl3   1  LIG1       -0.2932
     16 C           1.2000    1.6040    0.0000 C.3     1  LIG1        0.0922
     17 C           0.8000    2.4830    0.0000 C.3     1  LIG1        0.0215
     18 C          -0.2000    2.7380    0.0000 C.3     1  LIG1        0.0018
     19 C          -0.9290    2.1880    0.0000 C.3     1  LIG1        0.0018
     20 C          -1.0040    1.1920    0.0000 C.3     1  LIG1        0.0215
     21 C          -0.2290    0.4880    0.0000 C.3     1  LIG1        0.0922
@<TRIPOS>BOND
     1     1     2   ar
     2     1     5   ar
     3     1    14   ar
     4     2     3   ar
     5     2    11   ar
     6     3     4   ar
     7     4     5   ar
     8     4     9    1
     9     5     6    1
    10     6     7    1
    11     7     8    1
    12     8     9    1
    13     8    10    1
    14    11    12   ar
    15    12    13   ar
    16    13    14   ar
    17    14    15    1
    18    15    16    1
    19    15    21    1
    20    16    17    1
    21    17    18    1
    22    18    19    1
    23    19    20    1
    24    20    21    1
