@<TRIPOS>MOLECULE
25644_ChemDiv_3230-0617
 26 30 0 0 0
SMALL
GASTEIGER
Energy = 0

@<TRIPOS>ATOM
      1 N          -1.1000    0.0960    0.0000 N.ar    1  LIG1       -0.1869
      2 N          -1.1000   -0.9460    0.0000 N.ar    1  LIG1       -0.0606
      3 N          -1.9790   -1.4380    0.0000 N.ar    1  LIG1       -0.1301
      4 C          -2.8710   -0.9130    0.0000 C.ar    1  LIG1        0.1091
      5 C          -2.8710    0.0960    0.0000 C.ar    1  LIG1        0.0770
      6 C          -1.9790    0.5880    0.0000 C.ar    1  LIG1        0.2799
      7 O          -1.9790    1.6460    0.0000 O.2     1  LIG1       -0.2654
      8 C          -3.7170    0.5880    0.0000 C.ar    1  LIG1        0.0064
      9 C          -4.5960    0.0960    0.0000 C.ar    1  LIG1        0.0003
     10 C          -4.5960   -0.9460    0.0000 C.ar    1  LIG1        0.0016
     11 C          -3.7170   -1.4380    0.0000 C.ar    1  LIG1        0.0211
     12 C          -0.2130    0.6630    0.0000 C.3     1  LIG1        0.1956
     13 S           0.6670    0.2000    0.0000 S.3     1  LIG1       -0.0681
     14 C           1.5170    0.7250    0.0000 C.ar    1  LIG1        0.1118
     15 C           2.4040    0.2630    0.0000 C.ar    1  LIG1        0.0437
     16 C           3.2540    0.7880    0.0000 C.ar    1  LIG1        0.1138
     17 S           4.0210    0.6080    0.0000 S.2     1  LIG1       -0.0726
     18 C           3.9130   -0.3580    0.0000 C.ar    1  LIG1        0.0048
     19 C           2.9540   -0.5830    0.0000 C.ar    1  LIG1       -0.0162
     20 C           2.6630   -1.5380    0.0000 C.3     1  LIG1        0.0267
     21 C           3.3460   -2.2540    0.0000 C.3     1  LIG1        0.0050
     22 C           4.3250   -2.0290    0.0000 C.3     1  LIG1        0.0055
     23 C           4.5920   -1.0750    0.0000 C.3     1  LIG1        0.0327
     24 N           3.2210    1.8080    0.0000 N.ar    1  LIG1       -0.2173
     25 C           2.3380    2.2580    0.0000 C.ar    1  LIG1        0.1998
     26 N           1.4830    1.7330    0.0000 N.ar    1  LIG1       -0.2176
@<TRIPOS>BOND
     1     1     2   ar
     2     1     6   ar
     3     1    12    1
     4     2     3   ar
     5     3     4   ar
     6     4     5   ar
     7     4    11   ar
     8     5     6   ar
     9     5     8   ar
    10     6     7    2
    11     8     9   ar
    12     9    10   ar
    13    10    11   ar
    14    12    13    1
    15    13    14    1
    16    14    15   ar
    17    14    26   ar
    18    15    16   ar
    19    15    19   ar
    20    16    17   ar
    21    16    24   ar
    22    17    18   ar
    23    18    19   ar
    24    18    23    1
    25    19    20    1
    26    20    21    1
    27    21    22    1
    28    22    23    1
    29    24    25   ar
    30    25    26   ar
