@<TRIPOS>MOLECULE
25650_ChemDiv_8008-7980
 35 38 0 0 0
SMALL
GASTEIGER
Energy = 0

@<TRIPOS>ATOM
      1 N          -2.4210   -1.0290    0.0000 N.am    1  LIG1       -0.2017
      2 C          -1.5960   -0.4540    0.0000 C.2     1  LIG1        0.2589
      3 C          -0.8250   -1.0290    0.0000 C.ar    1  LIG1        0.0588
      4 C          -1.1080   -2.0000    0.0000 C.ar    1  LIG1        0.0587
      5 C          -2.1000   -2.0000    0.0000 C.2     1  LIG1        0.2589
      6 O          -2.7040   -2.8210    0.0000 O.2     1  LIG1       -0.2691
      7 C          -0.4630   -2.7080    0.0000 C.ar    1  LIG1        0.0048
      8 C           0.5040   -2.4960    0.0000 C.ar    1  LIG1        0.0047
      9 C           0.7960   -1.5330    0.0000 C.ar    1  LIG1        0.0555
     10 C           1.7460   -1.2750    0.0000 C.2     1  LIG1        0.2690
     11 N           2.0130   -0.2920    0.0000 N.am    1  LIG1       -0.1754
     12 C           2.9750   -0.0250    0.0000 C.ar    1  LIG1        0.0737
     13 C           3.6960   -0.8170    0.0000 C.ar    1  LIG1        0.0177
     14 C           4.6790   -0.4920    0.0000 C.ar    1  LIG1        0.0153
     15 C           5.3960   -1.1710    0.0000 C.2     1  LIG1        0.0729
     16 O           6.3580   -0.9080    0.0000 O.co2   1  LIG1       -0.5446
     17 O           5.1040   -2.0710    0.0000 O.co2   1  LIG1       -0.5446
     18 C           4.9500    0.5080    0.0000 C.ar    1  LIG1        0.0023
     19 C           4.2130    1.1830    0.0000 C.ar    1  LIG1        0.0153
     20 C           4.4080    2.1460    0.0000 C.2     1  LIG1        0.0729
     21 O           3.6790    2.8250    0.0000 O.co2   1  LIG1       -0.5446
     22 O           5.3380    2.3500    0.0000 O.co2   1  LIG1       -0.5446
     23 C           3.2630    0.8750    0.0000 C.ar    1  LIG1        0.0177
     24 O           2.4750   -2.0000    0.0000 O.2     1  LIG1       -0.2680
     25 C           0.1500   -0.8170    0.0000 C.ar    1  LIG1        0.0093
     26 O          -1.5960    0.5460    0.0000 O.2     1  LIG1       -0.2691
     27 C          -3.3920   -0.8500    0.0000 C.ar    1  LIG1        0.0533
     28 C          -4.0290   -1.6380    0.0000 C.ar    1  LIG1       -0.0083
     29 C          -5.0330   -1.4250    0.0000 C.ar    1  LIG1       -0.0073
     30 C          -5.3540   -0.4540    0.0000 C.ar    1  LIG1       -0.0224
     31 C          -4.6750    0.3000    0.0000 C.ar    1  LIG1       -0.0073
     32 C          -3.7080    0.1130    0.0000 C.ar    1  LIG1       -0.0083
     33 C          -3.1000    0.8920    0.0000 C.3     1  LIG1        0.0323
     34 C          -6.3580   -0.2790    0.0000 C.3     1  LIG1        0.0310
     35 C          -3.7080   -2.6040    0.0000 C.3     1  LIG1        0.0323
@<TRIPOS>BOND
     1     1     2   am
     2     1     5   am
     3     1    27    1
     4     2     3    1
     5     2    26    2
     6     3     4   ar
     7     3    25   ar
     8     4     5    1
     9     4     7   ar
    10     5     6    2
    11     7     8   ar
    12     8     9   ar
    13     9    10    1
    14     9    25   ar
    15    10    11   am
    16    10    24    2
    17    11    12    1
    18    12    13   ar
    19    12    23   ar
    20    13    14   ar
    21    14    15    1
    22    14    18   ar
    23    15    16   ar
    24    15    17   ar
    25    18    19   ar
    26    19    20    1
    27    19    23   ar
    28    20    21   ar
    29    20    22   ar
    30    27    28   ar
    31    27    32   ar
    32    28    29   ar
    33    28    35    1
    34    29    30   ar
    35    30    31   ar
    36    30    34    1
    37    31    32   ar
    38    32    33    1
