@<TRIPOS>MOLECULE
25653_ChemDiv_5212-2912
 17 18 0 0 0
SMALL
GASTEIGER
Energy = 0

@<TRIPOS>ATOM
      1 C           0.8710   -0.2540    0.0000 C.ar    1  LIG1        0.0729
      2 C          -0.0040    0.2580    0.0000 C.ar    1  LIG1        0.0212
      3 C          -0.8710   -0.2420    0.0000 C.ar    1  LIG1        0.0190
      4 C          -0.8710   -1.2500    0.0000 C.ar    1  LIG1        0.0846
      5 N          -0.0040   -1.7540    0.0000 N.ar    1  LIG1       -0.2078
      6 C           0.8630   -1.2540    0.0000 C.ar    1  LIG1        0.2803
      7 O           1.7330   -1.7540    0.0000 O.2     1  LIG1       -0.2652
      8 C          -1.7330   -1.7540    0.0000 C.ar    1  LIG1        0.0192
      9 C          -2.5920   -1.2540    0.0000 C.ar    1  LIG1        0.0015
     10 C          -2.5920   -0.2540    0.0000 C.ar    1  LIG1        0.0001
     11 C          -1.7330    0.2460    0.0000 C.ar    1  LIG1        0.0015
     12 C          -0.0040    1.2580    0.0000 C.2     1  LIG1        0.0731
     13 O          -0.8710    1.7580    0.0000 O.co2   1  LIG1       -0.5446
     14 O           0.8630    1.7580    0.0000 O.co2   1  LIG1       -0.5446
     15 C           1.7330    0.2460    0.0000 C.2     1  LIG1        0.0776
     16 O           1.7330    1.2500    0.0000 O.co2   1  LIG1       -0.5444
     17 O           2.5880   -0.2540    0.0000 O.co2   1  LIG1       -0.5444
@<TRIPOS>BOND
     1     1     2   ar
     2     1     6   ar
     3     1    15    1
     4     2     3   ar
     5     2    12    1
     6     3     4   ar
     7     3    11   ar
     8     4     5   ar
     9     4     8   ar
    10     5     6   ar
    11     6     7    2
    12     8     9   ar
    13     9    10   ar
    14    10    11   ar
    15    12    13   ar
    16    12    14   ar
    17    15    16   ar
    18    15    17   ar
