@<TRIPOS>MOLECULE
25652_ChemDiv_0738-0100
 29 32 0 0 0
SMALL
GASTEIGER
Energy = 0

@<TRIPOS>ATOM
      1 C           1.3080   -0.2540    0.0000 C.ar    1  LIG1        0.0694
      2 C           0.4460   -0.7630    0.0000 C.ar    1  LIG1        0.2011
      3 C          -0.4420   -0.2540    0.0000 C.ar    1  LIG1        0.0734
      4 C          -0.4420    0.7540    0.0000 C.ar    1  LIG1        0.1508
      5 O           0.4460    1.2460    0.0000 O.2     1  LIG1       -0.4574
      6 C           1.3080    0.7540    0.0000 C.ar    1  LIG1        0.1262
      7 C           2.1500    1.2670    0.0000 C.3     1  LIG1        0.0726
      8 C          -1.3040    1.2460    0.0000 C.ar    1  LIG1        0.0741
      9 C          -2.1790    0.7540    0.0000 C.ar    1  LIG1        0.1381
     10 C          -2.1790   -0.2540    0.0000 C.ar    1  LIG1        0.0121
     11 C          -1.3040   -0.7630    0.0000 C.ar    1  LIG1        0.0050
     12 C          -3.0250   -0.7500    0.0000 C.3     1  LIG1        0.0294
     13 C          -3.8710   -0.2630    0.0000 C.3     1  LIG1        0.0051
     14 O          -3.0420    1.2670    0.0000 O.3     1  LIG1       -0.4696
     15 C          -3.9080    0.7540    0.0000 C.3     1  LIG1        0.2468
     16 C          -4.7790    1.2670    0.0000 C.2     1  LIG1        0.0940
     17 O          -5.6380    0.7540    0.0000 O.co2   1  LIG1       -0.5454
     18 O          -4.7790    2.2580    0.0000 O.co2   1  LIG1       -0.5454
     19 O           0.4460   -1.7540    0.0000 O.2     1  LIG1       -0.2864
     20 C           2.1750   -0.7630    0.0000 C.ar    1  LIG1        0.0089
     21 C           3.0420   -0.2540    0.0000 C.ar    1  LIG1        0.0402
     22 C           3.9040   -0.7630    0.0000 C.ar    1  LIG1        0.1724
     23 C           3.9040   -1.7540    0.0000 C.ar    1  LIG1        0.1724
     24 O           4.7710   -2.2540    0.0000 O.3     1  LIG1       -0.4684
     25 C           5.6330   -1.7540    0.0000 C.3     1  LIG1        0.2526
     26 C           5.6330   -0.7630    0.0000 C.3     1  LIG1        0.2526
     27 O           4.7710   -0.2540    0.0000 O.3     1  LIG1       -0.4684
     28 C           3.0420   -2.2540    0.0000 C.ar    1  LIG1        0.0400
     29 C           2.1750   -1.7540    0.0000 C.ar    1  LIG1        0.0035
@<TRIPOS>BOND
     1     1     2   ar
     2     1     6   ar
     3     1    20    1
     4     2     3   ar
     5     2    19    2
     6     3     4   ar
     7     3    11   ar
     8     4     5   ar
     9     4     8   ar
    10     5     6   ar
    11     6     7    1
    12     8     9   ar
    13     9    10   ar
    14     9    14    1
    15    10    11   ar
    16    10    12    1
    17    12    13    1
    18    14    15    1
    19    15    16    1
    20    16    17   ar
    21    16    18   ar
    22    20    21   ar
    23    20    29   ar
    24    21    22   ar
    25    22    23   ar
    26    22    27    1
    27    23    24    1
    28    23    28   ar
    29    24    25    1
    30    25    26    1
    31    26    27    1
    32    28    29   ar
