@<TRIPOS>MOLECULE
25659_ChemDiv_C200-1456
 15 16 0 0 0
SMALL
GASTEIGER
Energy = 0

@<TRIPOS>ATOM
      1 C           1.3000    0.0080    0.0000 C.ar    1  LIG1        0.0927
      2 C           0.4250    0.5130    0.0000 C.ar    1  LIG1        0.2013
      3 C          -0.4380    0.0080    0.0000 C.ar    1  LIG1        0.0564
      4 C          -0.4420   -1.0040    0.0000 C.ar    1  LIG1        0.0844
      5 N           0.4250   -1.5040    0.0000 N.ar    1  LIG1       -0.2435
      6 C           1.3000   -1.0040    0.0000 C.ar    1  LIG1        0.1048
      7 C          -1.3040   -1.5000    0.0000 C.ar    1  LIG1        0.0189
      8 C          -2.1670   -1.0000    0.0000 C.ar    1  LIG1       -0.0027
      9 C          -2.1670   -0.0040    0.0000 C.ar    1  LIG1       -0.0217
     10 C          -1.3040    0.5040    0.0000 C.ar    1  LIG1        0.0004
     11 C          -3.0250    0.4960    0.0000 C.3     1  LIG1        0.0310
     12 O           0.4250    1.5080    0.0000 O.2     1  LIG1       -0.2864
     13 C           2.1580    0.4960    0.0000 C.2     1  LIG1        0.1781
     14 O           2.1580    1.4920    0.0000 O.2     1  LIG1       -0.2912
     15 C           3.0210   -0.0040    0.0000 C.3     1  LIG1        0.0774
@<TRIPOS>BOND
     1     1     2   ar
     2     1     6   ar
     3     1    13    1
     4     2     3   ar
     5     2    12    2
     6     3     4   ar
     7     3    10   ar
     8     4     5   ar
     9     4     7   ar
    10     5     6   ar
    11     7     8   ar
    12     8     9   ar
    13     9    10   ar
    14     9    11    1
    15    13    14    2
    16    13    15    1
