@<TRIPOS>MOLECULE
25658_ChemDiv_0760-0058
 17 19 0 0 0
SMALL
GASTEIGER
Energy = 0

@<TRIPOS>ATOM
      1 C           0.3500   -0.9290    0.0000 C.ar    1  LIG1        0.0388
      2 C           0.9500   -1.6880    0.0000 C.ar    1  LIG1        0.1454
      3 O           0.3710   -2.5250    0.0000 O.2     1  LIG1       -0.4535
      4 C          -0.5880   -2.2420    0.0000 C.ar    1  LIG1        0.1453
      5 C          -0.5880   -1.2290    0.0000 C.ar    1  LIG1        0.0375
      6 C          -1.4500   -0.7290    0.0000 C.ar    1  LIG1        0.0031
      7 C          -2.3210   -1.2290    0.0000 C.ar    1  LIG1        0.0002
      8 C          -2.3210   -2.2420    0.0000 C.ar    1  LIG1        0.0031
      9 C          -1.4500   -2.7420    0.0000 C.ar    1  LIG1        0.0375
     10 C           1.9380   -1.5540    0.0000 C.ar    1  LIG1        0.0388
     11 C           2.3170   -0.6290    0.0000 C.ar    1  LIG1        0.0197
     12 C           1.6960    0.1540    0.0000 C.ar    1  LIG1        0.0736
     13 C           0.7000    0.0130    0.0000 C.ar    1  LIG1        0.0197
     14 N           2.0790    1.0630    0.0000 N.am    1  LIG1       -0.1792
     15 C           1.4750    1.8540    0.0000 C.2     1  LIG1        0.2461
     16 O           0.4250    1.8330    0.0000 O.2     1  LIG1       -0.2730
     17 C           1.8500    2.7460    0.0000 C.3     1  LIG1        0.0968
@<TRIPOS>BOND
     1     1     2   ar
     2     1     5   ar
     3     1    13   ar
     4     2     3   ar
     5     2    10   ar
     6     3     4   ar
     7     4     5   ar
     8     4     9   ar
     9     5     6   ar
    10     6     7   ar
    11     7     8   ar
    12     8     9   ar
    13    10    11   ar
    14    11    12   ar
    15    12    13   ar
    16    12    14    1
    17    14    15   am
    18    15    16    2
    19    15    17    1
