@<TRIPOS>MOLECULE
25666_ChemDiv_5055-7578
 26 30 0 0 0
SMALL
GASTEIGER
Energy = 0

@<TRIPOS>ATOM
      1 N          -0.4580   -0.1880    0.0000 N.ar    1  LIG1       -0.1929
      2 C           0.1080   -1.0500    0.0000 C.ar    1  LIG1        0.1682
      3 C          -0.3710   -1.9130    0.0000 C.ar    1  LIG1        0.0560
      4 C           0.1170   -2.7750    0.0000 C.ar    1  LIG1        0.1144
      5 S          -0.5290   -3.5420    0.0000 S.2     1  LIG1       -0.0726
      6 C          -1.4250   -3.1670    0.0000 C.ar    1  LIG1        0.0049
      7 C          -1.3540   -2.2000    0.0000 C.ar    1  LIG1       -0.0152
      8 C          -2.1920   -1.6330    0.0000 C.3     1  LIG1        0.0267
      9 C          -3.1170   -2.1040    0.0000 C.3     1  LIG1        0.0050
     10 C          -3.1170   -3.0920    0.0000 C.3     1  LIG1        0.0055
     11 C          -2.3130   -3.6380    0.0000 C.3     1  LIG1        0.0327
     12 N           1.1250   -2.7080    0.0000 N.ar    1  LIG1       -0.2241
     13 C           1.6420   -1.8250    0.0000 C.ar    1  LIG1        0.1413
     14 N           1.0750   -0.9830    0.0000 N.ar    1  LIG1       -0.2118
     15 C           2.6130   -1.8250    0.0000 C.3     1  LIG1        0.0658
     16 C           3.1130   -0.9540    0.0000 C.3     1  LIG1        0.0084
     17 N          -1.4250   -0.0250    0.0000 N.ar    1  LIG1       -0.0582
     18 N          -1.6170    0.9670    0.0000 N.ar    1  LIG1       -0.1284
     19 C          -0.7210    1.4380    0.0000 C.ar    1  LIG1        0.1218
     20 C           0.0130    0.6790    0.0000 C.ar    1  LIG1        0.1050
     21 C           0.9330    0.9670    0.0000 C.ar    1  LIG1        0.0163
     22 C           1.1960    1.9880    0.0000 C.ar    1  LIG1       -0.0242
     23 C           0.5000    2.6330    0.0000 C.ar    1  LIG1       -0.0241
     24 C          -0.4580    2.3710    0.0000 C.ar    1  LIG1        0.0179
     25 C           0.7790    3.6420    0.0000 C.3     1  LIG1        0.0307
     26 C           2.1540    2.2500    0.0000 C.3     1  LIG1        0.0307
@<TRIPOS>BOND
     1     1     2    1
     2     1    17   ar
     3     1    20   ar
     4     2     3   ar
     5     2    14   ar
     6     3     4   ar
     7     3     7   ar
     8     4     5   ar
     9     4    12   ar
    10     5     6   ar
    11     6     7   ar
    12     6    11    1
    13     7     8    1
    14     8     9    1
    15     9    10    1
    16    10    11    1
    17    12    13   ar
    18    13    14   ar
    19    13    15    1
    20    15    16    1
    21    17    18   ar
    22    18    19   ar
    23    19    20   ar
    24    19    24   ar
    25    20    21   ar
    26    21    22   ar
    27    22    23   ar
    28    22    26    1
    29    23    24   ar
    30    23    25    1
