@<TRIPOS>MOLECULE
25668_ChemDiv_5218-2268
 30 35 0 0 0
SMALL
GASTEIGER
Energy = 0

@<TRIPOS>ATOM
      1 C           1.2210    0.9630    0.0000 C.ar    1  LIG1        0.2412
      2 N           0.3960    0.4960    0.0000 N.ar    1  LIG1       -0.2493
      3 C          -0.4130    0.9380    0.0000 C.ar    1  LIG1        0.1024
      4 C          -0.3880    1.8880    0.0000 C.ar    1  LIG1        0.0749
      5 C           0.4250    2.3540    0.0000 C.ar    1  LIG1        0.2647
      6 N           1.2210    1.9000    0.0000 N.ar    1  LIG1       -0.2631
      7 C           2.1580    1.9000    0.0000 C.3     1  LIG1        0.1366
      8 O           0.4250    3.3210    0.0000 O.2     1  LIG1       -0.2668
      9 C          -2.0420    1.9170    0.0000 C.ar    1  LIG1       -0.0136
     10 C          -2.0380    0.9750    0.0000 C.ar    1  LIG1        0.0049
     11 S          -1.2380    0.4920    0.0000 S.2     1  LIG1       -0.0738
     12 C          -2.8380    0.5080    0.0000 C.3     1  LIG1        0.0327
     13 C          -3.6580    0.9670    0.0000 C.3     1  LIG1        0.0052
     14 C          -3.6580    1.9040    0.0000 C.3     1  LIG1        0.0050
     15 C          -2.8500    2.3750    0.0000 C.3     1  LIG1        0.0268
     16 C          -4.4670    0.4920    0.0000 C.3     1  LIG1        0.0004
     17 C           0.3830   -0.4420    0.0000 C.ar    1  LIG1        0.1989
     18 N           2.0170   -0.4540    0.0000 N.ar    1  LIG1       -0.1203
     19 N           2.0250    0.4830    0.0000 N.ar    1  LIG1       -0.1092
     20 S          -0.2880   -1.1000    0.0000 S.3     1  LIG1       -0.0705
     21 C           0.1830   -1.9130    0.0000 C.3     1  LIG1        0.0915
     22 C           1.1170   -1.9040    0.0000 C.ar    1  LIG1       -0.0077
     23 C           1.9290   -1.4380    0.0000 C.ar    1  LIG1        0.0368
     24 C           2.7420   -1.9040    0.0000 C.ar    1  LIG1        0.1761
     25 C           2.7420   -2.8500    0.0000 C.ar    1  LIG1        0.1764
     26 O           3.5540   -3.3170    0.0000 O.3     1  LIG1       -0.4346
     27 C           4.4630   -2.5080    0.0000 C.3     1  LIG1        0.4294
     28 O           3.5540   -1.4250    0.0000 O.3     1  LIG1       -0.4346
     29 C           1.9290   -3.3170    0.0000 C.ar    1  LIG1        0.0399
     30 C           1.1170   -2.8500    0.0000 C.ar    1  LIG1       -0.0001
@<TRIPOS>BOND
     1     1     2   ar
     2     1     6   ar
     3     1    19   ar
     4     2     3   ar
     5     2    17   ar
     6     3     4   ar
     7     3    11   ar
     8     4     5   ar
     9     4     9   ar
    10     5     6   ar
    11     5     8    2
    12     6     7    1
    13     9    10   ar
    14     9    15    1
    15    10    11   ar
    16    10    12    1
    17    12    13    1
    18    13    14    1
    19    13    16    1
    20    14    15    1
    21    17    18   ar
    22    17    20    1
    23    18    19   ar
    24    20    21    1
    25    21    22    1
    26    22    23   ar
    27    22    30   ar
    28    23    24   ar
    29    24    25   ar
    30    24    28    1
    31    25    26    1
    32    25    29   ar
    33    26    27    1
    34    27    28    1
    35    29    30   ar
