@<TRIPOS>MOLECULE
25678_ChemDiv_C258-0377
 27 30 0 0 0
SMALL
GASTEIGER
Energy = 0

@<TRIPOS>ATOM
      1 N          -0.6630   -0.4750    0.0000 N.ar    1  LIG1       -0.2663
      2 C          -1.5380    0.0210    0.0000 C.ar    1  LIG1        0.0983
      3 C          -1.5330    1.0380    0.0000 C.ar    1  LIG1        0.0749
      4 C          -0.6580    1.5290    0.0000 C.ar    1  LIG1        0.2696
      5 N           0.2000    1.0380    0.0000 N.ar    1  LIG1       -0.2272
      6 C           0.2000    0.0380    0.0000 C.ar    1  LIG1        0.3384
      7 O           1.0580   -0.4710    0.0000 O.2     1  LIG1       -0.2458
      8 C           1.0580    1.5210    0.0000 C.ar    1  LIG1        0.0711
      9 C           1.0710    2.4960    0.0000 C.ar    1  LIG1        0.0174
     10 C           1.9170    2.9790    0.0000 C.ar    1  LIG1       -0.0028
     11 C           2.7710    2.4830    0.0000 C.ar    1  LIG1       -0.0221
     12 C           2.7630    1.5000    0.0000 C.ar    1  LIG1       -0.0028
     13 C           1.9040    1.0170    0.0000 C.ar    1  LIG1        0.0174
     14 C           3.6380    2.9750    0.0000 C.3     1  LIG1        0.0264
     15 C           4.4960    2.4790    0.0000 C.3     1  LIG1        0.0050
     16 O          -0.6580    2.5250    0.0000 O.2     1  LIG1       -0.2664
     17 C          -2.4790    1.3630    0.0000 C.ar    1  LIG1       -0.0136
     18 C          -3.0960    0.5500    0.0000 C.ar    1  LIG1        0.0049
     19 S          -2.5130   -0.2790    0.0000 S.2     1  LIG1       -0.0742
     20 C          -4.1080    0.6710    0.0000 C.3     1  LIG1        0.0327
     21 C          -4.5000    1.6080    0.0000 C.3     1  LIG1        0.0055
     22 C          -3.8880    2.4210    0.0000 C.3     1  LIG1        0.0050
     23 C          -2.8790    2.2960    0.0000 C.3     1  LIG1        0.0268
     24 C          -0.6500   -1.4670    0.0000 C.3     1  LIG1        0.1993
     25 C          -1.5080   -1.9750    0.0000 C.2     1  LIG1        0.2839
     26 O          -2.3750   -1.4960    0.0000 O.2     1  LIG1       -0.2695
     27 N          -1.5000   -2.9750    0.0000 N.am    1  LIG1       -0.0861
@<TRIPOS>BOND
     1     1     2   ar
     2     1     6   ar
     3     1    24    1
     4     2     3   ar
     5     2    19   ar
     6     3     4   ar
     7     3    17   ar
     8     4     5   ar
     9     4    16    2
    10     5     6   ar
    11     5     8    1
    12     6     7    2
    13     8     9   ar
    14     8    13   ar
    15     9    10   ar
    16    10    11   ar
    17    11    12   ar
    18    11    14    1
    19    12    13   ar
    20    14    15    1
    21    17    18   ar
    22    17    23    1
    23    18    19   ar
    24    18    20    1
    25    20    21    1
    26    21    22    1
    27    22    23    1
    28    24    25    1
    29    25    26    2
    30    25    27   am
