@<TRIPOS>MOLECULE
25677_ChemDiv_8016-1264
 27 31 0 0 0
SMALL
GASTEIGER
Energy = 0

@<TRIPOS>ATOM
      1 C           1.3540   -0.7290    0.0000 C.ar    1  LIG1        0.1712
      2 C           1.3540   -1.7290    0.0000 C.ar    1  LIG1        0.1851
      3 N           0.4040   -2.0380    0.0000 N.ar    1  LIG1       -0.2102
      4 N          -0.1830   -1.2290    0.0000 N.ar    1  LIG1       -0.0621
      5 N           0.4040   -0.4170    0.0000 N.ar    1  LIG1       -0.1243
      6 C          -0.0960   -2.9000    0.0000 C.3     1  LIG1        0.1572
      7 C          -1.0960   -2.9000    0.0000 C.ar    1  LIG1        0.0022
      8 C          -1.5960   -2.0380    0.0000 C.ar    1  LIG1       -0.0021
      9 C          -2.5960   -2.0380    0.0000 C.ar    1  LIG1       -0.0002
     10 C          -3.0960   -2.9000    0.0000 C.ar    1  LIG1       -0.0000
     11 C          -2.5960   -3.7670    0.0000 C.ar    1  LIG1       -0.0003
     12 C          -1.5960   -3.7670    0.0000 C.ar    1  LIG1       -0.0023
     13 C          -3.0960   -1.1750    0.0000 C.ar    1  LIG1       -0.0000
     14 C          -2.5960   -0.3040    0.0000 C.ar    1  LIG1       -0.0000
     15 C          -1.5960   -0.3040    0.0000 C.ar    1  LIG1       -0.0000
     16 C          -1.0960   -1.1750    0.0000 C.ar    1  LIG1       -0.0003
     17 N           2.2170   -2.2290    0.0000 N.ar    1  LIG1       -0.2034
     18 C           3.0920   -1.7290    0.0000 C.ar    1  LIG1        0.2015
     19 N           3.0920   -0.7290    0.0000 N.ar    1  LIG1       -0.2073
     20 C           2.2170   -0.2290    0.0000 C.ar    1  LIG1        0.1564
     21 N           2.2170    0.7670    0.0000 N.pl3   1  LIG1       -0.2810
     22 C           3.0920    1.2670    0.0000 C.3     1  LIG1        0.1555
     23 C           3.0920    2.2670    0.0000 C.3     1  LIG1        0.1608
     24 N           2.2170    2.7670    0.0000 N.4     1  LIG1        0.3847
     25 C           1.3540    2.2670    0.0000 C.3     1  LIG1        0.1608
     26 C           1.3540    1.2670    0.0000 C.3     1  LIG1        0.1555
     27 C           2.2170    3.7710    0.0000 C.3     1  LIG1        0.2024
@<TRIPOS>BOND
     1     1     2   ar
     2     1     5   ar
     3     1    20   ar
     4     2     3   ar
     5     2    17   ar
     6     3     4   ar
     7     3     6    1
     8     4     5   ar
     9     6     7    1
    10     7     8   ar
    11     7    12   ar
    12     8     9   ar
    13     8    16   ar
    14     9    10   ar
    15     9    13   ar
    16    10    11   ar
    17    11    12   ar
    18    13    14   ar
    19    14    15   ar
    20    15    16   ar
    21    17    18   ar
    22    18    19   ar
    23    19    20   ar
    24    20    21    1
    25    21    22    1
    26    21    26    1
    27    22    23    1
    28    23    24    1
    29    24    25    1
    30    24    27    1
    31    25    26    1
