@<TRIPOS>MOLECULE
25672_ChemDiv_8012-8730
 27 31 0 0 0
SMALL
GASTEIGER
Energy = 0

@<TRIPOS>ATOM
      1 N          -0.1210   -0.7710    0.0000 N.ar    1  LIG1       -0.2728
      2 C          -0.1210   -1.6960    0.0000 C.ar    1  LIG1        0.1742
      3 N          -0.9330   -2.1540    0.0000 N.ar    1  LIG1       -0.2158
      4 C          -1.7420   -1.6960    0.0000 C.ar    1  LIG1        0.1168
      5 C          -1.7420   -0.7710    0.0000 C.ar    1  LIG1        0.0763
      6 C          -0.9330   -0.3130    0.0000 C.ar    1  LIG1        0.2641
      7 O          -0.9330    0.6790    0.0000 O.2     1  LIG1       -0.2669
      8 C          -3.3630   -0.7710    0.0000 C.ar    1  LIG1       -0.0136
      9 C          -3.3630   -1.6960    0.0000 C.ar    1  LIG1        0.0049
     10 S          -2.5540   -2.1540    0.0000 S.2     1  LIG1       -0.0725
     11 C          -4.1670   -2.1540    0.0000 C.3     1  LIG1        0.0327
     12 C          -4.9830   -1.6960    0.0000 C.3     1  LIG1        0.0055
     13 C          -4.9830   -0.7710    0.0000 C.3     1  LIG1        0.0050
     14 C          -4.1670   -0.3130    0.0000 C.3     1  LIG1        0.0268
     15 S           0.6880   -2.1540    0.0000 S.3     1  LIG1       -0.0749
     16 C           1.4960   -1.6960    0.0000 C.3     1  LIG1        0.0923
     17 C           1.4960   -0.7710    0.0000 C.3     1  LIG1        0.1240
     18 C           2.3250   -0.3130    0.0000 C.ar    1  LIG1        0.0033
     19 C           2.3250    0.6500    0.0000 C.ar    1  LIG1        0.0124
     20 C           3.2000    1.1670    0.0000 C.ar    1  LIG1        0.0993
     21 C           4.0710    0.6500    0.0000 C.ar    1  LIG1        0.2396
     22 C           4.0710   -0.3130    0.0000 C.ar    1  LIG1        0.1780
     23 C           3.2000   -0.8290    0.0000 C.ar    1  LIG1        0.0378
     24 O           4.9790   -0.8580    0.0000 O.3     1  LIG1       -0.4682
     25 C           4.9790   -1.8330    0.0000 C.3     1  LIG1        0.2526
     26 O           4.9460    1.1670    0.0000 O.3     1  LIG1       -0.2824
     27 CL          3.2000    2.1580    0.0000 Cl      1  LIG1       -0.0788
@<TRIPOS>BOND
     1     1     2   ar
     2     1     6   ar
     3     1    17    1
     4     2     3   ar
     5     2    15    1
     6     3     4   ar
     7     4     5   ar
     8     4    10   ar
     9     5     6   ar
    10     5     8   ar
    11     6     7    2
    12     8     9   ar
    13     8    14    1
    14     9    10   ar
    15     9    11    1
    16    11    12    1
    17    12    13    1
    18    13    14    1
    19    15    16    1
    20    16    17    1
    21    17    18    1
    22    18    19   ar
    23    18    23   ar
    24    19    20   ar
    25    20    21   ar
    26    20    27    1
    27    21    22   ar
    28    21    26    1
    29    22    23   ar
    30    22    24    1
    31    24    25    1
