@<TRIPOS>MOLECULE
25674_ChemDiv_8013-2920
 18 21 0 0 0
SMALL
GASTEIGER
Energy = 0

@<TRIPOS>ATOM
      1 C           0.8420    0.1250    0.0000 C.ar    1  LIG1        0.1680
      2 C           0.0330   -0.3500    0.0000 C.ar    1  LIG1        0.0560
      3 C           0.0330   -1.2830    0.0000 C.ar    1  LIG1        0.1144
      4 N           0.8290   -1.7460    0.0000 N.ar    1  LIG1       -0.2240
      5 C           1.6380   -1.2830    0.0000 C.ar    1  LIG1        0.1432
      6 N           1.6500   -0.3500    0.0000 N.ar    1  LIG1       -0.1975
      7 N           2.4500    0.1250    0.0000 N.ar    1  LIG1       -0.1477
      8 C           2.4500    1.0420    0.0000 C.ar    1  LIG1        0.1612
      9 N           0.8420    1.0420    0.0000 N.ar    1  LIG1       -0.2100
     10 C           3.1880    1.7630    0.0000 C.3     1  LIG1        0.0756
     11 C           2.4500   -1.7580    0.0000 C.3     1  LIG1        0.0738
     12 S          -0.7630   -1.7460    0.0000 S.2     1  LIG1       -0.0726
     13 C          -1.5710   -1.2830    0.0000 C.ar    1  LIG1        0.0049
     14 C          -1.5710   -0.3500    0.0000 C.ar    1  LIG1       -0.0152
     15 C          -2.3790    0.1250    0.0000 C.3     1  LIG1        0.0267
     16 C          -3.1920   -0.3500    0.0000 C.3     1  LIG1        0.0050
     17 C          -3.1920   -1.2830    0.0000 C.3     1  LIG1        0.0055
     18 C          -2.3790   -1.7460    0.0000 C.3     1  LIG1        0.0327
@<TRIPOS>BOND
     1     1     2   ar
     2     1     6   ar
     3     1     9   ar
     4     2     3   ar
     5     2    14   ar
     6     3     4   ar
     7     3    12   ar
     8     4     5   ar
     9     5     6   ar
    10     5    11    1
    11     6     7   ar
    12     7     8   ar
    13     8     9   ar
    14     8    10    1
    15    12    13   ar
    16    13    14   ar
    17    13    18    1
    18    14    15    1
    19    15    16    1
    20    16    17    1
    21    17    18    1
