@<TRIPOS>MOLECULE
25676_ChemDiv_8017-2213
 19 22 0 0 0
SMALL
GASTEIGER
Energy = 0

@<TRIPOS>ATOM
      1 C          -0.7040   -0.5290    0.0000 C.ar    1  LIG1        0.0560
      2 C           0.1040   -0.0630    0.0000 C.ar    1  LIG1        0.1685
      3 N           0.9170   -0.5380    0.0000 N.ar    1  LIG1       -0.1905
      4 N           1.7250   -0.0670    0.0000 N.ar    1  LIG1       -0.1474
      5 C           1.7170    0.8710    0.0000 C.ar    1  LIG1        0.1608
      6 N           0.1040    0.8830    0.0000 N.ar    1  LIG1       -0.2100
      7 C           2.3790    1.5380    0.0000 C.3     1  LIG1        0.0676
      8 C           3.2880    1.2960    0.0000 C.3     1  LIG1        0.0080
      9 C           3.9500    1.9580    0.0000 C.3     1  LIG1        0.0005
     10 C           0.9040   -1.4790    0.0000 C.ar    1  LIG1        0.2020
     11 N           0.0880   -1.9420    0.0000 N.ar    1  LIG1       -0.2172
     12 C          -0.7170   -1.4670    0.0000 C.ar    1  LIG1        0.1148
     13 S          -1.5210   -1.9540    0.0000 S.2     1  LIG1       -0.0725
     14 C          -2.3290   -1.4790    0.0000 C.ar    1  LIG1        0.0049
     15 C          -2.3290   -0.5420    0.0000 C.ar    1  LIG1       -0.0152
     16 C          -3.1290   -0.0670    0.0000 C.3     1  LIG1        0.0267
     17 C          -3.9500   -0.5290    0.0000 C.3     1  LIG1        0.0050
     18 C          -3.9540   -1.4750    0.0000 C.3     1  LIG1        0.0055
     19 C          -3.1420   -1.9500    0.0000 C.3     1  LIG1        0.0327
@<TRIPOS>BOND
     1     1     2   ar
     2     1    12   ar
     3     1    15   ar
     4     2     3   ar
     5     2     6   ar
     6     3     4   ar
     7     3    10   ar
     8     4     5   ar
     9     5     6   ar
    10     5     7    1
    11     7     8    1
    12     8     9    1
    13    10    11   ar
    14    11    12   ar
    15    12    13   ar
    16    13    14   ar
    17    14    15   ar
    18    14    19    1
    19    15    16    1
    20    16    17    1
    21    17    18    1
    22    18    19    1
