@<TRIPOS>MOLECULE
25670_ChemDiv_8009-7512
 29 33 0 0 0
SMALL
GASTEIGER
Energy = 0

@<TRIPOS>ATOM
      1 N           1.2540    0.2670    0.0000 N.ar    1  LIG1       -0.2542
      2 C           1.2540   -0.7210    0.0000 C.ar    1  LIG1        0.1783
      3 N           0.4000   -1.2080    0.0000 N.ar    1  LIG1       -0.2155
      4 C          -0.4460   -0.7210    0.0000 C.ar    1  LIG1        0.1168
      5 C          -0.4460    0.2670    0.0000 C.ar    1  LIG1        0.0766
      6 C           0.4130    0.7500    0.0000 C.ar    1  LIG1        0.2677
      7 O           0.4130    1.7290    0.0000 O.2     1  LIG1       -0.2665
      8 C          -2.1330    0.2670    0.0000 C.ar    1  LIG1       -0.0136
      9 C          -2.1210   -0.7210    0.0000 C.ar    1  LIG1        0.0049
     10 S          -1.2880   -1.2080    0.0000 S.2     1  LIG1       -0.0725
     11 C          -2.9750   -1.1960    0.0000 C.3     1  LIG1        0.0327
     12 C          -3.8170   -0.7210    0.0000 C.3     1  LIG1        0.0055
     13 C          -3.8170    0.2670    0.0000 C.3     1  LIG1        0.0050
     14 C          -2.9750    0.7630    0.0000 C.3     1  LIG1        0.0268
     15 S           2.1000   -1.2210    0.0000 S.3     1  LIG1       -0.0670
     16 C           2.1000   -2.1920    0.0000 C.3     1  LIG1        0.1532
     17 C           2.9420   -2.6920    0.0000 C.2     1  LIG1        0.2722
     18 O           2.9420   -3.6670    0.0000 O.2     1  LIG1       -0.2707
     19 N           3.7880   -2.1920    0.0000 N.am    1  LIG1       -0.0870
     20 C           2.1130    0.7460    0.0000 C.ar    1  LIG1        0.0686
     21 C           2.1130    1.7040    0.0000 C.ar    1  LIG1        0.0163
     22 C           2.9750    2.1960    0.0000 C.ar    1  LIG1        0.0014
     23 C           3.8130    1.6920    0.0000 C.ar    1  LIG1        0.0001
     24 C           3.8130    0.7330    0.0000 C.ar    1  LIG1        0.0015
     25 C           2.9540    0.2460    0.0000 C.ar    1  LIG1        0.0177
     26 C           2.9880    3.1750    0.0000 C.ar    1  LIG1        0.0000
     27 C           2.1460    3.6710    0.0000 C.ar    1  LIG1        0.0000
     28 C           1.2790    3.2000    0.0000 C.ar    1  LIG1        0.0000
     29 C           1.2670    2.2170    0.0000 C.ar    1  LIG1        0.0014
@<TRIPOS>BOND
     1     1     2   ar
     2     1     6   ar
     3     1    20    1
     4     2     3   ar
     5     2    15    1
     6     3     4   ar
     7     4     5   ar
     8     4    10   ar
     9     5     6   ar
    10     5     8   ar
    11     6     7    2
    12     8     9   ar
    13     8    14    1
    14     9    10   ar
    15     9    11    1
    16    11    12    1
    17    12    13    1
    18    13    14    1
    19    15    16    1
    20    16    17    1
    21    17    18    2
    22    17    19   am
    23    20    21   ar
    24    20    25   ar
    25    21    22   ar
    26    21    29   ar
    27    22    23   ar
    28    22    26   ar
    29    23    24   ar
    30    24    25   ar
    31    26    27   ar
    32    27    28   ar
    33    28    29   ar
