@<TRIPOS>MOLECULE
25679_ChemDiv_K402-0508
 23 25 0 0 0
SMALL
GASTEIGER
Energy = 0

@<TRIPOS>ATOM
      1 N           0.9920   -0.6790    0.0000 N.ar    1  LIG1       -0.2120
      2 C           0.0380   -0.3750    0.0000 C.ar    1  LIG1        0.1697
      3 C           0.0290    0.6210    0.0000 C.ar    1  LIG1        0.0883
      4 C          -0.8420    1.1210    0.0000 C.ar    1  LIG1        0.1379
      5 N          -1.7040    0.6080    0.0000 N.ar    1  LIG1       -0.2089
      6 C          -1.6920   -0.3920    0.0000 C.ar    1  LIG1        0.2014
      7 N          -0.8290   -0.8920    0.0000 N.ar    1  LIG1       -0.2047
      8 N          -0.8580    2.1130    0.0000 N.pl3   1  LIG1       -0.2931
      9 C           0.0170    2.6170    0.0000 C.3     1  LIG1        0.0922
     10 C           0.8830    2.1380    0.0000 C.3     1  LIG1        0.0215
     11 C           1.7460    2.6460    0.0000 C.3     1  LIG1        0.0018
     12 C          -1.7250    2.6000    0.0000 C.3     1  LIG1        0.0922
     13 C          -1.7380    3.5960    0.0000 C.3     1  LIG1        0.0215
     14 C          -2.6130    4.0790    0.0000 C.3     1  LIG1        0.0018
     15 C           0.9750    0.9420    0.0000 C.ar    1  LIG1        0.1264
     16 N           1.5750    0.1380    0.0000 N.ar    1  LIG1       -0.1620
     17 C           1.3080   -1.6290    0.0000 C.ar    1  LIG1        0.0841
     18 C           0.6500   -2.3750    0.0000 C.ar    1  LIG1        0.0150
     19 C           0.9750   -3.3290    0.0000 C.ar    1  LIG1       -0.0204
     20 C           1.9420   -3.5250    0.0000 C.ar    1  LIG1       -0.0042
     21 C           2.6080   -2.7670    0.0000 C.ar    1  LIG1        0.0012
     22 C           2.3000   -1.8290    0.0000 C.ar    1  LIG1        0.0192
     23 C           0.3250   -4.0790    0.0000 C.3     1  LIG1        0.0311
@<TRIPOS>BOND
     1     1     2   ar
     2     1    16   ar
     3     1    17    1
     4     2     3   ar
     5     2     7   ar
     6     3     4   ar
     7     3    15   ar
     8     4     5   ar
     9     4     8    1
    10     5     6   ar
    11     6     7   ar
    12     8     9    1
    13     8    12    1
    14     9    10    1
    15    10    11    1
    16    12    13    1
    17    13    14    1
    18    15    16   ar
    19    17    18   ar
    20    17    22   ar
    21    18    19   ar
    22    19    20   ar
    23    19    23    1
    24    20    21   ar
    25    21    22   ar
