@<TRIPOS>MOLECULE
25671_ChemDiv_0633-0010
 34 39 0 0 0
SMALL
GASTEIGER
Energy = 0

@<TRIPOS>ATOM
      1 C           0.7880   -1.1080    0.0000 C.ar    1  LIG1        0.0883
      2 C           0.7880   -2.1210    0.0000 C.ar    1  LIG1        0.1697
      3 N           1.7460   -2.3960    0.0000 N.ar    1  LIG1       -0.2120
      4 N           2.3210   -1.6130    0.0000 N.ar    1  LIG1       -0.1620
      5 C           1.7460   -0.8170    0.0000 C.ar    1  LIG1        0.1264
      6 C           1.7830   -3.3920    0.0000 C.ar    1  LIG1        0.0844
      7 C           0.9130   -3.8710    0.0000 C.ar    1  LIG1        0.0192
      8 C           0.9380   -4.8960    0.0000 C.ar    1  LIG1        0.0015
      9 C           1.8170   -5.3750    0.0000 C.ar    1  LIG1        0.0001
     10 C           2.6880   -4.8290    0.0000 C.ar    1  LIG1        0.0015
     11 C           2.6500   -3.8460    0.0000 C.ar    1  LIG1        0.0192
     12 N          -0.0670   -2.6080    0.0000 N.ar    1  LIG1       -0.2047
     13 C          -0.9250   -2.0960    0.0000 C.ar    1  LIG1        0.2014
     14 N          -0.9250   -1.1380    0.0000 N.ar    1  LIG1       -0.2088
     15 C          -0.0670   -0.6170    0.0000 C.ar    1  LIG1        0.1383
     16 N          -0.0670    0.3670    0.0000 N.pl3   1  LIG1       -0.2822
     17 C          -0.9250    0.8670    0.0000 C.3     1  LIG1        0.1555
     18 C          -0.9250    1.8710    0.0000 C.3     1  LIG1        0.1611
     19 N          -0.0670    2.3710    0.0000 N.4     1  LIG1        0.3820
     20 C          -0.0670    3.3670    0.0000 C.3     1  LIG1        0.1331
     21 C          -0.9250    3.8540    0.0000 C.ar    1  LIG1        0.0328
     22 C          -0.9250    4.8670    0.0000 C.ar    1  LIG1        0.0016
     23 C          -1.7880    5.3540    0.0000 C.ar    1  LIG1       -0.0001
     24 C          -2.6710    4.8460    0.0000 C.ar    1  LIG1       -0.0000
     25 C          -2.6920    3.8540    0.0000 C.ar    1  LIG1       -0.0001
     26 C          -1.7960    3.3670    0.0000 C.ar    1  LIG1        0.0016
     27 C           0.7880    3.8540    0.0000 C.ar    1  LIG1        0.0328
     28 C           0.7880    4.8710    0.0000 C.ar    1  LIG1        0.0016
     29 C           1.6710    5.3750    0.0000 C.ar    1  LIG1       -0.0001
     30 C           2.5670    4.8460    0.0000 C.ar    1  LIG1       -0.0000
     31 C           2.5460    3.8420    0.0000 C.ar    1  LIG1       -0.0001
     32 C           1.6460    3.3460    0.0000 C.ar    1  LIG1        0.0016
     33 C           0.8040    1.8710    0.0000 C.3     1  LIG1        0.1611
     34 C           0.8040    0.8670    0.0000 C.3     1  LIG1        0.1555
@<TRIPOS>BOND
     1     1     2   ar
     2     1     5   ar
     3     1    15   ar
     4     2     3   ar
     5     2    12   ar
     6     3     4   ar
     7     3     6    1
     8     4     5   ar
     9     6     7   ar
    10     6    11   ar
    11     7     8   ar
    12     8     9   ar
    13     9    10   ar
    14    10    11   ar
    15    12    13   ar
    16    13    14   ar
    17    14    15   ar
    18    15    16    1
    19    16    17    1
    20    16    34    1
    21    17    18    1
    22    18    19    1
    23    19    20    1
    24    19    33    1
    25    20    21    1
    26    20    27    1
    27    21    22   ar
    28    21    26   ar
    29    22    23   ar
    30    23    24   ar
    31    24    25   ar
    32    25    26   ar
    33    27    28   ar
    34    27    32   ar
    35    28    29   ar
    36    29    30   ar
    37    30    31   ar
    38    31    32   ar
    39    33    34    1
