@<TRIPOS>MOLECULE
25680_ChemDiv_C367-0082
 34 39 0 0 0
SMALL
GASTEIGER
Energy = 0

@<TRIPOS>ATOM
      1 C           1.0040    2.7460    0.0000 C.ar    1  LIG1        0.1549
      2 N           0.1630    2.2420    0.0000 N.ar    1  LIG1       -0.2211
      3 C          -0.7040    2.7460    0.0000 C.ar    1  LIG1        0.1163
      4 C          -0.7130    3.7330    0.0000 C.ar    1  LIG1        0.0766
      5 C           0.1540    4.2420    0.0000 C.ar    1  LIG1        0.2674
      6 N           1.0040    3.7330    0.0000 N.ar    1  LIG1       -0.2576
      7 C           1.8830    4.2460    0.0000 C.ar    1  LIG1        0.0844
      8 C           2.7460    3.7330    0.0000 C.ar    1  LIG1        0.0194
      9 C           2.7460    2.7460    0.0000 C.ar    1  LIG1        0.0091
     10 C           1.8830    2.2420    0.0000 C.ar    1  LIG1        0.0896
     11 C           1.8830    1.2580    0.0000 C.2     1  LIG1        0.2677
     12 N           1.0210    0.7580    0.0000 N.am    1  LIG1       -0.2029
     13 C           1.0210   -0.2420    0.0000 C.3     1  LIG1        0.1075
     14 C           0.1540   -0.7460    0.0000 C.3     1  LIG1        0.0845
     15 C           0.1540   -1.7460    0.0000 C.3     1  LIG1        0.1408
     16 N           1.0210   -2.2380    0.0000 N.4     1  LIG1        0.3808
     17 C           1.0380   -3.2420    0.0000 C.3     1  LIG1        0.1662
     18 C           1.9040   -3.7420    0.0000 C.ar    1  LIG1        0.0344
     19 C           2.7670   -3.2290    0.0000 C.ar    1  LIG1        0.0014
     20 C           3.6420   -3.7290    0.0000 C.ar    1  LIG1       -0.0001
     21 C           3.6420   -4.7330    0.0000 C.ar    1  LIG1       -0.0000
     22 C           2.7750   -5.2380    0.0000 C.ar    1  LIG1       -0.0001
     23 C           1.9130   -4.7460    0.0000 C.ar    1  LIG1        0.0014
     24 C           1.8880   -1.7330    0.0000 C.3     1  LIG1        0.1408
     25 C           1.8880   -0.7290    0.0000 C.3     1  LIG1        0.0845
     26 O           2.7460    0.7580    0.0000 O.2     1  LIG1       -0.2683
     27 O           0.1540    5.2380    0.0000 O.2     1  LIG1       -0.2665
     28 C          -1.6540    4.0330    0.0000 C.ar    1  LIG1       -0.0136
     29 C          -2.2290    3.2420    0.0000 C.ar    1  LIG1        0.0049
     30 S          -1.6540    2.4250    0.0000 S.2     1  LIG1       -0.0725
     31 C          -3.2330    3.3330    0.0000 C.3     1  LIG1        0.0327
     32 C          -3.6460    4.2420    0.0000 C.3     1  LIG1        0.0055
     33 C          -3.0710    5.0630    0.0000 C.3     1  LIG1        0.0050
     34 C          -2.0630    4.9630    0.0000 C.3     1  LIG1        0.0268
@<TRIPOS>BOND
     1     1     2   ar
     2     1     6   ar
     3     1    10   ar
     4     2     3   ar
     5     3     4   ar
     6     3    30   ar
     7     4     5   ar
     8     4    28   ar
     9     5     6   ar
    10     5    27    2
    11     6     7   ar
    12     7     8   ar
    13     8     9   ar
    14     9    10   ar
    15    10    11    1
    16    11    12   am
    17    11    26    2
    18    12    13    1
    19    13    14    1
    20    13    25    1
    21    14    15    1
    22    15    16    1
    23    16    17    1
    24    16    24    1
    25    17    18    1
    26    18    19   ar
    27    18    23   ar
    28    19    20   ar
    29    20    21   ar
    30    21    22   ar
    31    22    23   ar
    32    24    25    1
    33    28    29   ar
    34    28    34    1
    35    29    30   ar
    36    29    31    1
    37    31    32    1
    38    32    33    1
    39    33    34    1
