@<TRIPOS>MOLECULE
25699_ChemDiv_K405-2479
 29 33 0 0 0
SMALL
GASTEIGER
Energy = 0

@<TRIPOS>ATOM
      1 C          -0.4670   -1.8170    0.0000 C.ar    1  LIG1        0.0883
      2 C          -0.4670   -2.7790    0.0000 C.ar    1  LIG1        0.1697
      3 N          -1.2830   -3.2670    0.0000 N.ar    1  LIG1       -0.2120
      4 N          -2.1130   -2.7880    0.0000 N.ar    1  LIG1       -0.1620
      5 C          -2.1130   -1.8170    0.0000 C.ar    1  LIG1        0.1264
      6 C          -1.2830   -4.2210    0.0000 C.ar    1  LIG1        0.0844
      7 C          -0.4670   -4.7000    0.0000 C.ar    1  LIG1        0.0192
      8 C          -0.4540   -5.6580    0.0000 C.ar    1  LIG1        0.0015
      9 C          -1.2830   -6.1420    0.0000 C.ar    1  LIG1        0.0001
     10 C          -2.1130   -5.6630    0.0000 C.ar    1  LIG1        0.0015
     11 C          -2.1130   -4.7000    0.0000 C.ar    1  LIG1        0.0192
     12 N           0.3670   -3.2580    0.0000 N.ar    1  LIG1       -0.2047
     13 C           1.2000   -2.7790    0.0000 C.ar    1  LIG1        0.2014
     14 N           1.1960   -1.8170    0.0000 N.ar    1  LIG1       -0.2088
     15 C           0.3670   -1.3500    0.0000 C.ar    1  LIG1        0.1383
     16 N           0.3670   -0.3500    0.0000 N.pl3   1  LIG1       -0.2822
     17 C           1.2330    0.1380    0.0000 C.3     1  LIG1        0.1555
     18 C           1.2330    1.1460    0.0000 C.3     1  LIG1        0.1605
     19 N           0.3790    1.6460    0.0000 N.4     1  LIG1        0.3802
     20 C          -0.5000    1.1330    0.0000 C.3     1  LIG1        0.1605
     21 C          -0.5000    0.1500    0.0000 C.3     1  LIG1        0.1555
     22 C           0.3790    2.6460    0.0000 C.3     1  LIG1        0.1435
     23 C           1.2420    3.1460    0.0000 C.3     1  LIG1        0.0890
     24 C           1.2420    4.1420    0.0000 C.ar    1  LIG1       -0.0162
     25 C           2.1080    4.6420    0.0000 C.ar    1  LIG1       -0.0041
     26 C           2.1080    5.6420    0.0000 C.ar    1  LIG1       -0.0003
     27 C           1.2420    6.1420    0.0000 C.ar    1  LIG1       -0.0000
     28 C           0.3670    5.6380    0.0000 C.ar    1  LIG1       -0.0003
     29 C           0.3670    4.6330    0.0000 C.ar    1  LIG1       -0.0041
@<TRIPOS>BOND
     1     1     2   ar
     2     1     5   ar
     3     1    15   ar
     4     2     3   ar
     5     2    12   ar
     6     3     4   ar
     7     3     6    1
     8     4     5   ar
     9     6     7   ar
    10     6    11   ar
    11     7     8   ar
    12     8     9   ar
    13     9    10   ar
    14    10    11   ar
    15    12    13   ar
    16    13    14   ar
    17    14    15   ar
    18    15    16    1
    19    16    17    1
    20    16    21    1
    21    17    18    1
    22    18    19    1
    23    19    20    1
    24    19    22    1
    25    20    21    1
    26    22    23    1
    27    23    24    1
    28    24    25   ar
    29    24    29   ar
    30    25    26   ar
    31    26    27   ar
    32    27    28   ar
    33    28    29   ar
