@<TRIPOS>MOLECULE
25705_ChemDiv_K405-2658
 30 34 0 0 0
SMALL
GASTEIGER
Energy = 0

@<TRIPOS>ATOM
      1 C           1.1710   -2.1460    0.0000 C.ar    1  LIG1        0.0880
      2 C           1.1580   -3.1420    0.0000 C.ar    1  LIG1        0.1654
      3 N           2.1080   -3.4630    0.0000 N.ar    1  LIG1       -0.2318
      4 N           2.7040   -2.6630    0.0000 N.ar    1  LIG1       -0.1662
      5 C           2.1290   -1.8420    0.0000 C.ar    1  LIG1        0.1260
      6 C           2.4040   -4.4210    0.0000 C.3     1  LIG1        0.1554
      7 N           0.2920   -3.6290    0.0000 N.ar    1  LIG1       -0.2050
      8 C          -0.5580   -3.1170    0.0000 C.ar    1  LIG1        0.2014
      9 N          -0.5420   -2.1130    0.0000 N.ar    1  LIG1       -0.2088
     10 C           0.3210   -1.6380    0.0000 C.ar    1  LIG1        0.1382
     11 N           0.3380   -0.6420    0.0000 N.pl3   1  LIG1       -0.2822
     12 C           1.2170   -0.1580    0.0000 C.3     1  LIG1        0.1555
     13 C           1.2330    0.8420    0.0000 C.3     1  LIG1        0.1611
     14 N           0.3790    1.3580    0.0000 N.4     1  LIG1        0.3820
     15 C           0.3960    2.3630    0.0000 C.3     1  LIG1        0.1331
     16 C          -0.4670    2.8790    0.0000 C.ar    1  LIG1        0.0328
     17 C          -0.4380    3.8790    0.0000 C.ar    1  LIG1        0.0024
     18 C          -1.3040    4.3920    0.0000 C.ar    1  LIG1        0.0113
     19 C          -2.1750    3.9080    0.0000 C.ar    1  LIG1        0.0577
     20 C          -2.1880    2.8920    0.0000 C.ar    1  LIG1        0.0113
     21 C          -1.3330    2.3920    0.0000 C.ar    1  LIG1        0.0024
     22 CL         -3.0290    4.4210    0.0000 Cl      1  LIG1       -0.0822
     23 C           1.2750    2.8460    0.0000 C.ar    1  LIG1        0.0328
     24 C           1.2880    3.8460    0.0000 C.ar    1  LIG1        0.0016
     25 C           2.1580    4.3250    0.0000 C.ar    1  LIG1       -0.0001
     26 C           3.0250    3.8040    0.0000 C.ar    1  LIG1       -0.0000
     27 C           3.0040    2.8130    0.0000 C.ar    1  LIG1       -0.0001
     28 C           2.1290    2.3250    0.0000 C.ar    1  LIG1        0.0016
     29 C          -0.5000    0.8710    0.0000 C.3     1  LIG1        0.1611
     30 C          -0.5130   -0.1290    0.0000 C.3     1  LIG1        0.1555
@<TRIPOS>BOND
     1     1     2   ar
     2     1     5   ar
     3     1    10   ar
     4     2     3   ar
     5     2     7   ar
     6     3     4   ar
     7     3     6    1
     8     4     5   ar
     9     7     8   ar
    10     8     9   ar
    11     9    10   ar
    12    10    11    1
    13    11    12    1
    14    11    30    1
    15    12    13    1
    16    13    14    1
    17    14    15    1
    18    14    29    1
    19    15    16    1
    20    15    23    1
    21    16    17   ar
    22    16    21   ar
    23    17    18   ar
    24    18    19   ar
    25    19    20   ar
    26    19    22    1
    27    20    21   ar
    28    23    24   ar
    29    23    28   ar
    30    24    25   ar
    31    25    26   ar
    32    26    27   ar
    33    27    28   ar
    34    29    30    1
