@<TRIPOS>MOLECULE
25707_ChemDiv_0635-0022
 19 22 0 0 0
SMALL
GASTEIGER
Energy = 0

@<TRIPOS>ATOM
      1 C           0.2460   -0.9710    0.0000 C.ar    1  LIG1        0.1617
      2 C           0.2460    0.0290    0.0000 C.ar    1  LIG1        0.1167
      3 C           1.1830    0.3330    0.0000 C.ar    1  LIG1        0.0369
      4 C           1.7670   -0.4830    0.0000 C.ar    1  LIG1        0.0627
      5 N           1.1830   -1.2750    0.0000 N.ar    1  LIG1       -0.3095
      6 C           1.4880   -2.2540    0.0000 C.3     1  LIG1        0.1319
      7 C           2.7670   -0.3880    0.0000 C.ar    1  LIG1        0.0178
      8 C           3.1960    0.5250    0.0000 C.ar    1  LIG1        0.0082
      9 C           2.5880    1.3460    0.0000 C.ar    1  LIG1        0.0347
     10 C           1.6170    1.2500    0.0000 C.ar    1  LIG1        0.0097
     11 BR          2.9540    2.2580    0.0000 Br      1  LIG1       -0.0490
     12 N          -0.6130    0.5250    0.0000 N.ar    1  LIG1       -0.2408
     13 C          -1.5000    0.0290    0.0000 C.ar    1  LIG1        0.0990
     14 C          -1.5000   -0.9710    0.0000 C.ar    1  LIG1        0.1005
     15 N          -0.6130   -1.4920    0.0000 N.ar    1  LIG1       -0.2252
     16 C          -2.3420   -1.4920    0.0000 C.ar    1  LIG1        0.0207
     17 C          -3.2000   -0.9710    0.0000 C.ar    1  LIG1        0.0016
     18 C          -3.2000    0.0290    0.0000 C.ar    1  LIG1        0.0016
     19 C          -2.3420    0.5250    0.0000 C.ar    1  LIG1        0.0206
@<TRIPOS>BOND
     1     1     2   ar
     2     1     5   ar
     3     1    15   ar
     4     2     3   ar
     5     2    12   ar
     6     3     4   ar
     7     3    10   ar
     8     4     5   ar
     9     4     7   ar
    10     5     6    1
    11     7     8   ar
    12     8     9   ar
    13     9    10   ar
    14     9    11    1
    15    12    13   ar
    16    13    14   ar
    17    13    19   ar
    18    14    15   ar
    19    14    16   ar
    20    16    17   ar
    21    17    18   ar
    22    18    19   ar
