@<TRIPOS>MOLECULE
25700_ChemDiv_0819-0367
 12 12 0 0 0
SMALL
GASTEIGER
Energy = 0

@<TRIPOS>ATOM
      1 C          -0.4130   -0.0790    0.0000 C.ar    1  LIG1        0.1763
      2 C          -1.4040   -0.0790    0.0000 C.ar    1  LIG1        0.1003
      3 C          -1.7250   -1.0330    0.0000 C.ar    1  LIG1        0.1169
      4 S          -0.9040   -1.6380    0.0000 S.2     1  LIG1        0.0257
      5 N          -0.0880   -1.0330    0.0000 N.ar    1  LIG1       -0.2009
      6 CL         -2.6830   -1.3170    0.0000 Cl      1  LIG1       -0.0727
      7 CL         -1.9710    0.7250    0.0000 Cl      1  LIG1       -0.0790
      8 C           0.1580    0.7250    0.0000 C.2     1  LIG1        0.3607
      9 O          -0.2290    1.6420    0.0000 O.2     1  LIG1       -0.2431
     10 O           1.1670    0.6790    0.0000 O.3     1  LIG1       -0.4444
     11 C           1.6920    1.5210    0.0000 C.3     1  LIG1        0.2089
     12 C           2.6790    1.4880    0.0000 C.3     1  LIG1        0.0513
@<TRIPOS>BOND
     1     1     2   ar
     2     1     5   ar
     3     1     8    1
     4     2     3   ar
     5     2     7    1
     6     3     4   ar
     7     3     6    1
     8     4     5   ar
     9     8     9    2
    10     8    10    1
    11    10    11    1
    12    11    12    1
