@<TRIPOS>MOLECULE
25703_ChemDiv_K405-2543
 29 33 0 0 0
SMALL
GASTEIGER
Energy = 0

@<TRIPOS>ATOM
      1 C           0.7460   -2.1290    0.0000 C.ar    1  LIG1        0.0880
      2 C           0.7290   -3.1290    0.0000 C.ar    1  LIG1        0.1654
      3 N           1.6830   -3.4500    0.0000 N.ar    1  LIG1       -0.2318
      4 N           2.2790   -2.6500    0.0000 N.ar    1  LIG1       -0.1662
      5 C           1.7040   -1.8290    0.0000 C.ar    1  LIG1        0.1260
      6 C           1.9750   -4.4130    0.0000 C.3     1  LIG1        0.1554
      7 N          -0.1380   -3.6170    0.0000 N.ar    1  LIG1       -0.2050
      8 C          -0.9880   -3.1040    0.0000 C.ar    1  LIG1        0.2014
      9 N          -0.9710   -2.1000    0.0000 N.ar    1  LIG1       -0.2088
     10 C          -0.1040   -1.6250    0.0000 C.ar    1  LIG1        0.1382
     11 N          -0.0920   -0.6250    0.0000 N.pl3   1  LIG1       -0.2822
     12 C           0.7920   -0.1460    0.0000 C.3     1  LIG1        0.1555
     13 C           0.8210    0.8540    0.0000 C.3     1  LIG1        0.1611
     14 N          -0.0460    1.3750    0.0000 N.4     1  LIG1        0.3820
     15 C          -0.0210    2.3790    0.0000 C.3     1  LIG1        0.1331
     16 C           0.8500    2.8670    0.0000 C.ar    1  LIG1        0.0328
     17 C           1.7130    2.3500    0.0000 C.ar    1  LIG1        0.0016
     18 C           2.5830    2.8330    0.0000 C.ar    1  LIG1       -0.0001
     19 C           2.6000    3.8380    0.0000 C.ar    1  LIG1       -0.0000
     20 C           1.7420    4.3380    0.0000 C.ar    1  LIG1       -0.0001
     21 C           0.8670    3.8630    0.0000 C.ar    1  LIG1        0.0016
     22 C          -0.8880    2.9040    0.0000 C.ar    1  LIG1        0.0328
     23 C          -0.8670    3.9000    0.0000 C.ar    1  LIG1        0.0016
     24 C          -1.7170    4.4130    0.0000 C.ar    1  LIG1       -0.0001
     25 C          -2.6000    3.9290    0.0000 C.ar    1  LIG1       -0.0000
     26 C          -2.6040    2.9250    0.0000 C.ar    1  LIG1       -0.0001
     27 C          -1.7630    2.4210    0.0000 C.ar    1  LIG1        0.0016
     28 C          -0.9250    0.8880    0.0000 C.3     1  LIG1        0.1611
     29 C          -0.9420   -0.1130    0.0000 C.3     1  LIG1        0.1555
@<TRIPOS>BOND
     1     1     2   ar
     2     1     5   ar
     3     1    10   ar
     4     2     3   ar
     5     2     7   ar
     6     3     4   ar
     7     3     6    1
     8     4     5   ar
     9     7     8   ar
    10     8     9   ar
    11     9    10   ar
    12    10    11    1
    13    11    12    1
    14    11    29    1
    15    12    13    1
    16    13    14    1
    17    14    15    1
    18    14    28    1
    19    15    16    1
    20    15    22    1
    21    16    17   ar
    22    16    21   ar
    23    17    18   ar
    24    18    19   ar
    25    19    20   ar
    26    20    21   ar
    27    22    23   ar
    28    22    27   ar
    29    23    24   ar
    30    24    25   ar
    31    25    26   ar
    32    26    27   ar
    33    28    29    1
