@<TRIPOS>MOLECULE
25701_ChemDiv_K405-2503
 36 41 0 0 0
SMALL
GASTEIGER
Energy = 0

@<TRIPOS>ATOM
      1 C          -0.8460   -1.0710    0.0000 C.ar    1  LIG1        0.0880
      2 C          -0.8460   -2.0250    0.0000 C.ar    1  LIG1        0.1657
      3 N          -1.6710   -2.5130    0.0000 N.ar    1  LIG1       -0.2293
      4 N          -2.4960   -2.0330    0.0000 N.ar    1  LIG1       -0.1660
      5 C          -2.4960   -1.0710    0.0000 C.ar    1  LIG1        0.1260
      6 C          -1.6710   -3.4750    0.0000 C.3     1  LIG1        0.1554
      7 C          -0.8460   -3.9630    0.0000 C.ar    1  LIG1        0.0021
      8 C          -0.0040   -3.4750    0.0000 C.ar    1  LIG1       -0.0027
      9 C           0.8330   -3.9540    0.0000 C.ar    1  LIG1       -0.0045
     10 C           0.8380   -4.9290    0.0000 C.ar    1  LIG1       -0.0219
     11 C          -0.0040   -5.4170    0.0000 C.ar    1  LIG1       -0.0045
     12 C          -0.8460   -4.9290    0.0000 C.ar    1  LIG1       -0.0027
     13 C           1.6710   -5.4040    0.0000 C.3     1  LIG1        0.0310
     14 N          -0.0040   -2.5130    0.0000 N.ar    1  LIG1       -0.2050
     15 C           0.8330   -2.0250    0.0000 C.ar    1  LIG1        0.2014
     16 N           0.8290   -1.0580    0.0000 N.ar    1  LIG1       -0.2088
     17 C          -0.0040   -0.5920    0.0000 C.ar    1  LIG1        0.1382
     18 N          -0.0040    0.4080    0.0000 N.pl3   1  LIG1       -0.2822
     19 C           0.8670    0.9000    0.0000 C.3     1  LIG1        0.1555
     20 C           0.8670    1.9130    0.0000 C.3     1  LIG1        0.1611
     21 N          -0.0040    2.4130    0.0000 N.4     1  LIG1        0.3820
     22 C          -0.0040    3.4080    0.0000 C.3     1  LIG1        0.1331
     23 C           0.8630    3.9130    0.0000 C.ar    1  LIG1        0.0328
     24 C           0.8630    4.9170    0.0000 C.ar    1  LIG1        0.0016
     25 C           1.7130    5.4170    0.0000 C.ar    1  LIG1       -0.0001
     26 C           2.5790    4.9170    0.0000 C.ar    1  LIG1       -0.0000
     27 C           2.5880    3.9130    0.0000 C.ar    1  LIG1       -0.0001
     28 C           1.7250    3.4130    0.0000 C.ar    1  LIG1        0.0016
     29 C          -0.8670    3.9080    0.0000 C.ar    1  LIG1        0.0328
     30 C          -0.8670    4.9040    0.0000 C.ar    1  LIG1        0.0016
     31 C          -1.7290    5.4000    0.0000 C.ar    1  LIG1       -0.0001
     32 C          -2.5920    4.9040    0.0000 C.ar    1  LIG1       -0.0000
     33 C          -2.5920    3.9080    0.0000 C.ar    1  LIG1       -0.0001
     34 C          -1.7290    3.4080    0.0000 C.ar    1  LIG1        0.0016
     35 C          -0.8630    1.9130    0.0000 C.3     1  LIG1        0.1611
     36 C          -0.8630    0.9000    0.0000 C.3     1  LIG1        0.1555
@<TRIPOS>BOND
     1     1     2   ar
     2     1     5   ar
     3     1    17   ar
     4     2     3   ar
     5     2    14   ar
     6     3     4   ar
     7     3     6    1
     8     4     5   ar
     9     6     7    1
    10     7     8   ar
    11     7    12   ar
    12     8     9   ar
    13     9    10   ar
    14    10    11   ar
    15    10    13    1
    16    11    12   ar
    17    14    15   ar
    18    15    16   ar
    19    16    17   ar
    20    17    18    1
    21    18    19    1
    22    18    36    1
    23    19    20    1
    24    20    21    1
    25    21    22    1
    26    21    35    1
    27    22    23    1
    28    22    29    1
    29    23    24   ar
    30    23    28   ar
    31    24    25   ar
    32    25    26   ar
    33    26    27   ar
    34    27    28   ar
    35    29    30   ar
    36    29    34   ar
    37    30    31   ar
    38    31    32   ar
    39    32    33   ar
    40    33    34   ar
    41    35    36    1
