@<TRIPOS>MOLECULE
25711_ChemDiv_3337-0616
 19 22 0 0 0
SMALL
GASTEIGER
Energy = 0

@<TRIPOS>ATOM
      1 C           0.2460   -0.1790    0.0000 C.ar    1  LIG1        0.1616
      2 C          -0.3540    0.6210    0.0000 C.ar    1  LIG1        0.1167
      3 N           0.0830    1.5290    0.0000 N.ar    1  LIG1       -0.2408
      4 C           1.0540    1.6250    0.0000 C.ar    1  LIG1        0.0990
      5 C           1.6580    0.8170    0.0000 C.ar    1  LIG1        0.1005
      6 N           1.2540   -0.0790    0.0000 N.ar    1  LIG1       -0.2252
      7 C           2.6290    0.9250    0.0000 C.ar    1  LIG1        0.0207
      8 C           3.0330    1.8670    0.0000 C.ar    1  LIG1        0.0016
      9 C           2.4670    2.6710    0.0000 C.ar    1  LIG1        0.0016
     10 C           1.4580    2.5330    0.0000 C.ar    1  LIG1        0.0206
     11 C          -1.2960    0.3210    0.0000 C.ar    1  LIG1        0.0364
     12 C          -1.2960   -0.6830    0.0000 C.ar    1  LIG1        0.0626
     13 N          -0.3540   -0.9880    0.0000 N.ar    1  LIG1       -0.3115
     14 C          -0.0540   -1.9210    0.0000 C.3     1  LIG1        0.1076
     15 C          -0.7580   -2.6670    0.0000 C.3     1  LIG1        0.0265
     16 C          -2.1670   -1.1830    0.0000 C.ar    1  LIG1        0.0173
     17 C          -3.0380   -0.6830    0.0000 C.ar    1  LIG1        0.0015
     18 C          -3.0380    0.3210    0.0000 C.ar    1  LIG1        0.0001
     19 C          -2.1670    0.8170    0.0000 C.ar    1  LIG1        0.0030
@<TRIPOS>BOND
     1     1     2   ar
     2     1     6   ar
     3     1    13   ar
     4     2     3   ar
     5     2    11   ar
     6     3     4   ar
     7     4     5   ar
     8     4    10   ar
     9     5     6   ar
    10     5     7   ar
    11     7     8   ar
    12     8     9   ar
    13     9    10   ar
    14    11    12   ar
    15    11    19   ar
    16    12    13   ar
    17    12    16   ar
    18    13    14    1
    19    14    15    1
    20    16    17   ar
    21    17    18   ar
    22    18    19   ar
