@<TRIPOS>MOLECULE
25712_ChemDiv_0836-0009
 25 27 0 0 0
SMALL
GASTEIGER
Energy = 0

@<TRIPOS>ATOM
      1 C          -0.5460   -2.1630    0.0000 C.ar    1  LIG1        0.1119
      2 C           0.3880   -2.4540    0.0000 C.2     1  LIG1        0.3443
      3 O           0.9710   -1.6330    0.0000 O.3     1  LIG1       -0.4441
      4 C           0.3880   -0.8540    0.0000 C.3     1  LIG1        0.1994
      5 C          -0.5460   -1.1460    0.0000 C.ar    1  LIG1        0.0271
      6 C          -1.4170   -0.6460    0.0000 C.ar    1  LIG1        0.0027
      7 C          -2.2920   -1.1460    0.0000 C.ar    1  LIG1        0.0398
      8 C          -2.2920   -2.1630    0.0000 C.ar    1  LIG1        0.1726
      9 C          -1.4170   -2.6540    0.0000 C.ar    1  LIG1        0.1783
     10 O          -1.4170   -3.6750    0.0000 O.3     1  LIG1       -0.4682
     11 C          -0.5460   -4.1630    0.0000 C.3     1  LIG1        0.2526
     12 O          -3.1750   -2.6540    0.0000 O.3     1  LIG1       -0.4684
     13 C          -4.0130   -2.1630    0.0000 C.3     1  LIG1        0.2526
     14 C           0.6920    0.0920    0.0000 C.3     1  LIG1        0.1173
     15 C           1.6790    0.3000    0.0000 C.2     1  LIG1        0.1770
     16 C           2.0040    1.2290    0.0000 C.ar    1  LIG1        0.0348
     17 C           1.3670    2.0040    0.0000 C.ar    1  LIG1        0.0025
     18 C           1.7000    2.9670    0.0000 C.ar    1  LIG1       -0.0042
     19 C           2.6830    3.1130    0.0000 C.ar    1  LIG1       -0.0222
     20 C           3.3290    2.3380    0.0000 C.ar    1  LIG1       -0.0042
     21 C           2.9710    1.3920    0.0000 C.ar    1  LIG1        0.0025
     22 C           3.0380    4.0170    0.0000 C.3     1  LIG1        0.0264
     23 C           4.0080    4.1630    0.0000 C.3     1  LIG1        0.0050
     24 O           2.3170   -0.4710    0.0000 O.2     1  LIG1       -0.2912
     25 O           0.7330   -3.4380    0.0000 O.2     1  LIG1       -0.2448
@<TRIPOS>BOND
     1     1     2    1
     2     1     5   ar
     3     1     9   ar
     4     2     3    1
     5     2    25    2
     6     3     4    1
     7     4     5    1
     8     4    14    1
     9     5     6   ar
    10     6     7   ar
    11     7     8   ar
    12     8     9   ar
    13     8    12    1
    14     9    10    1
    15    10    11    1
    16    12    13    1
    17    14    15    1
    18    15    16    1
    19    15    24    2
    20    16    17   ar
    21    16    21   ar
    22    17    18   ar
    23    18    19   ar
    24    19    20   ar
    25    19    22    1
    26    20    21   ar
    27    22    23    1
