@<TRIPOS>MOLECULE
25710_ChemDiv_0833-0155
 23 24 0 0 0
SMALL
GASTEIGER
Energy = 0

@<TRIPOS>ATOM
      1 C          -0.8790    0.4960    0.0000 C.2     1  LIG1        0.3442
      2 C          -1.7460    0.0080    0.0000 C.ar    1  LIG1        0.1146
      3 C          -1.7460   -0.9880    0.0000 C.ar    1  LIG1        0.0122
      4 C          -2.6250   -1.4880    0.0000 C.ar    1  LIG1        0.0424
      5 C          -3.4880   -0.9880    0.0000 C.ar    1  LIG1        0.1989
      6 C          -3.4880    0.0080    0.0000 C.ar    1  LIG1        0.0842
      7 C          -2.6250    0.4960    0.0000 C.ar    1  LIG1        0.2051
      8 O          -2.6250    1.4920    0.0000 O.3     1  LIG1       -0.2862
      9 O          -4.3580   -1.4880    0.0000 O.3     1  LIG1       -0.2865
     10 C          -0.8790   -1.4880    0.0000 C.2     1  LIG1       -0.0042
     11 C           0.0000   -0.9880    0.0000 C.2     1  LIG1       -0.0261
     12 C           0.8670   -1.4880    0.0000 C.3     1  LIG1        0.0265
     13 C           1.7290   -0.9880    0.0000 C.3     1  LIG1        0.0124
     14 C           2.6080   -1.4880    0.0000 C.3     1  LIG1        0.0648
     15 C           3.4750   -0.9880    0.0000 C.2     1  LIG1        0.1507
     16 O           4.3540   -1.4880    0.0000 O.2     1  LIG1       -0.2961
     17 C           3.4750    0.0080    0.0000 C.3     1  LIG1        0.0646
     18 C           2.6080    0.4960    0.0000 C.3     1  LIG1        0.0114
     19 C           1.7290    0.0080    0.0000 C.3     1  LIG1        0.0441
     20 C           0.8670    0.4960    0.0000 C.3     1  LIG1        0.1693
     21 O           0.0000    0.0080    0.0000 O.3     1  LIG1       -0.4491
     22 C           0.8670    1.4920    0.0000 C.3     1  LIG1        0.0473
     23 O          -0.8790    1.4920    0.0000 O.2     1  LIG1       -0.2448
@<TRIPOS>BOND
     1     1     2    1
     2     1    21    1
     3     1    23    2
     4     2     3   ar
     5     2     7   ar
     6     3     4   ar
     7     3    10    1
     8     4     5   ar
     9     5     6   ar
    10     5     9    1
    11     6     7   ar
    12     7     8    1
    13    10    11    2
    14    11    12    1
    15    12    13    1
    16    13    14    1
    17    14    15    1
    18    15    16    2
    19    15    17    1
    20    17    18    1
    21    18    19    1
    22    19    20    1
    23    20    21    1
    24    20    22    1
