@<TRIPOS>MOLECULE
25729_ChemDiv_4420-0437
 18 21 0 0 0
SMALL
GASTEIGER
Energy = 0

@<TRIPOS>ATOM
      1 C           0.2880   -0.5790    0.0000 C.ar    1  LIG1        0.1617
      2 C          -0.3380    0.1880    0.0000 C.ar    1  LIG1        0.1167
      3 N           0.0330    1.1420    0.0000 N.ar    1  LIG1       -0.2408
      4 C           1.0040    1.2830    0.0000 C.ar    1  LIG1        0.0990
      5 C           1.6250    0.5130    0.0000 C.ar    1  LIG1        0.1005
      6 N           1.2880   -0.4040    0.0000 N.ar    1  LIG1       -0.2252
      7 C           2.6290    0.6670    0.0000 C.ar    1  LIG1        0.0207
      8 C           3.0000    1.6080    0.0000 C.ar    1  LIG1        0.0016
      9 C           2.3790    2.3790    0.0000 C.ar    1  LIG1        0.0016
     10 C           1.3830    2.2080    0.0000 C.ar    1  LIG1        0.0206
     11 C          -1.2580   -0.1630    0.0000 C.ar    1  LIG1        0.0364
     12 C          -1.2380   -1.1540    0.0000 C.ar    1  LIG1        0.0626
     13 N          -0.2580   -1.4040    0.0000 N.ar    1  LIG1       -0.3095
     14 C           0.0830   -2.3750    0.0000 C.3     1  LIG1        0.1319
     15 C          -2.0830   -1.6790    0.0000 C.ar    1  LIG1        0.0173
     16 C          -2.9790   -1.1790    0.0000 C.ar    1  LIG1        0.0015
     17 C          -3.0040   -0.2330    0.0000 C.ar    1  LIG1        0.0001
     18 C          -2.1540    0.3170    0.0000 C.ar    1  LIG1        0.0030
@<TRIPOS>BOND
     1     1     2   ar
     2     1     6   ar
     3     1    13   ar
     4     2     3   ar
     5     2    11   ar
     6     3     4   ar
     7     4     5   ar
     8     4    10   ar
     9     5     6   ar
    10     5     7   ar
    11     7     8   ar
    12     8     9   ar
    13     9    10   ar
    14    11    12   ar
    15    11    18   ar
    16    12    13   ar
    17    12    15   ar
    18    13    14    1
    19    15    16   ar
    20    16    17   ar
    21    17    18   ar
