@<TRIPOS>MOLECULE
25739_ChemDiv_5267-0933
 21 24 0 0 0
SMALL
GASTEIGER
Energy = 0

@<TRIPOS>ATOM
      1 C          -0.0210   -0.1460    0.0000 C.ar    1  LIG1        0.1615
      2 C          -0.2250    0.8210    0.0000 C.ar    1  LIG1        0.1167
      3 C          -1.2290    0.9250    0.0000 C.ar    1  LIG1        0.0369
      4 C          -1.6330   -0.0170    0.0000 C.ar    1  LIG1        0.0625
      5 N          -0.8580   -0.6500    0.0000 N.ar    1  LIG1       -0.3133
      6 C          -0.3580   -1.4920    0.0000 C.3     1  LIG1        0.0870
      7 C          -0.8580   -2.3630    0.0000 C.3     1  LIG1        0.0245
      8 C           0.6500   -1.4920    0.0000 C.3     1  LIG1        0.0245
      9 C          -2.6380   -0.1130    0.0000 C.ar    1  LIG1        0.0178
     10 C          -3.2420    0.6880    0.0000 C.ar    1  LIG1        0.0082
     11 C          -2.8380    1.5960    0.0000 C.ar    1  LIG1        0.0347
     12 C          -1.8330    1.7250    0.0000 C.ar    1  LIG1        0.0097
     13 BR         -3.4080    2.3670    0.0000 Br      1  LIG1       -0.0490
     14 N           0.4830    1.4920    0.0000 N.ar    1  LIG1       -0.2408
     15 C           1.4500    1.2250    0.0000 C.ar    1  LIG1        0.0990
     16 C           1.6920    0.2500    0.0000 C.ar    1  LIG1        0.1005
     17 N           0.9500   -0.4540    0.0000 N.ar    1  LIG1       -0.2252
     18 C           2.6290   -0.0500    0.0000 C.ar    1  LIG1        0.0207
     19 C           3.4040    0.6210    0.0000 C.ar    1  LIG1        0.0016
     20 C           3.1630    1.5960    0.0000 C.ar    1  LIG1        0.0016
     21 C           2.1920    1.8670    0.0000 C.ar    1  LIG1        0.0206
@<TRIPOS>BOND
     1     1     2   ar
     2     1     5   ar
     3     1    17   ar
     4     2     3   ar
     5     2    14   ar
     6     3     4   ar
     7     3    12   ar
     8     4     5   ar
     9     4     9   ar
    10     5     6    1
    11     6     7    1
    12     6     8    1
    13     9    10   ar
    14    10    11   ar
    15    11    12   ar
    16    11    13    1
    17    14    15   ar
    18    15    16   ar
    19    15    21   ar
    20    16    17   ar
    21    16    18   ar
    22    18    19   ar
    23    19    20   ar
    24    20    21   ar
