@<TRIPOS>MOLECULE
25735_ChemDiv_5267-0916
 20 23 0 0 0
SMALL
GASTEIGER
Energy = 0

@<TRIPOS>ATOM
      1 C          -0.1040    0.4880    0.0000 C.ar    1  LIG1        0.1616
      2 C          -0.3040    1.4540    0.0000 C.ar    1  LIG1        0.1167
      3 N           0.3920    2.1290    0.0000 N.ar    1  LIG1       -0.2408
      4 C           1.3670    1.8580    0.0000 C.ar    1  LIG1        0.0990
      5 C           1.6000    0.8880    0.0000 C.ar    1  LIG1        0.1005
      6 N           0.8670    0.1830    0.0000 N.ar    1  LIG1       -0.2252
      7 C           2.5380    0.5830    0.0000 C.ar    1  LIG1        0.0207
      8 C           3.3130    1.2580    0.0000 C.ar    1  LIG1        0.0016
      9 C           3.0750    2.2250    0.0000 C.ar    1  LIG1        0.0016
     10 C           2.1040    2.5250    0.0000 C.ar    1  LIG1        0.0206
     11 C          -1.3130    1.5580    0.0000 C.ar    1  LIG1        0.0364
     12 C          -1.7130    0.6210    0.0000 C.ar    1  LIG1        0.0626
     13 N          -0.9420   -0.0170    0.0000 N.ar    1  LIG1       -0.3115
     14 C          -1.0420   -0.9830    0.0000 C.3     1  LIG1        0.1075
     15 C          -0.2080   -1.5500    0.0000 C.3     1  LIG1        0.0245
     16 C          -0.3040   -2.5210    0.0000 C.3     1  LIG1        0.0021
     17 C          -2.7130    0.5170    0.0000 C.ar    1  LIG1        0.0173
     18 C          -3.3130    1.3250    0.0000 C.ar    1  LIG1        0.0015
     19 C          -2.9210    2.2250    0.0000 C.ar    1  LIG1        0.0001
     20 C          -1.9130    2.3580    0.0000 C.ar    1  LIG1        0.0030
@<TRIPOS>BOND
     1     1     2   ar
     2     1     6   ar
     3     1    13   ar
     4     2     3   ar
     5     2    11   ar
     6     3     4   ar
     7     4     5   ar
     8     4    10   ar
     9     5     6   ar
    10     5     7   ar
    11     7     8   ar
    12     8     9   ar
    13     9    10   ar
    14    11    12   ar
    15    11    20   ar
    16    12    13   ar
    17    12    17   ar
    18    13    14    1
    19    14    15    1
    20    15    16    1
    21    17    18   ar
    22    18    19   ar
    23    19    20   ar
