@<TRIPOS>MOLECULE
25733_ChemDiv_5267-0913
 21 24 0 0 0
SMALL
GASTEIGER
Energy = 0

@<TRIPOS>ATOM
      1 C          -0.1040    0.7670    0.0000 C.ar    1  LIG1        0.1616
      2 C          -0.3040    1.7420    0.0000 C.ar    1  LIG1        0.1167
      3 N           0.3920    2.4080    0.0000 N.ar    1  LIG1       -0.2408
      4 C           1.3670    2.1380    0.0000 C.ar    1  LIG1        0.0990
      5 C           1.6000    1.1710    0.0000 C.ar    1  LIG1        0.1005
      6 N           0.8670    0.4670    0.0000 N.ar    1  LIG1       -0.2252
      7 C           2.5380    0.8710    0.0000 C.ar    1  LIG1        0.0207
      8 C           3.3080    1.5420    0.0000 C.ar    1  LIG1        0.0016
      9 C           3.0710    2.5080    0.0000 C.ar    1  LIG1        0.0016
     10 C           2.1040    2.8080    0.0000 C.ar    1  LIG1        0.0206
     11 C          -1.3130    1.8420    0.0000 C.ar    1  LIG1        0.0364
     12 C          -1.7130    0.9000    0.0000 C.ar    1  LIG1        0.0626
     13 N          -0.9420    0.2710    0.0000 N.ar    1  LIG1       -0.3115
     14 C          -1.0420   -0.7000    0.0000 C.3     1  LIG1        0.1075
     15 C          -0.2080   -1.2710    0.0000 C.3     1  LIG1        0.0245
     16 C          -0.3040   -2.2380    0.0000 C.3     1  LIG1        0.0020
     17 C           0.5290   -2.8040    0.0000 C.3     1  LIG1        0.0001
     18 C          -2.7130    0.8040    0.0000 C.ar    1  LIG1        0.0173
     19 C          -3.3130    1.6040    0.0000 C.ar    1  LIG1        0.0015
     20 C          -2.9170    2.5080    0.0000 C.ar    1  LIG1        0.0001
     21 C          -1.9130    2.6460    0.0000 C.ar    1  LIG1        0.0030
@<TRIPOS>BOND
     1     1     2   ar
     2     1     6   ar
     3     1    13   ar
     4     2     3   ar
     5     2    11   ar
     6     3     4   ar
     7     4     5   ar
     8     4    10   ar
     9     5     6   ar
    10     5     7   ar
    11     7     8   ar
    12     8     9   ar
    13     9    10   ar
    14    11    12   ar
    15    11    21   ar
    16    12    13   ar
    17    12    18   ar
    18    13    14    1
    19    14    15    1
    20    15    16    1
    21    16    17    1
    22    18    19   ar
    23    19    20   ar
    24    20    21   ar
