@<TRIPOS>MOLECULE
25731_ChemDiv_4911-0006
 21 24 0 0 0
SMALL
GASTEIGER
Energy = 0

@<TRIPOS>ATOM
      1 C           0.2500    0.0330    0.0000 C.ar    1  LIG1        0.1616
      2 N          -0.3540   -0.7630    0.0000 N.ar    1  LIG1       -0.3115
      3 C          -1.3000   -0.4630    0.0000 C.ar    1  LIG1        0.0626
      4 C          -1.3000    0.5380    0.0000 C.ar    1  LIG1        0.0364
      5 C          -0.3540    0.8460    0.0000 C.ar    1  LIG1        0.1167
      6 N           0.0830    1.7540    0.0000 N.ar    1  LIG1       -0.2408
      7 C           1.0540    1.8540    0.0000 C.ar    1  LIG1        0.0990
      8 C           1.6630    1.0460    0.0000 C.ar    1  LIG1        0.1005
      9 N           1.2580    0.1420    0.0000 N.ar    1  LIG1       -0.2252
     10 C           2.6330    1.1420    0.0000 C.ar    1  LIG1        0.0207
     11 C           3.0380    2.0830    0.0000 C.ar    1  LIG1        0.0016
     12 C           2.4710    2.8920    0.0000 C.ar    1  LIG1        0.0016
     13 C           1.4630    2.7630    0.0000 C.ar    1  LIG1        0.0206
     14 C          -2.1750    1.0460    0.0000 C.ar    1  LIG1        0.0030
     15 C          -3.0420    0.5380    0.0000 C.ar    1  LIG1        0.0001
     16 C          -3.0420   -0.4630    0.0000 C.ar    1  LIG1        0.0015
     17 C          -2.1750   -0.9670    0.0000 C.ar    1  LIG1        0.0173
     18 C          -0.0500   -1.7080    0.0000 C.3     1  LIG1        0.1074
     19 C           0.9210   -1.9500    0.0000 C.3     1  LIG1        0.0227
     20 C           1.1960   -2.8880    0.0000 C.3     1  LIG1        0.0020
     21 C           1.5960   -1.2040    0.0000 C.3     1  LIG1        0.0020
@<TRIPOS>BOND
     1     1     2   ar
     2     1     5   ar
     3     1     9   ar
     4     2     3   ar
     5     2    18    1
     6     3     4   ar
     7     3    17   ar
     8     4     5   ar
     9     4    14   ar
    10     5     6   ar
    11     6     7   ar
    12     7     8   ar
    13     7    13   ar
    14     8     9   ar
    15     8    10   ar
    16    10    11   ar
    17    11    12   ar
    18    12    13   ar
    19    14    15   ar
    20    15    16   ar
    21    16    17   ar
    22    18    19    1
    23    19    20    1
    24    19    21    1
