@<TRIPOS>MOLECULE
25743_ChemDiv_5575-0053
 20 23 0 0 0
SMALL
GASTEIGER
Energy = 0

@<TRIPOS>ATOM
      1 C           0.1460   -0.0630    0.0000 C.ar    1  LIG1        0.1616
      2 C          -0.1880    0.8670    0.0000 C.ar    1  LIG1        0.1167
      3 C          -1.1880    0.8670    0.0000 C.ar    1  LIG1        0.0373
      4 C          -1.4540   -0.0960    0.0000 C.ar    1  LIG1        0.0626
      5 N          -0.6500   -0.6670    0.0000 N.ar    1  LIG1       -0.3115
      6 C          -0.6500   -1.6670    0.0000 C.3     1  LIG1        0.1076
      7 C          -1.5210   -2.1670    0.0000 C.3     1  LIG1        0.0265
      8 C          -2.4210   -0.3290    0.0000 C.ar    1  LIG1        0.0181
      9 C          -3.1210    0.4040    0.0000 C.ar    1  LIG1        0.0129
     10 C          -2.8210    1.3670    0.0000 C.ar    1  LIG1        0.0578
     11 C          -1.8580    1.6000    0.0000 C.ar    1  LIG1        0.0144
     12 CL         -3.4880    2.1000    0.0000 Cl      1  LIG1       -0.0822
     13 N           0.5170    1.6000    0.0000 N.ar    1  LIG1       -0.2408
     14 C           1.4790    1.4290    0.0000 C.ar    1  LIG1        0.0990
     15 C           1.8130    0.5040    0.0000 C.ar    1  LIG1        0.1005
     16 N           1.1460   -0.2630    0.0000 N.ar    1  LIG1       -0.2252
     17 C           2.7790    0.3040    0.0000 C.ar    1  LIG1        0.0207
     18 C           3.4830    1.0330    0.0000 C.ar    1  LIG1        0.0016
     19 C           3.1460    2.0000    0.0000 C.ar    1  LIG1        0.0016
     20 C           2.1460    2.1710    0.0000 C.ar    1  LIG1        0.0206
@<TRIPOS>BOND
     1     1     2   ar
     2     1     5   ar
     3     1    16   ar
     4     2     3   ar
     5     2    13   ar
     6     3     4   ar
     7     3    11   ar
     8     4     5   ar
     9     4     8   ar
    10     5     6    1
    11     6     7    1
    12     8     9   ar
    13     9    10   ar
    14    10    11   ar
    15    10    12    1
    16    13    14   ar
    17    14    15   ar
    18    14    20   ar
    19    15    16   ar
    20    15    17   ar
    21    17    18   ar
    22    18    19   ar
    23    19    20   ar
