@<TRIPOS>MOLECULE
25741_ChemDiv_5575-0052
 19 22 0 0 0
SMALL
GASTEIGER
Energy = 0

@<TRIPOS>ATOM
      1 C           0.1460   -0.3130    0.0000 C.ar    1  LIG1        0.1617
      2 C          -0.1880    0.6210    0.0000 C.ar    1  LIG1        0.1167
      3 C          -1.1880    0.6210    0.0000 C.ar    1  LIG1        0.0373
      4 C          -1.4540   -0.3460    0.0000 C.ar    1  LIG1        0.0627
      5 N          -0.6500   -0.9170    0.0000 N.ar    1  LIG1       -0.3095
      6 C          -0.6500   -1.9170    0.0000 C.3     1  LIG1        0.1319
      7 C          -2.4210   -0.5790    0.0000 C.ar    1  LIG1        0.0181
      8 C          -3.1210    0.1540    0.0000 C.ar    1  LIG1        0.0129
      9 C          -2.8210    1.1170    0.0000 C.ar    1  LIG1        0.0578
     10 C          -1.8580    1.3460    0.0000 C.ar    1  LIG1        0.0144
     11 CL         -3.4880    1.8500    0.0000 Cl      1  LIG1       -0.0822
     12 N           0.5170    1.3460    0.0000 N.ar    1  LIG1       -0.2408
     13 C           1.4790    1.1830    0.0000 C.ar    1  LIG1        0.0990
     14 C           1.8130    0.2500    0.0000 C.ar    1  LIG1        0.1005
     15 N           1.1460   -0.5130    0.0000 N.ar    1  LIG1       -0.2252
     16 C           2.7790    0.0540    0.0000 C.ar    1  LIG1        0.0207
     17 C           3.4830    0.7880    0.0000 C.ar    1  LIG1        0.0016
     18 C           3.1460    1.7500    0.0000 C.ar    1  LIG1        0.0016
     19 C           2.1460    1.9210    0.0000 C.ar    1  LIG1        0.0206
@<TRIPOS>BOND
     1     1     2   ar
     2     1     5   ar
     3     1    15   ar
     4     2     3   ar
     5     2    12   ar
     6     3     4   ar
     7     3    10   ar
     8     4     5   ar
     9     4     7   ar
    10     5     6    1
    11     7     8   ar
    12     8     9   ar
    13     9    10   ar
    14     9    11    1
    15    12    13   ar
    16    13    14   ar
    17    13    19   ar
    18    14    15   ar
    19    14    16   ar
    20    16    17   ar
    21    17    18   ar
    22    18    19   ar
