@<TRIPOS>MOLECULE
25763_ChemDiv_6153-0078
 21 24 0 0 0
SMALL
GASTEIGER
Energy = 0

@<TRIPOS>ATOM
      1 C           0.6830    0.1710    0.0000 C.ar    1  LIG1        0.1624
      2 C           0.1040    1.0170    0.0000 C.ar    1  LIG1        0.1167
      3 C          -0.8250    0.6830    0.0000 C.ar    1  LIG1        0.0370
      4 C          -0.8210   -0.3630    0.0000 C.ar    1  LIG1        0.0636
      5 N           0.1130   -0.6670    0.0000 N.ar    1  LIG1       -0.2979
      6 C           0.3630   -1.6040    0.0000 C.3     1  LIG1        0.2140
      7 C          -0.3250   -2.2920    0.0000 C.1     1  LIG1        0.0986
      8 N           0.1540   -3.1290    0.0000 N.1     1  LIG1       -0.1938
      9 C          -1.6670   -0.8830    0.0000 C.ar    1  LIG1        0.0178
     10 C          -2.5210   -0.3630    0.0000 C.ar    1  LIG1        0.0082
     11 C          -2.5210    0.6790    0.0000 C.ar    1  LIG1        0.0347
     12 C          -1.6750    1.2040    0.0000 C.ar    1  LIG1        0.0097
     13 BR         -3.3920    1.1670    0.0000 Br      1  LIG1       -0.0490
     14 N           0.4960    1.9630    0.0000 N.ar    1  LIG1       -0.2408
     15 C           1.4580    2.0790    0.0000 C.ar    1  LIG1        0.0990
     16 C           2.0380    1.2420    0.0000 C.ar    1  LIG1        0.1005
     17 N           1.6460    0.2830    0.0000 N.ar    1  LIG1       -0.2252
     18 C           3.0000    1.3540    0.0000 C.ar    1  LIG1        0.0207
     19 C           3.3880    2.2920    0.0000 C.ar    1  LIG1        0.0016
     20 C           2.8130    3.1330    0.0000 C.ar    1  LIG1        0.0016
     21 C           1.8500    3.0210    0.0000 C.ar    1  LIG1        0.0206
@<TRIPOS>BOND
     1     1     2   ar
     2     1     5   ar
     3     1    17   ar
     4     2     3   ar
     5     2    14   ar
     6     3     4   ar
     7     3    12   ar
     8     4     5   ar
     9     4     9   ar
    10     5     6    1
    11     6     7    1
    12     7     8    3
    13     9    10   ar
    14    10    11   ar
    15    11    12   ar
    16    11    13    1
    17    14    15   ar
    18    15    16   ar
    19    15    21   ar
    20    16    17   ar
    21    16    18   ar
    22    18    19   ar
    23    19    20   ar
    24    20    21   ar
