@<TRIPOS>MOLECULE
25761_ChemDiv_5575-0054
 21 24 0 0 0
SMALL
GASTEIGER
Energy = 0

@<TRIPOS>ATOM
      1 C           0.1460   -0.0630    0.0000 C.ar    1  LIG1        0.1615
      2 C          -0.1880    0.8670    0.0000 C.ar    1  LIG1        0.1167
      3 C          -1.1880    0.8670    0.0000 C.ar    1  LIG1        0.0373
      4 C          -1.4540   -0.0960    0.0000 C.ar    1  LIG1        0.0626
      5 N          -0.6500   -0.6670    0.0000 N.ar    1  LIG1       -0.3133
      6 C          -0.6500   -1.6670    0.0000 C.3     1  LIG1        0.0870
      7 C          -1.5210   -2.1670    0.0000 C.3     1  LIG1        0.0245
      8 C           0.2170   -2.1670    0.0000 C.3     1  LIG1        0.0245
      9 C          -2.4210   -0.3290    0.0000 C.ar    1  LIG1        0.0181
     10 C          -3.1210    0.4040    0.0000 C.ar    1  LIG1        0.0129
     11 C          -2.8210    1.3670    0.0000 C.ar    1  LIG1        0.0578
     12 C          -1.8580    1.6000    0.0000 C.ar    1  LIG1        0.0144
     13 CL         -3.4880    2.1000    0.0000 Cl      1  LIG1       -0.0822
     14 N           0.5170    1.6000    0.0000 N.ar    1  LIG1       -0.2408
     15 C           1.4790    1.4290    0.0000 C.ar    1  LIG1        0.0990
     16 C           1.8130    0.5040    0.0000 C.ar    1  LIG1        0.1005
     17 N           1.1460   -0.2630    0.0000 N.ar    1  LIG1       -0.2252
     18 C           2.7790    0.3040    0.0000 C.ar    1  LIG1        0.0207
     19 C           3.4830    1.0330    0.0000 C.ar    1  LIG1        0.0016
     20 C           3.1460    2.0000    0.0000 C.ar    1  LIG1        0.0016
     21 C           2.1460    2.1710    0.0000 C.ar    1  LIG1        0.0206
@<TRIPOS>BOND
     1     1     2   ar
     2     1     5   ar
     3     1    17   ar
     4     2     3   ar
     5     2    14   ar
     6     3     4   ar
     7     3    12   ar
     8     4     5   ar
     9     4     9   ar
    10     5     6    1
    11     6     7    1
    12     6     8    1
    13     9    10   ar
    14    10    11   ar
    15    11    12   ar
    16    11    13    1
    17    14    15   ar
    18    15    16   ar
    19    15    21   ar
    20    16    17   ar
    21    16    18   ar
    22    18    19   ar
    23    19    20   ar
    24    20    21   ar
