@<TRIPOS>MOLECULE
25760_ChemDiv_0781-2668
 19 21 0 0 0
SMALL
GASTEIGER
Energy = 0

@<TRIPOS>ATOM
      1 N          -0.3960   -0.8250    0.0000 N.ar    1  LIG1       -0.1909
      2 C           0.6080   -0.8250    0.0000 C.ar    1  LIG1        0.1881
      3 N           0.9250   -1.7750    0.0000 N.ar    1  LIG1       -0.1078
      4 N           0.1170   -2.3750    0.0000 N.ar    1  LIG1       -0.0223
      5 N          -0.7000   -1.7750    0.0000 N.ar    1  LIG1       -0.0386
      6 C           1.1710   -0.0250    0.0000 C.ar    1  LIG1        0.0377
      7 C           0.7580    0.9040    0.0000 C.ar    1  LIG1        0.0031
      8 C           1.3290    1.7210    0.0000 C.ar    1  LIG1        0.0001
      9 C           2.3330    1.6210    0.0000 C.ar    1  LIG1        0.0000
     10 C           2.7460    0.6920    0.0000 C.ar    1  LIG1        0.0001
     11 C           2.1630   -0.1040    0.0000 C.ar    1  LIG1        0.0031
     12 C          -0.9710   -0.0290    0.0000 C.ar    1  LIG1        0.0923
     13 C          -1.9710   -0.1420    0.0000 C.ar    1  LIG1        0.0528
     14 C          -2.5670    0.6580    0.0000 C.ar    1  LIG1        0.0149
     15 C          -2.1630    1.5710    0.0000 C.ar    1  LIG1        0.0352
     16 C          -1.1540    1.6790    0.0000 C.ar    1  LIG1        0.0083
     17 C          -0.5670    0.8790    0.0000 C.ar    1  LIG1        0.0203
     18 BR         -2.7500    2.3790    0.0000 Br      1  LIG1       -0.0490
     19 BR         -2.3880   -1.0540    0.0000 Br      1  LIG1       -0.0474
@<TRIPOS>BOND
     1     1     2   ar
     2     1     5   ar
     3     1    12    1
     4     2     3   ar
     5     2     6    1
     6     3     4   ar
     7     4     5   ar
     8     6     7   ar
     9     6    11   ar
    10     7     8   ar
    11     8     9   ar
    12     9    10   ar
    13    10    11   ar
    14    12    13   ar
    15    12    17   ar
    16    13    14   ar
    17    13    19    1
    18    14    15   ar
    19    15    16   ar
    20    15    18    1
    21    16    17   ar
