@<TRIPOS>MOLECULE
25778_ChemDiv_0781-2783
 22 25 0 0 0
SMALL
GASTEIGER
Energy = 0

@<TRIPOS>ATOM
      1 N          -0.3210   -0.0790    0.0000 N.ar    1  LIG1       -0.2780
      2 C          -1.2210    0.3710    0.0000 C.ar    1  LIG1        0.1579
      3 C          -1.3040    1.3630    0.0000 C.ar    1  LIG1        0.0989
      4 C          -0.4710    1.9330    0.0000 C.ar    1  LIG1       -0.0065
      5 C           0.4330    1.4580    0.0000 C.ar    1  LIG1        0.0294
      6 C           0.5040    0.4580    0.0000 C.ar    1  LIG1        0.1170
      7 N           1.3750    0.0080    0.0000 N.pl3   1  LIG1       -0.2943
      8 C           1.4040   -0.9830    0.0000 C.3     1  LIG1        0.0921
      9 C           2.2920   -1.4540    0.0000 C.3     1  LIG1        0.0215
     10 C           3.1380   -0.9330    0.0000 C.3     1  LIG1        0.0035
     11 C           3.1170    0.0540    0.0000 C.3     1  LIG1        0.0215
     12 C           2.2170    0.5330    0.0000 C.3     1  LIG1        0.0921
     13 C          -0.4960    2.9420    0.0000 C.3     1  LIG1        0.0319
     14 C          -2.2080    1.8130    0.0000 C.1     1  LIG1        0.1031
     15 N          -3.1420    2.2330    0.0000 N.1     1  LIG1       -0.1907
     16 N          -1.9040   -0.3500    0.0000 N.ar    1  LIG1       -0.2258
     17 C          -1.4830   -1.1960    0.0000 C.ar    1  LIG1        0.0990
     18 C          -0.4960   -1.0460    0.0000 C.ar    1  LIG1        0.0841
     19 C           0.1330   -1.8540    0.0000 C.ar    1  LIG1        0.0191
     20 C          -0.2500   -2.7880    0.0000 C.ar    1  LIG1        0.0016
     21 C          -1.2210   -2.9380    0.0000 C.ar    1  LIG1        0.0016
     22 C          -1.8500   -2.1540    0.0000 C.ar    1  LIG1        0.0206
@<TRIPOS>BOND
     1     1     2   ar
     2     1     6   ar
     3     1    18   ar
     4     2     3   ar
     5     2    16   ar
     6     3     4   ar
     7     3    14    1
     8     4     5   ar
     9     4    13    1
    10     5     6   ar
    11     6     7    1
    12     7     8    1
    13     7    12    1
    14     8     9    1
    15     9    10    1
    16    10    11    1
    17    11    12    1
    18    14    15    3
    19    16    17   ar
    20    17    18   ar
    21    17    22   ar
    22    18    19   ar
    23    19    20   ar
    24    20    21   ar
    25    21    22   ar
