@<TRIPOS>MOLECULE
25785_ChemDiv_0723-2178
 21 24 0 0 0
SMALL
GASTEIGER
Energy = 0

@<TRIPOS>ATOM
      1 C           0.1040   -0.5080    0.0000 C.ar    1  LIG1        0.1639
      2 C           0.1040    0.5130    0.0000 C.ar    1  LIG1        0.1639
      3 C          -0.7540    0.9960    0.0000 C.ar    1  LIG1        0.1253
      4 N          -1.6460    0.5130    0.0000 N.ar    1  LIG1       -0.1463
      5 N          -1.6460   -0.5080    0.0000 N.ar    1  LIG1       -0.1463
      6 C          -0.7540   -1.0040    0.0000 C.ar    1  LIG1        0.1253
      7 C          -0.7210   -1.9880    0.0000 C.ar    1  LIG1        0.0211
      8 C           0.1420   -2.4580    0.0000 C.ar    1  LIG1        0.0016
      9 C           0.1750   -3.4580    0.0000 C.ar    1  LIG1        0.0000
     10 C          -0.6790   -3.9880    0.0000 C.ar    1  LIG1        0.0000
     11 C          -1.5580   -3.5130    0.0000 C.ar    1  LIG1        0.0000
     12 C          -1.5750   -2.5040    0.0000 C.ar    1  LIG1        0.0016
     13 C          -0.7210    1.9920    0.0000 C.ar    1  LIG1        0.0211
     14 C           0.1420    2.4460    0.0000 C.ar    1  LIG1        0.0016
     15 C           0.1880    3.4580    0.0000 C.ar    1  LIG1        0.0000
     16 C          -0.6710    3.9920    0.0000 C.ar    1  LIG1        0.0000
     17 C          -1.5380    3.5170    0.0000 C.ar    1  LIG1        0.0000
     18 C          -1.5750    2.5170    0.0000 C.ar    1  LIG1        0.0016
     19 N           1.0710    0.8000    0.0000 N.ar    1  LIG1       -0.0466
     20 O           1.6420    0.0250    0.0000 O.2     1  LIG1       -0.2414
     21 N           1.0710   -0.7960    0.0000 N.ar    1  LIG1       -0.0466
@<TRIPOS>BOND
     1     1     2   ar
     2     1     6   ar
     3     1    21   ar
     4     2     3   ar
     5     2    19   ar
     6     3     4   ar
     7     3    13    1
     8     4     5   ar
     9     5     6   ar
    10     6     7    1
    11     7     8   ar
    12     7    12   ar
    13     8     9   ar
    14     9    10   ar
    15    10    11   ar
    16    11    12   ar
    17    13    14   ar
    18    13    18   ar
    19    14    15   ar
    20    15    16   ar
    21    16    17   ar
    22    17    18   ar
    23    19    20   ar
    24    20    21   ar
