@<TRIPOS>MOLECULE
25788_ChemDiv_5228-5323
 23 25 0 0 0
SMALL
GASTEIGER
Energy = 0

@<TRIPOS>ATOM
      1 C          -0.4000   -1.5080    0.0000 C.ar    1  LIG1        0.1580
      2 N          -0.4000   -0.5500    0.0000 N.ar    1  LIG1       -0.2769
      3 C           0.4420   -0.0750    0.0000 C.ar    1  LIG1        0.1331
      4 C           1.2790   -0.5630    0.0000 C.ar    1  LIG1        0.0309
      5 C           1.2670   -1.5250    0.0000 C.ar    1  LIG1       -0.0068
      6 C           0.4130   -2.0080    0.0000 C.ar    1  LIG1        0.0989
      7 C           0.4130   -2.9710    0.0000 C.1     1  LIG1        0.1031
      8 N           1.2670   -3.4210    0.0000 N.1     1  LIG1       -0.1907
      9 C           2.0880   -2.0170    0.0000 C.3     1  LIG1        0.0272
     10 C           2.9250   -1.5540    0.0000 C.3     1  LIG1        0.0047
     11 C           3.7500   -2.0330    0.0000 C.3     1  LIG1        0.0004
     12 N           0.4420    0.9250    0.0000 N.pl3   1  LIG1       -0.2231
     13 C           0.4580    1.9290    0.0000 C.3     1  LIG1        0.0941
     14 C           1.3210    2.4210    0.0000 C.3     1  LIG1        0.0216
     15 C           1.3210    3.4250    0.0000 C.3     1  LIG1        0.0018
     16 C          -0.4130    2.4210    0.0000 C.3     1  LIG1        0.0234
     17 C          -2.0750   -0.5330    0.0000 C.ar    1  LIG1        0.0841
     18 C          -2.0750   -1.5040    0.0000 C.ar    1  LIG1        0.0990
     19 N          -1.2460   -1.9920    0.0000 N.ar    1  LIG1       -0.2258
     20 C          -2.9290   -1.9710    0.0000 C.ar    1  LIG1        0.0206
     21 C          -3.7540   -1.4750    0.0000 C.ar    1  LIG1        0.0016
     22 C          -3.7420   -0.5040    0.0000 C.ar    1  LIG1        0.0016
     23 C          -2.9000   -0.0380    0.0000 C.ar    1  LIG1        0.0191
@<TRIPOS>BOND
     1     1     2   ar
     2     1     6   ar
     3     1    19   ar
     4     2     3   ar
     5     2    17   ar
     6     3     4   ar
     7     3    12    1
     8     4     5   ar
     9     5     6   ar
    10     5     9    1
    11     6     7    1
    12     7     8    3
    13     9    10    1
    14    10    11    1
    15    12    13    1
    16    13    14    1
    17    13    16    1
    18    14    15    1
    19    17    18   ar
    20    17    23   ar
    21    18    19   ar
    22    18    20   ar
    23    20    21   ar
    24    21    22   ar
    25    22    23   ar
