@<TRIPOS>MOLECULE
25781_ChemDiv_0723-2154
 28 32 0 0 0
SMALL
GASTEIGER
Energy = 0

@<TRIPOS>ATOM
      1 N          -0.3540    1.2380    0.0000 N.ar    1  LIG1       -0.2619
      2 C          -1.2420    1.7130    0.0000 C.ar    1  LIG1        0.2670
      3 C          -2.0960    1.2380    0.0000 C.ar    1  LIG1        0.0742
      4 C          -2.0960    0.2380    0.0000 C.ar    1  LIG1        0.0872
      5 N          -1.2420   -0.2880    0.0000 N.ar    1  LIG1       -0.2309
      6 C          -0.3540    0.2380    0.0000 C.ar    1  LIG1        0.1377
      7 C           0.4710   -0.2880    0.0000 C.3     1  LIG1        0.1277
      8 S           0.4710   -1.2880    0.0000 S.3     1  LIG1       -0.0852
      9 C           1.3250   -1.7750    0.0000 C.ar    1  LIG1        0.1295
     10 C           2.1960   -1.2880    0.0000 C.ar    1  LIG1        0.1422
     11 C           3.0420   -1.7750    0.0000 C.ar    1  LIG1        0.1853
     12 N           3.8290   -1.1250    0.0000 N.ar    1  LIG1       -0.2032
     13 C           3.4460   -0.2500    0.0000 C.ar    1  LIG1        0.2004
     14 N           2.4500   -0.3250    0.0000 N.ar    1  LIG1       -0.2188
     15 N           3.0290   -2.8290    0.0000 N.ar    1  LIG1       -0.2032
     16 C           2.1880   -3.2670    0.0000 C.ar    1  LIG1        0.2008
     17 N           1.3250   -2.7880    0.0000 N.ar    1  LIG1       -0.2160
     18 C          -2.9670   -0.2880    0.0000 C.ar    1  LIG1        0.0193
     19 C          -3.8330    0.2380    0.0000 C.ar    1  LIG1        0.0015
     20 C          -3.8330    1.2380    0.0000 C.ar    1  LIG1        0.0003
     21 C          -2.9670    1.7130    0.0000 C.ar    1  LIG1        0.0063
     22 O          -1.2170    2.7250    0.0000 O.2     1  LIG1       -0.2665
     23 C           0.5000    1.7330    0.0000 C.ar    1  LIG1        0.0679
     24 C           1.3710    1.2380    0.0000 C.ar    1  LIG1        0.0176
     25 C           2.2420    1.7330    0.0000 C.ar    1  LIG1        0.0015
     26 C           2.2420    2.7500    0.0000 C.ar    1  LIG1        0.0001
     27 C           1.3710    3.2710    0.0000 C.ar    1  LIG1        0.0015
     28 C           0.5000    2.7500    0.0000 C.ar    1  LIG1        0.0176
@<TRIPOS>BOND
     1     1     2   ar
     2     1     6   ar
     3     1    23    1
     4     2     3   ar
     5     2    22    2
     6     3     4   ar
     7     3    21   ar
     8     4     5   ar
     9     4    18   ar
    10     5     6   ar
    11     6     7    1
    12     7     8    1
    13     8     9    1
    14     9    10   ar
    15     9    17   ar
    16    10    11   ar
    17    10    14   ar
    18    11    12   ar
    19    11    15   ar
    20    12    13   ar
    21    13    14   ar
    22    15    16   ar
    23    16    17   ar
    24    18    19   ar
    25    19    20   ar
    26    20    21   ar
    27    23    24   ar
    28    23    28   ar
    29    24    25   ar
    30    25    26   ar
    31    26    27   ar
    32    27    28   ar
