@<TRIPOS>MOLECULE
25784_ChemDiv_4708-0150
 25 27 0 0 0
SMALL
GASTEIGER
Energy = 0

@<TRIPOS>ATOM
      1 N           2.2000   -0.3130    0.0000 N.ar    1  LIG1       -0.2772
      2 C           2.8830    0.4290    0.0000 C.ar    1  LIG1        0.1580
      3 C           2.5540    1.3790    0.0000 C.ar    1  LIG1        0.0986
      4 C           1.5880    1.5830    0.0000 C.ar    1  LIG1       -0.0106
      5 C           0.9210    0.8460    0.0000 C.ar    1  LIG1        0.0063
      6 C           1.2210   -0.1130    0.0000 C.ar    1  LIG1        0.1290
      7 N           0.5540   -0.8420    0.0000 N.pl3   1  LIG1       -0.2216
      8 C          -0.4130   -0.6330    0.0000 C.3     1  LIG1        0.1164
      9 C          -1.0790   -1.3750    0.0000 C.3     1  LIG1        0.0554
     10 C          -2.0540   -1.1670    0.0000 C.3     1  LIG1        0.1440
     11 O          -2.7290   -1.9130    0.0000 O.3     1  LIG1       -0.3537
     12 C          -3.7040   -1.7080    0.0000 C.3     1  LIG1        0.1422
     13 C          -4.3630   -2.4540    0.0000 C.3     1  LIG1        0.0346
     14 C          -0.0710    1.0290    0.0000 C.3     1  LIG1        0.0289
     15 C          -0.7380    0.2710    0.0000 C.3     1  LIG1        0.0051
     16 C           1.2830    2.5630    0.0000 C.3     1  LIG1        0.0316
     17 C           3.2420    2.1250    0.0000 C.1     1  LIG1        0.1031
     18 N           3.9080    2.8750    0.0000 N.1     1  LIG1       -0.1907
     19 N           3.7920    0.0130    0.0000 N.ar    1  LIG1       -0.2258
     20 C           3.6920   -0.9670    0.0000 C.ar    1  LIG1        0.0990
     21 C           2.7080   -1.1750    0.0000 C.ar    1  LIG1        0.0841
     22 C           2.4000   -2.1210    0.0000 C.ar    1  LIG1        0.0191
     23 C           3.0580   -2.8710    0.0000 C.ar    1  LIG1        0.0016
     24 C           4.0420   -2.6500    0.0000 C.ar    1  LIG1        0.0016
     25 C           4.3580   -1.7040    0.0000 C.ar    1  LIG1        0.0206
@<TRIPOS>BOND
     1     1     2   ar
     2     1     6   ar
     3     1    21   ar
     4     2     3   ar
     5     2    19   ar
     6     3     4   ar
     7     3    17    1
     8     4     5   ar
     9     4    16    1
    10     5     6   ar
    11     5    14    1
    12     6     7    1
    13     7     8    1
    14     8     9    1
    15     9    10    1
    16    10    11    1
    17    11    12    1
    18    12    13    1
    19    14    15    1
    20    17    18    3
    21    19    20   ar
    22    20    21   ar
    23    20    25   ar
    24    21    22   ar
    25    22    23   ar
    26    23    24   ar
    27    24    25   ar
