@<TRIPOS>MOLECULE
25780_ChemDiv_1486-0661
 21 23 0 0 0
SMALL
GASTEIGER
Energy = 0

@<TRIPOS>ATOM
      1 C           0.4750   -1.8960    0.0000 C.ar    1  LIG1        0.1580
      2 N          -0.1330   -1.1290    0.0000 N.ar    1  LIG1       -0.2769
      3 C           0.2210   -0.1920    0.0000 C.ar    1  LIG1        0.1332
      4 C           1.2040   -0.0500    0.0000 C.ar    1  LIG1        0.0309
      5 C           1.8250   -0.8380    0.0000 C.ar    1  LIG1       -0.0065
      6 C           1.4630   -1.7750    0.0000 C.ar    1  LIG1        0.0989
      7 C           2.0670   -2.5580    0.0000 C.1     1  LIG1        0.1031
      8 N           2.6580   -3.3380    0.0000 N.1     1  LIG1       -0.1907
      9 C           2.8080   -0.7000    0.0000 C.3     1  LIG1        0.0319
     10 N          -0.3830    0.5790    0.0000 N.pl3   1  LIG1       -0.2213
     11 C           0.0080    1.4920    0.0000 C.3     1  LIG1        0.1165
     12 C           1.0130    1.6040    0.0000 C.3     1  LIG1        0.0589
     13 C           1.4080    2.5420    0.0000 C.3     1  LIG1        0.1839
     14 O           0.7960    3.3420    0.0000 O.3     1  LIG1       -0.2204
     15 C          -1.0710   -1.4290    0.0000 C.ar    1  LIG1        0.0841
     16 C          -1.0710   -2.4380    0.0000 C.ar    1  LIG1        0.0990
     17 N          -0.1130   -2.7330    0.0000 N.ar    1  LIG1       -0.2258
     18 C          -1.9460   -2.9500    0.0000 C.ar    1  LIG1        0.0206
     19 C          -2.8130   -2.4380    0.0000 C.ar    1  LIG1        0.0016
     20 C          -2.8130   -1.4290    0.0000 C.ar    1  LIG1        0.0016
     21 C          -1.9460   -0.9250    0.0000 C.ar    1  LIG1        0.0191
@<TRIPOS>BOND
     1     1     2   ar
     2     1     6   ar
     3     1    17   ar
     4     2     3   ar
     5     2    15   ar
     6     3     4   ar
     7     3    10    1
     8     4     5   ar
     9     5     6   ar
    10     5     9    1
    11     6     7    1
    12     7     8    3
    13    10    11    1
    14    11    12    1
    15    12    13    1
    16    13    14    1
    17    15    16   ar
    18    15    21   ar
    19    16    17   ar
    20    16    18   ar
    21    18    19   ar
    22    19    20   ar
    23    20    21   ar
