@<TRIPOS>MOLECULE
25792_ChemDiv_5228-5351
 31 34 0 0 0
SMALL
GASTEIGER
Energy = 0

@<TRIPOS>ATOM
      1 C          -0.4540   -3.2960    0.0000 C.ar    1  LIG1        0.1580
      2 N          -0.4710   -2.3290    0.0000 N.ar    1  LIG1       -0.2769
      3 C           0.3500   -1.8420    0.0000 C.ar    1  LIG1        0.1332
      4 C           1.1920   -2.2920    0.0000 C.ar    1  LIG1        0.0309
      5 C           1.2130   -3.2540    0.0000 C.ar    1  LIG1       -0.0071
      6 C           0.3920   -3.7630    0.0000 C.ar    1  LIG1        0.0989
      7 C           0.4130   -4.7380    0.0000 C.1     1  LIG1        0.1031
      8 N           1.2790   -5.1460    0.0000 N.1     1  LIG1       -0.1907
      9 C           2.0630   -3.7250    0.0000 C.3     1  LIG1        0.0232
     10 C           2.0880   -4.6790    0.0000 C.3     1  LIG1        0.0047
     11 C           2.8790   -3.2250    0.0000 C.3     1  LIG1        0.0047
     12 N           0.3500   -0.8460    0.0000 N.pl3   1  LIG1       -0.2210
     13 C           0.3500    0.1540    0.0000 C.3     1  LIG1        0.1185
     14 C           1.2040    0.6420    0.0000 C.3     1  LIG1        0.0498
     15 C           1.2040    1.6420    0.0000 C.ar    1  LIG1       -0.0172
     16 C           2.0880    2.1420    0.0000 C.ar    1  LIG1        0.0358
     17 C           2.0880    3.1500    0.0000 C.ar    1  LIG1        0.1721
     18 C           1.2040    3.6500    0.0000 C.ar    1  LIG1        0.1724
     19 C           0.3500    3.1500    0.0000 C.ar    1  LIG1        0.0397
     20 C           0.3500    2.1420    0.0000 C.ar    1  LIG1       -0.0009
     21 O           1.2040    4.6460    0.0000 O.3     1  LIG1       -0.4684
     22 C           2.0710    5.1460    0.0000 C.3     1  LIG1        0.2526
     23 O           2.9460    3.6500    0.0000 O.3     1  LIG1       -0.4684
     24 C           3.8170    3.1500    0.0000 C.3     1  LIG1        0.2526
     25 C          -2.1380   -2.3750    0.0000 C.ar    1  LIG1        0.0841
     26 C          -2.1250   -3.3420    0.0000 C.ar    1  LIG1        0.0990
     27 N          -1.2790   -3.8130    0.0000 N.ar    1  LIG1       -0.2258
     28 C          -2.9500   -3.8460    0.0000 C.ar    1  LIG1        0.0206
     29 C          -3.7960   -3.3880    0.0000 C.ar    1  LIG1        0.0016
     30 C          -3.8210   -2.4170    0.0000 C.ar    1  LIG1        0.0016
     31 C          -2.9960   -1.9210    0.0000 C.ar    1  LIG1        0.0191
@<TRIPOS>BOND
     1     1     2   ar
     2     1     6   ar
     3     1    27   ar
     4     2     3   ar
     5     2    25   ar
     6     3     4   ar
     7     3    12    1
     8     4     5   ar
     9     5     6   ar
    10     5     9    1
    11     6     7    1
    12     7     8    3
    13     9    10    1
    14     9    11    1
    15    12    13    1
    16    13    14    1
    17    14    15    1
    18    15    16   ar
    19    15    20   ar
    20    16    17   ar
    21    17    18   ar
    22    17    23    1
    23    18    19   ar
    24    18    21    1
    25    19    20   ar
    26    21    22    1
    27    23    24    1
    28    25    26   ar
    29    25    31   ar
    30    26    27   ar
    31    26    28   ar
    32    28    29   ar
    33    29    30   ar
    34    30    31   ar
