@<TRIPOS>MOLECULE
25790_ChemDiv_5228-5327
 25 27 0 0 0
SMALL
GASTEIGER
Energy = 0

@<TRIPOS>ATOM
      1 C          -0.4040   -2.8460    0.0000 C.ar    1  LIG1        0.1580
      2 N          -0.4040   -1.8830    0.0000 N.ar    1  LIG1       -0.2769
      3 C           0.4420   -1.4130    0.0000 C.ar    1  LIG1        0.1332
      4 C           1.2790   -1.8920    0.0000 C.ar    1  LIG1        0.0309
      5 C           1.2670   -2.8630    0.0000 C.ar    1  LIG1       -0.0068
      6 C           0.4170   -3.3460    0.0000 C.ar    1  LIG1        0.0989
      7 C           0.4080   -4.3040    0.0000 C.1     1  LIG1        0.1031
      8 N           1.2670   -4.7540    0.0000 N.1     1  LIG1       -0.1907
      9 C           2.0830   -3.3540    0.0000 C.3     1  LIG1        0.0272
     10 C           2.9250   -2.8920    0.0000 C.3     1  LIG1        0.0047
     11 C           3.7500   -3.3670    0.0000 C.3     1  LIG1        0.0004
     12 N           0.4420   -0.4130    0.0000 N.pl3   1  LIG1       -0.2187
     13 C           0.0250    0.4960    0.0000 C.3     1  LIG1        0.1457
     14 C           0.6250    1.2960    0.0000 C.3     1  LIG1        0.1656
     15 O           0.2420    2.2170    0.0000 O.3     1  LIG1       -0.3491
     16 C           0.8250    3.0250    0.0000 C.3     1  LIG1        0.1777
     17 C           0.4250    3.9500    0.0000 C.3     1  LIG1        0.2140
     18 O           1.0290    4.7540    0.0000 O.3     1  LIG1       -0.2176
     19 C          -2.0750   -1.8670    0.0000 C.ar    1  LIG1        0.0841
     20 C          -2.0750   -2.8330    0.0000 C.ar    1  LIG1        0.0990
     21 N          -1.2500   -3.3250    0.0000 N.ar    1  LIG1       -0.2258
     22 C          -2.9250   -3.3040    0.0000 C.ar    1  LIG1        0.0206
     23 C          -3.7540   -2.8130    0.0000 C.ar    1  LIG1        0.0016
     24 C          -3.7420   -1.8420    0.0000 C.ar    1  LIG1        0.0016
     25 C          -2.8960   -1.3750    0.0000 C.ar    1  LIG1        0.0191
@<TRIPOS>BOND
     1     1     2   ar
     2     1     6   ar
     3     1    21   ar
     4     2     3   ar
     5     2    19   ar
     6     3     4   ar
     7     3    12    1
     8     4     5   ar
     9     5     6   ar
    10     5     9    1
    11     6     7    1
    12     7     8    3
    13     9    10    1
    14    10    11    1
    15    12    13    1
    16    13    14    1
    17    14    15    1
    18    15    16    1
    19    16    17    1
    20    17    18    1
    21    19    20   ar
    22    19    25   ar
    23    20    21   ar
    24    20    22   ar
    25    22    23   ar
    26    23    24   ar
    27    24    25   ar
