@<TRIPOS>MOLECULE
25793_ChemDiv_8016-1600
 13 14 0 0 0
SMALL
GASTEIGER
Energy = 0

@<TRIPOS>ATOM
      1 N          -0.8670   -0.2500    0.0000 N.pl3   1  LIG1       -0.3028
      2 C          -0.0040    0.2420    0.0000 C.ar    1  LIG1        0.0477
      3 C           0.8630   -0.2540    0.0000 C.ar    1  LIG1        0.0103
      4 C           1.7290    0.2420    0.0000 C.ar    1  LIG1       -0.0206
      5 C           1.7250    1.2540    0.0000 C.ar    1  LIG1       -0.0042
      6 C           0.8540    1.7460    0.0000 C.ar    1  LIG1        0.0009
      7 C          -0.0040    1.2460    0.0000 C.ar    1  LIG1        0.0145
      8 C           2.5920   -0.2500    0.0000 C.3     1  LIG1        0.0311
      9 C          -1.7290    0.2540    0.0000 C.3     1  LIG1        0.1231
     10 C          -2.5920   -0.2420    0.0000 C.3     1  LIG1        0.1636
     11 O          -2.5960   -1.2420    0.0000 O.3     1  LIG1       -0.3501
     12 C          -1.7330   -1.7420    0.0000 C.3     1  LIG1        0.1636
     13 C          -0.8580   -1.2500    0.0000 C.3     1  LIG1        0.1231
@<TRIPOS>BOND
     1     1     2    1
     2     1     9    1
     3     1    13    1
     4     2     3   ar
     5     2     7   ar
     6     3     4   ar
     7     4     5   ar
     8     4     8    1
     9     5     6   ar
    10     6     7   ar
    11     9    10    1
    12    10    11    1
    13    11    12    1
    14    12    13    1
