@<TRIPOS>MOLECULE
25795_ChemDiv_8017-8061
 14 15 0 0 0
SMALL
GASTEIGER
Energy = 0

@<TRIPOS>ATOM
      1 C          -0.0080    0.4380    0.0000 C.ar    1  LIG1        0.0650
      2 N          -1.0000    0.4380    0.0000 N.pl3   1  LIG1       -0.3017
      3 C          -1.5000   -0.4330    0.0000 C.3     1  LIG1        0.1231
      4 C          -2.5000   -0.4330    0.0000 C.3     1  LIG1        0.1636
      5 O          -3.0040    0.4380    0.0000 O.3     1  LIG1       -0.3501
      6 C          -2.5000    1.3000    0.0000 C.3     1  LIG1        0.1636
      7 C          -1.5000    1.3000    0.0000 C.3     1  LIG1        0.1231
      8 C           0.4960   -0.4330    0.0000 C.ar    1  LIG1        0.1037
      9 C           1.4960   -0.4330    0.0000 C.ar    1  LIG1        0.0374
     10 C           1.9960    0.4380    0.0000 C.ar    1  LIG1        0.0905
     11 C           1.4960    1.3000    0.0000 C.ar    1  LIG1        0.0194
     12 C           0.4960    1.3000    0.0000 C.ar    1  LIG1        0.0173
     13 N           3.0000    0.4380    0.0000 N.pl3   1  LIG1       -0.1280
     14 N          -0.0080   -1.2960    0.0000 N.pl3   1  LIG1       -0.1267
@<TRIPOS>BOND
     1     1     2    1
     2     1     8   ar
     3     1    12   ar
     4     2     3    1
     5     2     7    1
     6     3     4    1
     7     4     5    1
     8     5     6    1
     9     6     7    1
    10     8     9   ar
    11     8    14    1
    12     9    10   ar
    13    10    11   ar
    14    10    13    1
    15    11    12   ar
