@<TRIPOS>MOLECULE
25819_ChemDiv_3601-0078
 25 28 0 0 0
SMALL
GASTEIGER
Energy = 0

@<TRIPOS>ATOM
      1 C          -0.1040   -0.1330    0.0000 C.2     1  LIG1        0.0706
      2 C           0.7500   -0.5790    0.0000 C.2     1  LIG1        0.2728
      3 N           1.5500   -0.0460    0.0000 N.am    1  LIG1       -0.1552
      4 N           0.6460    1.3380    0.0000 N.2     1  LIG1       -0.1755
      5 C          -0.1540    0.8210    0.0000 C.2     1  LIG1        0.0817
      6 C          -1.0170    1.2500    0.0000 C.3     1  LIG1        0.0539
      7 C           2.4830   -0.2460    0.0000 C.ar    1  LIG1        0.0779
      8 C           2.7790   -1.1500    0.0000 C.ar    1  LIG1        0.0282
      9 C           3.7170   -1.3500    0.0000 C.ar    1  LIG1        0.0590
     10 CL          4.0170   -2.2630    0.0000 Cl      1  LIG1       -0.0822
     11 C           4.3500   -0.6460    0.0000 C.ar    1  LIG1        0.0115
     12 C           4.0500    0.2670    0.0000 C.ar    1  LIG1        0.0022
     13 C           3.1170    0.4670    0.0000 C.ar    1  LIG1        0.0169
     14 O           0.8000   -1.5290    0.0000 O.2     1  LIG1       -0.2678
     15 C          -0.9040   -0.6630    0.0000 C.2     1  LIG1        0.0068
     16 C          -1.8000   -0.2000    0.0000 C.ar    1  LIG1        0.0140
     17 C          -2.6380   -0.7500    0.0000 C.ar    1  LIG1        0.0609
     18 C          -3.5330   -0.3000    0.0000 C.ar    1  LIG1        0.0516
     19 C          -3.5830    0.7000    0.0000 C.ar    1  LIG1        0.1773
     20 C          -2.7540    1.2500    0.0000 C.ar    1  LIG1        0.1765
     21 C          -1.8500    0.7830    0.0000 C.ar    1  LIG1        0.0410
     22 O          -3.0170    2.2040    0.0000 O.3     1  LIG1       -0.4346
     23 C          -4.0170    2.2670    0.0000 C.3     1  LIG1        0.4294
     24 O          -4.3540    1.3330    0.0000 O.3     1  LIG1       -0.4346
     25 CL         -2.6000   -1.7500    0.0000 Cl      1  LIG1       -0.0821
@<TRIPOS>BOND
     1     1     2    1
     2     1     5    1
     3     1    15    2
     4     2     3   am
     5     2    14    2
     6     3     4    1
     7     3     7    1
     8     4     5    2
     9     5     6    1
    10     7     8   ar
    11     7    13   ar
    12     8     9   ar
    13     9    10    1
    14     9    11   ar
    15    11    12   ar
    16    12    13   ar
    17    15    16    1
    18    16    17   ar
    19    16    21   ar
    20    17    18   ar
    21    17    25    1
    22    18    19   ar
    23    19    20   ar
    24    19    24    1
    25    20    21   ar
    26    20    22    1
    27    22    23    1
    28    23    24    1
