@<TRIPOS>MOLECULE
25814_ChemDiv_8015-3835
 25 28 0 0 0
SMALL
GASTEIGER
Energy = 0

@<TRIPOS>ATOM
      1 N          -0.4000   -0.4420    0.0000 N.ar    1  LIG1       -0.2780
      2 C          -0.4000   -1.4040    0.0000 C.ar    1  LIG1        0.1579
      3 C           0.4210   -1.9040    0.0000 C.ar    1  LIG1        0.0989
      4 C           1.2710   -1.4290    0.0000 C.ar    1  LIG1       -0.0069
      5 C           1.2790   -0.4540    0.0000 C.ar    1  LIG1        0.0294
      6 C           0.4420    0.0250    0.0000 C.ar    1  LIG1        0.1170
      7 N           0.4420    1.0250    0.0000 N.pl3   1  LIG1       -0.2943
      8 C          -0.3330    1.4330    0.0000 C.3     1  LIG1        0.0921
      9 C          -0.6500    2.4000    0.0000 C.3     1  LIG1        0.0215
     10 C          -0.2250    3.2040    0.0000 C.3     1  LIG1        0.0018
     11 C           0.8040    3.3210    0.0000 C.3     1  LIG1        0.0018
     12 C           1.5330    2.5380    0.0000 C.3     1  LIG1        0.0215
     13 C           1.3580    1.4960    0.0000 C.3     1  LIG1        0.0921
     14 C           2.0920   -1.9170    0.0000 C.3     1  LIG1        0.0272
     15 C           2.9330   -1.4540    0.0000 C.3     1  LIG1        0.0047
     16 C           3.7540   -1.9380    0.0000 C.3     1  LIG1        0.0004
     17 C           0.4080   -2.8670    0.0000 C.1     1  LIG1        0.1031
     18 N           1.2710   -3.3170    0.0000 N.1     1  LIG1       -0.1907
     19 N          -1.2460   -1.8920    0.0000 N.ar    1  LIG1       -0.2258
     20 C          -2.0750   -1.4040    0.0000 C.ar    1  LIG1        0.0990
     21 C          -2.0750   -0.4290    0.0000 C.ar    1  LIG1        0.0841
     22 C          -2.8960    0.0630    0.0000 C.ar    1  LIG1        0.0191
     23 C          -3.7380   -0.4040    0.0000 C.ar    1  LIG1        0.0016
     24 C          -3.7580   -1.3750    0.0000 C.ar    1  LIG1        0.0016
     25 C          -2.9250   -1.8670    0.0000 C.ar    1  LIG1        0.0206
@<TRIPOS>BOND
     1     1     2   ar
     2     1     6   ar
     3     1    21   ar
     4     2     3   ar
     5     2    19   ar
     6     3     4   ar
     7     3    17    1
     8     4     5   ar
     9     4    14    1
    10     5     6   ar
    11     6     7    1
    12     7     8    1
    13     7    13    1
    14     8     9    1
    15     9    10    1
    16    10    11    1
    17    11    12    1
    18    12    13    1
    19    14    15    1
    20    15    16    1
    21    17    18    3
    22    19    20   ar
    23    20    21   ar
    24    20    25   ar
    25    21    22   ar
    26    22    23   ar
    27    23    24   ar
    28    24    25   ar
