@<TRIPOS>MOLECULE
25813_ChemDiv_3172-0713
 27 30 0 0 0
SMALL
GASTEIGER
Energy = 0

@<TRIPOS>ATOM
      1 C           0.7580    0.9330    0.0000 C.2     1  LIG1        0.0706
      2 C           0.1580    0.1330    0.0000 C.2     1  LIG1        0.2728
      3 N          -0.7880    0.4380    0.0000 N.am    1  LIG1       -0.1552
      4 N          -0.7750    1.4380    0.0000 N.2     1  LIG1       -0.1755
      5 C           0.1750    1.7500    0.0000 C.2     1  LIG1        0.0817
      6 C           0.4920    2.7000    0.0000 C.3     1  LIG1        0.0539
      7 C          -1.6040   -0.1330    0.0000 C.ar    1  LIG1        0.0771
      8 C          -1.5080   -1.1330    0.0000 C.ar    1  LIG1        0.0182
      9 C          -2.3210   -1.7170    0.0000 C.ar    1  LIG1        0.0213
     10 C          -3.2250   -1.3000    0.0000 C.ar    1  LIG1        0.1251
     11 S          -4.0420   -1.8790    0.0000 S.O2    1  LIG1        0.0935
     12 O          -3.4250   -2.6960    0.0000 O.2     1  LIG1       -0.1503
     13 O          -4.6420   -1.0500    0.0000 O.2     1  LIG1       -0.1503
     14 N          -4.8210   -2.4500    0.0000 N.3     1  LIG1        0.0392
     15 C          -3.3210   -0.3000    0.0000 C.ar    1  LIG1        0.0213
     16 C          -2.5080    0.2830    0.0000 C.ar    1  LIG1        0.0182
     17 O           0.4630   -0.8290    0.0000 O.2     1  LIG1       -0.2678
     18 C           1.7580    0.9210    0.0000 C.2     1  LIG1        0.0059
     19 C           2.2500    0.0540    0.0000 C.ar    1  LIG1        0.0034
     20 C           3.2500    0.0380    0.0000 C.ar    1  LIG1        0.0402
     21 C           3.7500   -0.8290    0.0000 C.ar    1  LIG1        0.1764
     22 C           3.2420   -1.6960    0.0000 C.ar    1  LIG1        0.1764
     23 O           3.8920   -2.4330    0.0000 O.3     1  LIG1       -0.4346
     24 C           4.8170   -2.0330    0.0000 C.3     1  LIG1        0.4294
     25 O           4.7170   -1.0330    0.0000 O.3     1  LIG1       -0.4346
     26 C           2.2420   -1.6790    0.0000 C.ar    1  LIG1        0.0402
     27 C           1.7500   -0.8130    0.0000 C.ar    1  LIG1        0.0033
@<TRIPOS>BOND
     1     1     2    1
     2     1     5    1
     3     1    18    2
     4     2     3   am
     5     2    17    2
     6     3     4    1
     7     3     7    1
     8     4     5    2
     9     5     6    1
    10     7     8   ar
    11     7    16   ar
    12     8     9   ar
    13     9    10   ar
    14    10    11    1
    15    10    15   ar
    16    11    12    2
    17    11    13    2
    18    11    14    1
    19    15    16   ar
    20    18    19    1
    21    19    20   ar
    22    19    27   ar
    23    20    21   ar
    24    21    22   ar
    25    21    25    1
    26    22    23    1
    27    22    26   ar
    28    23    24    1
    29    24    25    1
    30    26    27   ar
