@<TRIPOS>MOLECULE
25815_ChemDiv_3172-0715
 26 28 0 0 0
SMALL
GASTEIGER
Energy = 0

@<TRIPOS>ATOM
      1 C           0.7920    0.9210    0.0000 C.2     1  LIG1        0.0706
      2 C           0.2080    0.1210    0.0000 C.2     1  LIG1        0.2728
      3 N          -0.7420    0.4380    0.0000 N.am    1  LIG1       -0.1552
      4 N          -0.7420    1.4380    0.0000 N.2     1  LIG1       -0.1755
      5 C           0.2130    1.7330    0.0000 C.2     1  LIG1        0.0817
      6 C           0.5420    2.7000    0.0000 C.3     1  LIG1        0.0539
      7 C          -1.5540   -0.1460    0.0000 C.ar    1  LIG1        0.0771
      8 C          -2.4750    0.2670    0.0000 C.ar    1  LIG1        0.0182
      9 C          -3.2880   -0.3000    0.0000 C.ar    1  LIG1        0.0213
     10 C          -3.1880   -1.3000    0.0000 C.ar    1  LIG1        0.1251
     11 S          -3.9920   -1.8960    0.0000 S.O2    1  LIG1        0.0935
     12 O          -3.3880   -2.6960    0.0000 O.2     1  LIG1       -0.1503
     13 O          -4.5920   -1.0500    0.0000 O.2     1  LIG1       -0.1503
     14 N          -4.7710   -2.4500    0.0000 N.3     1  LIG1        0.0392
     15 C          -2.2750   -1.7170    0.0000 C.ar    1  LIG1        0.0213
     16 C          -1.4580   -1.1330    0.0000 C.ar    1  LIG1        0.0182
     17 O           0.5170   -0.8290    0.0000 O.2     1  LIG1       -0.2678
     18 C           1.7920    0.9210    0.0000 C.2     1  LIG1        0.0058
     19 C           2.2830    0.0540    0.0000 C.ar    1  LIG1        0.0004
     20 C           1.7830   -0.8130    0.0000 C.ar    1  LIG1        0.0031
     21 C           2.2750   -1.6790    0.0000 C.ar    1  LIG1        0.0369
     22 C           3.2750   -1.6960    0.0000 C.ar    1  LIG1        0.1387
     23 C           3.7830   -0.8290    0.0000 C.ar    1  LIG1        0.0369
     24 C           3.2830    0.0380    0.0000 C.ar    1  LIG1        0.0031
     25 O           3.7670   -2.5630    0.0000 O.3     1  LIG1       -0.4714
     26 C           4.7670   -2.5670    0.0000 C.3     1  LIG1        0.2525
@<TRIPOS>BOND
     1     1     2    1
     2     1     5    1
     3     1    18    2
     4     2     3   am
     5     2    17    2
     6     3     4    1
     7     3     7    1
     8     4     5    2
     9     5     6    1
    10     7     8   ar
    11     7    16   ar
    12     8     9   ar
    13     9    10   ar
    14    10    11    1
    15    10    15   ar
    16    11    12    2
    17    11    13    2
    18    11    14    1
    19    15    16   ar
    20    18    19    1
    21    19    20   ar
    22    19    24   ar
    23    20    21   ar
    24    21    22   ar
    25    22    23   ar
    26    22    25    1
    27    23    24   ar
    28    25    26    1
