@<TRIPOS>MOLECULE
25812_ChemDiv_8015-3832
 25 27 0 0 0
SMALL
GASTEIGER
Energy = 0

@<TRIPOS>ATOM
      1 N           0.0040   -1.8420    0.0000 N.ar    1  LIG1       -0.2772
      2 C          -0.0210   -2.8000    0.0000 C.ar    1  LIG1        0.1580
      3 C           0.8170   -3.2920    0.0000 C.ar    1  LIG1        0.0986
      4 C           1.6580   -2.8130    0.0000 C.ar    1  LIG1       -0.0106
      5 C           1.6670   -1.8540    0.0000 C.ar    1  LIG1        0.0063
      6 C           0.8460   -1.3670    0.0000 C.ar    1  LIG1        0.1291
      7 N           0.8460   -0.3750    0.0000 N.pl3   1  LIG1       -0.2190
      8 C           0.4330    0.5380    0.0000 C.3     1  LIG1        0.1457
      9 C           1.0330    1.3420    0.0000 C.3     1  LIG1        0.1656
     10 O           0.6460    2.2630    0.0000 O.3     1  LIG1       -0.3491
     11 C           1.2330    3.0750    0.0000 C.3     1  LIG1        0.1777
     12 C           0.8330    3.9920    0.0000 C.3     1  LIG1        0.2140
     13 O           1.4330    4.7920    0.0000 O.3     1  LIG1       -0.2176
     14 C           2.5130   -1.3920    0.0000 C.3     1  LIG1        0.0289
     15 C           3.3330   -1.8880    0.0000 C.3     1  LIG1        0.0051
     16 C           2.4790   -3.3170    0.0000 C.3     1  LIG1        0.0316
     17 C           0.8040   -4.2540    0.0000 C.1     1  LIG1        0.1031
     18 N          -0.0460   -4.7920    0.0000 N.1     1  LIG1       -0.1907
     19 N          -0.8580   -3.2790    0.0000 N.ar    1  LIG1       -0.2258
     20 C          -1.6960   -2.7920    0.0000 C.ar    1  LIG1        0.0990
     21 C          -1.6750   -1.8290    0.0000 C.ar    1  LIG1        0.0841
     22 C          -2.4960   -1.3250    0.0000 C.ar    1  LIG1        0.0191
     23 C          -3.3380   -1.8040    0.0000 C.ar    1  LIG1        0.0016
     24 C          -3.3380   -2.7630    0.0000 C.ar    1  LIG1        0.0016
     25 C          -2.5250   -3.2500    0.0000 C.ar    1  LIG1        0.0206
@<TRIPOS>BOND
     1     1     2   ar
     2     1     6   ar
     3     1    21   ar
     4     2     3   ar
     5     2    19   ar
     6     3     4   ar
     7     3    17    1
     8     4     5   ar
     9     4    16    1
    10     5     6   ar
    11     5    14    1
    12     6     7    1
    13     7     8    1
    14     8     9    1
    15     9    10    1
    16    10    11    1
    17    11    12    1
    18    12    13    1
    19    14    15    1
    20    17    18    3
    21    19    20   ar
    22    20    21   ar
    23    20    25   ar
    24    21    22   ar
    25    22    23   ar
    26    23    24   ar
    27    24    25   ar
