@<TRIPOS>MOLECULE
25818_ChemDiv_8016-4330
 23 26 0 0 0
SMALL
GASTEIGER
Energy = 0

@<TRIPOS>ATOM
      1 N          -0.1420    1.0210    0.0000 N.ar    1  LIG1       -0.2780
      2 C           0.4380    1.8210    0.0000 C.ar    1  LIG1        0.1579
      3 C           1.4290    1.7210    0.0000 C.ar    1  LIG1        0.0989
      4 C           1.8420    0.8080    0.0000 C.ar    1  LIG1       -0.0065
      5 C           1.2540    0.0000    0.0000 C.ar    1  LIG1        0.0294
      6 C           0.2670    0.1080    0.0000 C.ar    1  LIG1        0.1174
      7 N          -0.3170   -0.7040    0.0000 N.pl3   1  LIG1       -0.2832
      8 C           0.0960   -1.6170    0.0000 C.3     1  LIG1        0.1552
      9 C          -0.4920   -2.4250    0.0000 C.3     1  LIG1        0.1638
     10 N          -1.4920   -2.3290    0.0000 N.4     1  LIG1        0.4461
     11 C          -1.9000   -1.4130    0.0000 C.3     1  LIG1        0.2221
     12 C          -1.3170   -0.6040    0.0000 C.3     1  LIG1        0.1617
     13 C          -0.0830   -3.3420    0.0000 C.3     1  LIG1        0.0705
     14 C           2.8290    0.7080    0.0000 C.3     1  LIG1        0.0319
     15 C           2.0080    2.5380    0.0000 C.1     1  LIG1        0.1031
     16 N           2.5920    3.3460    0.0000 N.1     1  LIG1       -0.1907
     17 N          -0.1540    2.6330    0.0000 N.ar    1  LIG1       -0.2258
     18 C          -1.1040    2.3130    0.0000 C.ar    1  LIG1        0.0990
     19 C          -1.0960    1.3130    0.0000 C.ar    1  LIG1        0.0841
     20 C          -1.9710    0.8080    0.0000 C.ar    1  LIG1        0.0191
     21 C          -2.8330    1.3080    0.0000 C.ar    1  LIG1        0.0016
     22 C          -2.8330    2.3080    0.0000 C.ar    1  LIG1        0.0016
     23 C          -1.9710    2.8130    0.0000 C.ar    1  LIG1        0.0206
@<TRIPOS>BOND
     1     1     2   ar
     2     1     6   ar
     3     1    19   ar
     4     2     3   ar
     5     2    17   ar
     6     3     4   ar
     7     3    15    1
     8     4     5   ar
     9     4    14    1
    10     5     6   ar
    11     6     7    1
    12     7     8    1
    13     7    12    1
    14     8     9    1
    15     9    10    1
    16     9    13    1
    17    10    11    1
    18    11    12    1
    19    15    16    3
    20    17    18   ar
    21    18    19   ar
    22    18    23   ar
    23    19    20   ar
    24    20    21   ar
    25    21    22   ar
    26    22    23   ar
