@<TRIPOS>MOLECULE
25817_ChemDiv_3172-0781
 33 36 0 0 0
SMALL
GASTEIGER
Energy = 0

@<TRIPOS>ATOM
      1 C           0.6630    2.6040    0.0000 C.2     1  LIG1        0.0706
      2 C           0.0670    1.8040    0.0000 C.2     1  LIG1        0.2728
      3 N          -0.8710    2.1210    0.0000 N.am    1  LIG1       -0.1552
      4 N          -0.8710    3.1210    0.0000 N.2     1  LIG1       -0.1755
      5 C           0.0830    3.4130    0.0000 C.2     1  LIG1        0.0817
      6 C           0.3960    4.3710    0.0000 C.3     1  LIG1        0.0539
      7 C          -1.6920    1.5380    0.0000 C.ar    1  LIG1        0.0771
      8 C          -2.6080    1.9420    0.0000 C.ar    1  LIG1        0.0180
      9 C          -3.4250    1.3710    0.0000 C.ar    1  LIG1        0.0153
     10 C          -4.3380    1.7880    0.0000 C.2     1  LIG1        0.0729
     11 O          -5.1420    1.2040    0.0000 O.co2   1  LIG1       -0.5446
     12 O          -4.4250    2.7710    0.0000 O.co2   1  LIG1       -0.5446
     13 C          -3.3210    0.3710    0.0000 C.ar    1  LIG1        0.0012
     14 C          -2.4080   -0.0420    0.0000 C.ar    1  LIG1        0.0014
     15 C          -1.6000    0.5420    0.0000 C.ar    1  LIG1        0.0168
     16 O           0.3670    0.8540    0.0000 O.2     1  LIG1       -0.2678
     17 C           1.6630    2.6040    0.0000 C.2     1  LIG1        0.0059
     18 C           2.1540    1.7210    0.0000 C.ar    1  LIG1        0.0034
     19 C           3.1540    1.7210    0.0000 C.ar    1  LIG1        0.0400
     20 C           3.6500    0.8540    0.0000 C.ar    1  LIG1        0.1724
     21 C           3.1380   -0.0130    0.0000 C.ar    1  LIG1        0.1727
     22 O           3.6380   -0.8830    0.0000 O.3     1  LIG1       -0.4676
     23 C           3.1330   -1.7500    0.0000 C.3     1  LIG1        0.2321
     24 C           3.6210   -2.6170    0.0000 C.ar    1  LIG1        0.0212
     25 C           3.1170   -3.4830    0.0000 C.ar    1  LIG1       -0.0007
     26 C           3.6040   -4.3540    0.0000 C.ar    1  LIG1       -0.0002
     27 C           4.6040   -4.3710    0.0000 C.ar    1  LIG1       -0.0000
     28 C           5.1170   -3.5000    0.0000 C.ar    1  LIG1       -0.0002
     29 C           4.6210   -2.6330    0.0000 C.ar    1  LIG1       -0.0007
     30 C           2.1380    0.0000    0.0000 C.ar    1  LIG1        0.0401
     31 C           1.6460    0.8710    0.0000 C.ar    1  LIG1        0.0033
     32 O           4.6500    0.8380    0.0000 O.3     1  LIG1       -0.4684
     33 C           5.1380   -0.0330    0.0000 C.3     1  LIG1        0.2526
@<TRIPOS>BOND
     1     1     2    1
     2     1     5    1
     3     1    17    2
     4     2     3   am
     5     2    16    2
     6     3     4    1
     7     3     7    1
     8     4     5    2
     9     5     6    1
    10     7     8   ar
    11     7    15   ar
    12     8     9   ar
    13     9    10    1
    14     9    13   ar
    15    10    11   ar
    16    10    12   ar
    17    13    14   ar
    18    14    15   ar
    19    17    18    1
    20    18    19   ar
    21    18    31   ar
    22    19    20   ar
    23    20    21   ar
    24    20    32    1
    25    21    22    1
    26    21    30   ar
    27    22    23    1
    28    23    24    1
    29    24    25   ar
    30    24    29   ar
    31    25    26   ar
    32    26    27   ar
    33    27    28   ar
    34    28    29   ar
    35    30    31   ar
    36    32    33    1
