@<TRIPOS>MOLECULE
25828_ChemDiv_0855-0041
 26 29 0 0 0
SMALL
GASTEIGER
Energy = 0

@<TRIPOS>ATOM
      1 C           1.7290   -0.4880    0.0000 C.ar    1  LIG1        0.0280
      2 C           0.8540    0.0080    0.0000 C.ar    1  LIG1        0.0379
      3 C          -0.0290   -0.4880    0.0000 C.ar    1  LIG1        0.0024
      4 C          -0.0290   -1.4830    0.0000 C.ar    1  LIG1       -0.0128
      5 C           0.8540   -1.9790    0.0000 C.3     1  LIG1        0.0880
      6 C           1.7290   -1.4830    0.0000 C.3     1  LIG1        0.1144
      7 N           2.5960   -1.9790    0.0000 N.4     1  LIG1        0.3813
      8 C           3.4750   -1.4830    0.0000 C.3     1  LIG1        0.1438
      9 C           3.4750   -0.4880    0.0000 C.3     1  LIG1        0.0890
     10 C           2.5960    0.0080    0.0000 C.ar    1  LIG1       -0.0117
     11 C           2.5960    1.0080    0.0000 C.ar    1  LIG1        0.0359
     12 C           1.7290    1.5130    0.0000 C.ar    1  LIG1        0.1721
     13 C           0.8540    1.0080    0.0000 C.ar    1  LIG1        0.1721
     14 O          -0.0290    1.5130    0.0000 O.3     1  LIG1       -0.4684
     15 C          -0.0290    2.5000    0.0000 C.3     1  LIG1        0.2526
     16 O           1.7290    2.5000    0.0000 O.3     1  LIG1       -0.4684
     17 C           2.5710    2.9830    0.0000 C.3     1  LIG1        0.2526
     18 C           2.5960   -2.9790    0.0000 C.3     1  LIG1        0.2024
     19 C          -0.9000   -1.9790    0.0000 C.ar    1  LIG1        0.0360
     20 C          -1.7830   -1.4830    0.0000 C.ar    1  LIG1        0.1721
     21 C          -1.7830   -0.4710    0.0000 C.ar    1  LIG1        0.1724
     22 C          -0.8830    0.0420    0.0000 C.ar    1  LIG1        0.0398
     23 O          -2.6380    0.0080    0.0000 O.3     1  LIG1       -0.4684
     24 C          -2.6500    0.9920    0.0000 C.3     1  LIG1        0.2526
     25 O          -2.6380   -1.9790    0.0000 O.3     1  LIG1       -0.4684
     26 C          -3.4790   -1.5000    0.0000 C.3     1  LIG1        0.2526
@<TRIPOS>BOND
     1     1     2   ar
     2     1     6    1
     3     1    10   ar
     4     2     3    1
     5     2    13   ar
     6     3     4   ar
     7     3    22   ar
     8     4     5    1
     9     4    19   ar
    10     5     6    1
    11     6     7    1
    12     7     8    1
    13     7    18    1
    14     8     9    1
    15     9    10    1
    16    10    11   ar
    17    11    12   ar
    18    12    13   ar
    19    12    16    1
    20    13    14    1
    21    14    15    1
    22    16    17    1
    23    19    20   ar
    24    20    21   ar
    25    20    25    1
    26    21    22   ar
    27    21    23    1
    28    23    24    1
    29    25    26    1
