@<TRIPOS>MOLECULE
25823_ChemDiv_3977-1384
 35 38 0 0 0
SMALL
GASTEIGER
Energy = 0

@<TRIPOS>ATOM
      1 C          -1.9380    2.2130    0.0000 C.2     1  LIG1        0.0706
      2 C          -2.0040    1.2130    0.0000 C.2     1  LIG1        0.2728
      3 N          -2.9630    0.9630    0.0000 N.am    1  LIG1       -0.1552
      4 N          -3.5130    1.8130    0.0000 N.2     1  LIG1       -0.1755
      5 C          -2.8710    2.5880    0.0000 C.2     1  LIG1        0.0817
      6 C          -3.1290    3.5460    0.0000 C.3     1  LIG1        0.0539
      7 C          -3.3380    0.0290    0.0000 C.ar    1  LIG1        0.0771
      8 C          -2.7130   -0.7420    0.0000 C.ar    1  LIG1        0.0170
      9 C          -3.0710   -1.6750    0.0000 C.ar    1  LIG1        0.0078
     10 C          -4.0630   -1.8250    0.0000 C.ar    1  LIG1        0.0757
     11 C          -4.4210   -2.7580    0.0000 C.2     1  LIG1        0.3413
     12 O          -3.8040   -3.5420    0.0000 O.2     1  LIG1       -0.2449
     13 O          -5.4000   -2.9170    0.0000 O.3     1  LIG1       -0.4413
     14 C          -6.0420   -2.1250    0.0000 C.3     1  LIG1        0.2560
     15 C          -4.6880   -1.0540    0.0000 C.ar    1  LIG1        0.0078
     16 C          -4.3290   -0.1210    0.0000 C.ar    1  LIG1        0.0170
     17 O          -1.2330    0.5920    0.0000 O.2     1  LIG1       -0.2678
     18 C          -1.1000    2.7460    0.0000 C.2     1  LIG1        0.0059
     19 C          -0.2040    2.2960    0.0000 C.ar    1  LIG1        0.0034
     20 C           0.6330    2.8420    0.0000 C.ar    1  LIG1        0.0400
     21 C           1.5130    2.3750    0.0000 C.ar    1  LIG1        0.1724
     22 C           1.5670    1.3750    0.0000 C.ar    1  LIG1        0.1727
     23 O           2.4630    0.9250    0.0000 O.3     1  LIG1       -0.4676
     24 C           2.5000   -0.0750    0.0000 C.3     1  LIG1        0.2321
     25 C           3.3920   -0.5420    0.0000 C.ar    1  LIG1        0.0212
     26 C           4.2170    0.0080    0.0000 C.ar    1  LIG1        0.0002
     27 C           5.1080   -0.4580    0.0000 C.ar    1  LIG1        0.0112
     28 C           5.1500   -1.4580    0.0000 C.ar    1  LIG1        0.0577
     29 CL          6.0420   -1.9210    0.0000 Cl      1  LIG1       -0.0822
     30 C           4.3250   -1.9920    0.0000 C.ar    1  LIG1        0.0112
     31 C           3.4330   -1.5420    0.0000 C.ar    1  LIG1        0.0002
     32 C           0.7290    0.8420    0.0000 C.ar    1  LIG1        0.0401
     33 C          -0.1670    1.2960    0.0000 C.ar    1  LIG1        0.0033
     34 O           2.3500    2.9210    0.0000 O.3     1  LIG1       -0.4684
     35 C           3.2420    2.4580    0.0000 C.3     1  LIG1        0.2526
@<TRIPOS>BOND
     1     1     2    1
     2     1     5    1
     3     1    18    2
     4     2     3   am
     5     2    17    2
     6     3     4    1
     7     3     7    1
     8     4     5    2
     9     5     6    1
    10     7     8   ar
    11     7    16   ar
    12     8     9   ar
    13     9    10   ar
    14    10    11    1
    15    10    15   ar
    16    11    12    2
    17    11    13    1
    18    13    14    1
    19    15    16   ar
    20    18    19    1
    21    19    20   ar
    22    19    33   ar
    23    20    21   ar
    24    21    22   ar
    25    21    34    1
    26    22    23    1
    27    22    32   ar
    28    23    24    1
    29    24    25    1
    30    25    26   ar
    31    25    31   ar
    32    26    27   ar
    33    27    28   ar
    34    28    29    1
    35    28    30   ar
    36    30    31   ar
    37    32    33   ar
    38    34    35    1
