@<TRIPOS>MOLECULE
25824_ChemDiv_C063-0032
 27 29 0 0 0
SMALL
GASTEIGER
Energy = 0

@<TRIPOS>ATOM
      1 C           1.3290    1.7790    0.0000 C.ar    1  LIG1        0.1580
      2 N           0.8170    0.9630    0.0000 N.ar    1  LIG1       -0.2769
      3 C          -0.1420    1.0000    0.0000 C.ar    1  LIG1        0.1332
      4 C          -0.5920    1.8250    0.0000 C.ar    1  LIG1        0.0309
      5 C          -0.0920    2.6460    0.0000 C.ar    1  LIG1       -0.0068
      6 C           0.8790    2.6250    0.0000 C.ar    1  LIG1        0.0989
      7 C           1.3960    3.4330    0.0000 C.1     1  LIG1        0.1031
      8 N           0.8960    4.2630    0.0000 N.1     1  LIG1       -0.1907
      9 C          -0.5250    3.5000    0.0000 C.3     1  LIG1        0.0272
     10 C          -1.4830    3.5330    0.0000 C.3     1  LIG1        0.0047
     11 C          -1.9500    4.3790    0.0000 C.3     1  LIG1        0.0004
     12 N          -0.6750    0.1580    0.0000 N.pl3   1  LIG1       -0.2212
     13 C          -0.6750   -0.8500    0.0000 C.3     1  LIG1        0.1199
     14 C          -1.5460   -1.3500    0.0000 C.3     1  LIG1        0.0860
     15 C          -1.5460   -2.3500    0.0000 C.3     1  LIG1        0.1404
     16 N          -2.4210   -2.8670    0.0000 N.4     1  LIG1        0.3773
     17 C          -2.4210   -3.8750    0.0000 C.3     1  LIG1        0.1388
     18 C          -3.2830   -4.3790    0.0000 C.3     1  LIG1        0.0688
     19 C          -3.2830   -2.3630    0.0000 C.3     1  LIG1        0.1388
     20 C          -4.1670   -2.8710    0.0000 C.3     1  LIG1        0.0688
     21 C           2.2380    0.0920    0.0000 C.ar    1  LIG1        0.0841
     22 C           2.7380    0.9130    0.0000 C.ar    1  LIG1        0.0990
     23 N           2.2960    1.7420    0.0000 N.ar    1  LIG1       -0.2258
     24 C           3.7080    0.8750    0.0000 C.ar    1  LIG1        0.0206
     25 C           4.1630    0.0210    0.0000 C.ar    1  LIG1        0.0016
     26 C           3.6540   -0.8000    0.0000 C.ar    1  LIG1        0.0016
     27 C           2.6880   -0.7630    0.0000 C.ar    1  LIG1        0.0191
@<TRIPOS>BOND
     1     1     2   ar
     2     1     6   ar
     3     1    23   ar
     4     2     3   ar
     5     2    21   ar
     6     3     4   ar
     7     3    12    1
     8     4     5   ar
     9     5     6   ar
    10     5     9    1
    11     6     7    1
    12     7     8    3
    13     9    10    1
    14    10    11    1
    15    12    13    1
    16    13    14    1
    17    14    15    1
    18    15    16    1
    19    16    17    1
    20    16    19    1
    21    17    18    1
    22    19    20    1
    23    21    22   ar
    24    21    27   ar
    25    22    23   ar
    26    22    24   ar
    27    24    25   ar
    28    25    26   ar
    29    26    27   ar
