@<TRIPOS>MOLECULE
25838_ChemDiv_6944-0009
 22 25 0 0 0
SMALL
GASTEIGER
Energy = 0

@<TRIPOS>ATOM
      1 C          -0.0040    0.5000    0.0000 C.ar    1  LIG1        0.0381
      2 C           0.0040   -0.4920    0.0000 C.ar    1  LIG1        0.0023
      3 C           0.8670   -1.0000    0.0000 C.ar    1  LIG1       -0.0156
      4 C           1.7380   -0.4920    0.0000 C.3     1  LIG1        0.0938
      5 C           1.7380    0.5170    0.0000 C.3     1  LIG1        0.1707
      6 C           0.8670    1.0080    0.0000 C.ar    1  LIG1        0.0335
      7 C           0.8580    2.0040    0.0000 C.ar    1  LIG1       -0.0113
      8 C          -0.0040    2.5000    0.0000 C.ar    1  LIG1        0.0359
      9 C          -0.8710    2.0040    0.0000 C.ar    1  LIG1        0.1721
     10 C          -0.8710    1.0040    0.0000 C.ar    1  LIG1        0.1721
     11 O          -1.7380    0.5080    0.0000 O.3     1  LIG1       -0.4684
     12 C          -2.6000    1.0130    0.0000 C.3     1  LIG1        0.2526
     13 O          -1.7330    2.5000    0.0000 O.3     1  LIG1       -0.4684
     14 C          -2.6000    2.0000    0.0000 C.3     1  LIG1        0.2526
     15 C           1.7250    2.5040    0.0000 C.3     1  LIG1        0.0952
     16 C           2.5960    2.0040    0.0000 C.3     1  LIG1        0.2055
     17 N           2.5920    1.0040    0.0000 N.4     1  LIG1        0.4473
     18 C           0.8710   -1.9960    0.0000 C.ar    1  LIG1       -0.0008
     19 C           0.0040   -2.5000    0.0000 C.ar    1  LIG1        0.0417
     20 C          -0.8710   -2.0000    0.0000 C.ar    1  LIG1        0.1957
     21 C          -0.8670   -0.9960    0.0000 C.ar    1  LIG1        0.0418
     22 O          -1.7290   -2.5000    0.0000 O.3     1  LIG1       -0.2866
@<TRIPOS>BOND
     1     1     2    1
     2     1     6   ar
     3     1    10   ar
     4     2     3   ar
     5     2    21   ar
     6     3     4    1
     7     3    18   ar
     8     4     5    1
     9     5     6    1
    10     5    17    1
    11     6     7   ar
    12     7     8   ar
    13     7    15    1
    14     8     9   ar
    15     9    10   ar
    16     9    13    1
    17    10    11    1
    18    11    12    1
    19    13    14    1
    20    15    16    1
    21    16    17    1
    22    18    19   ar
    23    19    20   ar
    24    20    21   ar
    25    20    22    1
