@<TRIPOS>MOLECULE
25830_ChemDiv_3886-1206
 21 25 0 0 0
SMALL
GASTEIGER
Energy = 0

@<TRIPOS>ATOM
      1 C           0.3170    1.0290    0.0000 C.ar    1  LIG1        0.0280
      2 C          -0.5330    0.5290    0.0000 C.ar    1  LIG1        0.0379
      3 C          -1.4500    1.0290    0.0000 C.ar    1  LIG1        0.1762
      4 C          -1.4500    2.0170    0.0000 C.ar    1  LIG1        0.1761
      5 C          -0.5330    2.5040    0.0000 C.ar    1  LIG1        0.0360
      6 C           0.3170    2.0170    0.0000 C.ar    1  LIG1       -0.0117
      7 C           1.1630    2.5040    0.0000 C.3     1  LIG1        0.0890
      8 C           2.0130    2.0170    0.0000 C.3     1  LIG1        0.1438
      9 N           2.0130    1.0290    0.0000 N.4     1  LIG1        0.3813
     10 C           1.1630    0.5290    0.0000 C.3     1  LIG1        0.1144
     11 C           1.1630   -0.4540    0.0000 C.3     1  LIG1        0.0879
     12 C           0.3170   -0.9420    0.0000 C.ar    1  LIG1       -0.0160
     13 C          -0.5330   -0.4540    0.0000 C.ar    1  LIG1       -0.0009
     14 C          -1.4500   -0.9420    0.0000 C.ar    1  LIG1       -0.0002
     15 C          -1.4500   -2.0080    0.0000 C.ar    1  LIG1       -0.0000
     16 C          -0.5330   -2.5000    0.0000 C.ar    1  LIG1       -0.0003
     17 C           0.3170   -2.0080    0.0000 C.ar    1  LIG1       -0.0041
     18 C           2.9290    0.5290    0.0000 C.3     1  LIG1        0.2024
     19 O          -2.3670    2.3000    0.0000 O.3     1  LIG1       -0.4346
     20 C          -2.9330    1.4460    0.0000 C.3     1  LIG1        0.4294
     21 O          -2.2960    0.6750    0.0000 O.3     1  LIG1       -0.4346
@<TRIPOS>BOND
     1     1     2   ar
     2     1     6   ar
     3     1    10    1
     4     2     3   ar
     5     2    13    1
     6     3     4   ar
     7     3    21    1
     8     4     5   ar
     9     4    19    1
    10     5     6   ar
    11     6     7    1
    12     7     8    1
    13     8     9    1
    14     9    10    1
    15     9    18    1
    16    10    11    1
    17    11    12    1
    18    12    13   ar
    19    12    17   ar
    20    13    14   ar
    21    14    15   ar
    22    15    16   ar
    23    16    17   ar
    24    19    20    1
    25    20    21    1
