@<TRIPOS>MOLECULE
25836_ChemDiv_3886-1214
 24 27 0 0 0
SMALL
GASTEIGER
Energy = 0

@<TRIPOS>ATOM
      1 C           0.4250    1.0330    0.0000 C.ar    1  LIG1        0.0267
      2 C           1.2750    0.5290    0.0000 C.3     1  LIG1        0.0860
      3 N           2.1250    1.0330    0.0000 N.4     1  LIG1        0.3055
      4 C           2.1250    2.0250    0.0000 C.3     1  LIG1        0.1138
      5 C           1.2750    2.5130    0.0000 C.3     1  LIG1        0.0873
      6 C           0.4250    2.0250    0.0000 C.ar    1  LIG1       -0.0118
      7 C          -0.4290    2.5130    0.0000 C.ar    1  LIG1        0.0360
      8 C          -1.2790    2.0250    0.0000 C.ar    1  LIG1        0.1770
      9 C          -1.2790    1.0330    0.0000 C.ar    1  LIG1        0.2291
     10 C          -0.4290    0.5290    0.0000 C.ar    1  LIG1        0.0456
     11 C          -0.4290   -0.4540    0.0000 C.ar    1  LIG1        0.0333
     12 C           0.4250   -0.9460    0.0000 C.ar    1  LIG1       -0.0131
     13 C           1.2750   -0.4540    0.0000 C.3     1  LIG1        0.0863
     14 C           0.4250   -1.9420    0.0000 C.ar    1  LIG1       -0.0039
     15 C          -0.4290   -2.5080    0.0000 C.ar    1  LIG1        0.0028
     16 C          -1.2790   -1.9420    0.0000 C.ar    1  LIG1        0.0369
     17 C          -1.2790   -0.9460    0.0000 C.ar    1  LIG1        0.1384
     18 O          -2.2000   -0.4540    0.0000 O.3     1  LIG1       -0.4714
     19 C          -3.0500   -0.9460    0.0000 C.3     1  LIG1        0.2525
     20 O          -2.2000    0.5290    0.0000 O.3     1  LIG1       -0.2833
     21 O          -2.2000    2.5130    0.0000 O.3     1  LIG1       -0.4682
     22 C          -3.0500    2.0250    0.0000 C.3     1  LIG1        0.2526
     23 C           3.0460    0.5290    0.0000 C.3     1  LIG1        0.1708
     24 C           3.0460    1.5290    0.0000 C.3     1  LIG1        0.1708
@<TRIPOS>BOND
     1     1     2    1
     2     1     6   ar
     3     1    10   ar
     4     2     3    1
     5     2    13    1
     6     3     4    1
     7     3    23    1
     8     3    24    1
     9     4     5    1
    10     5     6    1
    11     6     7   ar
    12     7     8   ar
    13     8     9   ar
    14     8    21    1
    15     9    10   ar
    16     9    20    1
    17    10    11    1
    18    11    12   ar
    19    11    17   ar
    20    12    13    1
    21    12    14   ar
    22    14    15   ar
    23    15    16   ar
    24    16    17   ar
    25    17    18    1
    26    18    19    1
    27    21    22    1
