@<TRIPOS>MOLECULE
25832_ChemDiv_3886-1207
 22 26 0 0 0
SMALL
GASTEIGER
Energy = 0

@<TRIPOS>ATOM
      1 C           0.3170    1.0290    0.0000 C.ar    1  LIG1        0.0264
      2 C           1.1630    0.4630    0.0000 C.3     1  LIG1        0.0860
      3 N           2.0080    1.0290    0.0000 N.4     1  LIG1        0.3055
      4 C           2.0080    2.0170    0.0000 C.3     1  LIG1        0.1138
      5 C           1.1630    2.5040    0.0000 C.3     1  LIG1        0.0873
      6 C           0.3170    2.0170    0.0000 C.ar    1  LIG1       -0.0118
      7 C          -0.5290    2.5040    0.0000 C.ar    1  LIG1        0.0360
      8 C          -1.4460    2.0170    0.0000 C.ar    1  LIG1        0.1761
      9 C          -1.4460    1.0290    0.0000 C.ar    1  LIG1        0.1762
     10 C          -0.5290    0.4630    0.0000 C.ar    1  LIG1        0.0379
     11 C          -0.5290   -0.5250    0.0000 C.ar    1  LIG1       -0.0009
     12 C           0.3170   -1.0170    0.0000 C.ar    1  LIG1       -0.0160
     13 C           1.1630   -0.5250    0.0000 C.3     1  LIG1        0.0862
     14 C           0.3170   -2.0040    0.0000 C.ar    1  LIG1       -0.0041
     15 C          -0.5290   -2.5000    0.0000 C.ar    1  LIG1       -0.0003
     16 C          -1.4460   -2.0040    0.0000 C.ar    1  LIG1       -0.0000
     17 C          -1.4460   -1.0170    0.0000 C.ar    1  LIG1       -0.0002
     18 O          -2.2960    0.6750    0.0000 O.3     1  LIG1       -0.4346
     19 C          -2.9290    1.4460    0.0000 C.3     1  LIG1        0.4294
     20 O          -2.3670    2.2960    0.0000 O.3     1  LIG1       -0.4346
     21 C           2.9250    0.4630    0.0000 C.3     1  LIG1        0.1708
     22 C           2.7130    1.7330    0.0000 C.3     1  LIG1        0.1708
@<TRIPOS>BOND
     1     1     2    1
     2     1     6   ar
     3     1    10   ar
     4     2     3    1
     5     2    13    1
     6     3     4    1
     7     3    21    1
     8     3    22    1
     9     4     5    1
    10     5     6    1
    11     6     7   ar
    12     7     8   ar
    13     8     9   ar
    14     8    20    1
    15     9    10   ar
    16     9    18    1
    17    10    11    1
    18    11    12   ar
    19    11    17   ar
    20    12    13    1
    21    12    14   ar
    22    14    15   ar
    23    15    16   ar
    24    16    17   ar
    25    18    19    1
    26    19    20    1
