@<TRIPOS>MOLECULE
25834_ChemDiv_3886-1213
 23 26 0 0 0
SMALL
GASTEIGER
Energy = 0

@<TRIPOS>ATOM
      1 C           0.4210    1.0330    0.0000 C.ar    1  LIG1        0.0283
      2 C          -0.4250    0.5290    0.0000 C.ar    1  LIG1        0.0457
      3 C          -0.4250   -0.4540    0.0000 C.ar    1  LIG1        0.0333
      4 C           0.4210   -0.9460    0.0000 C.ar    1  LIG1       -0.0131
      5 C           1.3420   -0.4540    0.0000 C.3     1  LIG1        0.0880
      6 C           1.3420    0.5290    0.0000 C.3     1  LIG1        0.1144
      7 N           2.1920    1.0330    0.0000 N.4     1  LIG1        0.3813
      8 C           2.1920    2.0250    0.0000 C.3     1  LIG1        0.1438
      9 C           1.3420    2.5130    0.0000 C.3     1  LIG1        0.0890
     10 C           0.4210    2.0250    0.0000 C.ar    1  LIG1       -0.0117
     11 C          -0.4250    2.5130    0.0000 C.ar    1  LIG1        0.0360
     12 C          -1.2750    2.0250    0.0000 C.ar    1  LIG1        0.1770
     13 C          -1.2750    1.0330    0.0000 C.ar    1  LIG1        0.2291
     14 O          -2.1250    0.5290    0.0000 O.3     1  LIG1       -0.2833
     15 O          -2.1250    2.5130    0.0000 O.3     1  LIG1       -0.4682
     16 C          -3.0460    2.0250    0.0000 C.3     1  LIG1        0.2526
     17 C           3.0420    0.5290    0.0000 C.3     1  LIG1        0.2024
     18 C           0.4210   -1.9420    0.0000 C.ar    1  LIG1       -0.0039
     19 C          -0.4250   -2.5080    0.0000 C.ar    1  LIG1        0.0028
     20 C          -1.2750   -1.9420    0.0000 C.ar    1  LIG1        0.0369
     21 C          -1.2750   -0.9460    0.0000 C.ar    1  LIG1        0.1384
     22 O          -2.1250   -0.4540    0.0000 O.3     1  LIG1       -0.4714
     23 C          -3.0460   -0.9460    0.0000 C.3     1  LIG1        0.2525
@<TRIPOS>BOND
     1     1     2   ar
     2     1     6    1
     3     1    10   ar
     4     2     3    1
     5     2    13   ar
     6     3     4   ar
     7     3    21   ar
     8     4     5    1
     9     4    18   ar
    10     5     6    1
    11     6     7    1
    12     7     8    1
    13     7    17    1
    14     8     9    1
    15     9    10    1
    16    10    11   ar
    17    11    12   ar
    18    12    13   ar
    19    12    15    1
    20    13    14    1
    21    15    16    1
    22    18    19   ar
    23    19    20   ar
    24    20    21   ar
    25    21    22    1
    26    22    23    1
