@<TRIPOS>MOLECULE
25841_ChemDiv_4410-3716
 28 30 0 0 0
SMALL
GASTEIGER
Energy = 0

@<TRIPOS>ATOM
      1 C           2.4540   -2.0630    0.0000 C.2     1  LIG1        0.0706
      2 C           2.0210   -1.3460    0.0000 C.2     1  LIG1        0.2728
      3 N           2.4420   -0.6170    0.0000 N.am    1  LIG1       -0.1552
      4 N           3.7080   -1.3460    0.0000 N.2     1  LIG1       -0.1755
      5 C           3.2960   -2.0630    0.0000 C.2     1  LIG1        0.0817
      6 C           3.7880   -2.9040    0.0000 C.3     1  LIG1        0.0539
      7 C           2.1960    0.3330    0.0000 C.ar    1  LIG1        0.0771
      8 C           1.2460    0.5750    0.0000 C.ar    1  LIG1        0.0169
      9 C           0.9880    1.5040    0.0000 C.ar    1  LIG1        0.0025
     10 C           1.6750    2.2130    0.0000 C.ar    1  LIG1        0.0141
     11 C           1.4170    3.1420    0.0000 C.2     1  LIG1        0.0729
     12 O           0.4670    3.3830    0.0000 O.co2   1  LIG1       -0.5446
     13 O           2.0880    3.8330    0.0000 O.co2   1  LIG1       -0.5446
     14 C           2.6040    1.9580    0.0000 C.ar    1  LIG1        0.0025
     15 C           2.8630    1.0290    0.0000 C.ar    1  LIG1        0.0169
     16 O           1.0500   -1.3500    0.0000 O.2     1  LIG1       -0.2678
     17 C           1.9580   -2.9040    0.0000 C.2     1  LIG1        0.0058
     18 C           0.9210   -2.9210    0.0000 C.ar    1  LIG1        0.0003
     19 C           0.3960   -2.0130    0.0000 C.ar    1  LIG1        0.0013
     20 C          -0.6380   -2.0130    0.0000 C.ar    1  LIG1        0.0145
     21 C          -1.1580   -2.9210    0.0000 C.ar    1  LIG1        0.0478
     22 N          -2.2080   -2.9210    0.0000 N.pl3   1  LIG1       -0.3075
     23 C          -2.7380   -2.0130    0.0000 C.3     1  LIG1        0.0908
     24 C          -3.7920   -2.0130    0.0000 C.3     1  LIG1        0.0232
     25 C          -2.7380   -3.8290    0.0000 C.3     1  LIG1        0.0908
     26 C          -3.7920   -3.8290    0.0000 C.3     1  LIG1        0.0232
     27 C          -0.6380   -3.8290    0.0000 C.ar    1  LIG1        0.0145
     28 C           0.4040   -3.8290    0.0000 C.ar    1  LIG1        0.0013
@<TRIPOS>BOND
     1     1     2    1
     2     1     5    1
     3     1    17    2
     4     2     3   am
     5     2    16    2
     6     3     4    1
     7     3     7    1
     8     4     5    2
     9     5     6    1
    10     7     8   ar
    11     7    15   ar
    12     8     9   ar
    13     9    10   ar
    14    10    11    1
    15    10    14   ar
    16    11    12   ar
    17    11    13   ar
    18    14    15   ar
    19    17    18    1
    20    18    19   ar
    21    18    28   ar
    22    19    20   ar
    23    20    21   ar
    24    21    22    1
    25    21    27   ar
    26    22    23    1
    27    22    25    1
    28    23    24    1
    29    25    26    1
    30    27    28   ar
