@<TRIPOS>MOLECULE
25845_ChemDiv_4995-0176
 26 28 0 0 0
SMALL
GASTEIGER
Energy = 0

@<TRIPOS>ATOM
      1 C          -1.1330    0.5670    0.0000 C.2     1  LIG1        0.0706
      2 C          -0.2000    0.9750    0.0000 C.2     1  LIG1        0.2728
      3 N           0.4670    0.2250    0.0000 N.am    1  LIG1       -0.1552
      4 N          -0.0580   -0.6290    0.0000 N.2     1  LIG1       -0.1755
      5 C          -1.0250   -0.4170    0.0000 C.2     1  LIG1        0.0817
      6 C          -1.7580   -1.0920    0.0000 C.3     1  LIG1        0.0539
      7 C           1.4540    0.3420    0.0000 C.ar    1  LIG1        0.0771
      8 C           2.0380   -0.4750    0.0000 C.ar    1  LIG1        0.0182
      9 C           3.0290   -0.3790    0.0000 C.ar    1  LIG1        0.0213
     10 C           3.4380    0.5250    0.0000 C.ar    1  LIG1        0.1251
     11 S           4.4330    0.6290    0.0000 S.O2    1  LIG1        0.0935
     12 O           4.3540    1.6080    0.0000 O.2     1  LIG1       -0.1503
     13 O           4.5420   -0.3790    0.0000 O.2     1  LIG1       -0.1503
     14 N           5.4420    0.7080    0.0000 N.3     1  LIG1        0.0392
     15 C           2.8630    1.3540    0.0000 C.ar    1  LIG1        0.0213
     16 C           1.8750    1.2460    0.0000 C.ar    1  LIG1        0.0182
     17 O           0.0040    1.9580    0.0000 O.2     1  LIG1       -0.2678
     18 C          -2.0000    1.0670    0.0000 C.2     1  LIG1        0.0059
     19 C          -2.8630    0.5500    0.0000 C.ar    1  LIG1        0.0036
     20 C          -2.8630   -0.4460    0.0000 C.ar    1  LIG1        0.0454
     21 C          -3.7330   -0.9460    0.0000 C.ar    1  LIG1        0.2343
     22 C          -4.5960   -0.4460    0.0000 C.ar    1  LIG1        0.2343
     23 C          -4.5960    0.5500    0.0000 C.ar    1  LIG1        0.0454
     24 C          -3.7330    1.0500    0.0000 C.ar    1  LIG1        0.0035
     25 O          -5.4460   -0.9460    0.0000 O.3     1  LIG1       -0.2831
     26 O          -3.7330   -1.9540    0.0000 O.3     1  LIG1       -0.2831
@<TRIPOS>BOND
     1     1     2    1
     2     1     5    1
     3     1    18    2
     4     2     3   am
     5     2    17    2
     6     3     4    1
     7     3     7    1
     8     4     5    2
     9     5     6    1
    10     7     8   ar
    11     7    16   ar
    12     8     9   ar
    13     9    10   ar
    14    10    11    1
    15    10    15   ar
    16    11    12    2
    17    11    13    2
    18    11    14    1
    19    15    16   ar
    20    18    19    1
    21    19    20   ar
    22    19    24   ar
    23    20    21   ar
    24    21    22   ar
    25    21    26    1
    26    22    23   ar
    27    22    25    1
    28    23    24   ar
