@<TRIPOS>MOLECULE
25840_ChemDiv_6944-0010
 28 31 0 0 0
SMALL
GASTEIGER
Energy = 0

@<TRIPOS>ATOM
      1 C          -0.0040    1.7580    0.0000 C.ar    1  LIG1       -0.0047
      2 C          -0.8710    1.2540    0.0000 C.ar    1  LIG1        0.0341
      3 C          -0.8630    0.2540    0.0000 C.ar    1  LIG1        0.0019
      4 C           0.0040   -0.2500    0.0000 C.ar    1  LIG1       -0.0199
      5 C           0.8750    0.2540    0.0000 C.3     1  LIG1        0.0507
      6 C           0.8750    1.2630    0.0000 C.3     1  LIG1        0.1020
      7 N           1.7250    1.7540    0.0000 N.am    1  LIG1       -0.2767
      8 C           2.5920    1.2500    0.0000 C.2     1  LIG1        0.2263
      9 O           2.5880    0.2500    0.0000 O.2     1  LIG1       -0.2748
     10 C           3.4580    1.7500    0.0000 C.3     1  LIG1        0.0948
     11 C           1.7250    2.7540    0.0000 C.3     1  LIG1        0.0983
     12 C           0.8580    3.2540    0.0000 C.3     1  LIG1        0.0477
     13 C          -0.0080    2.7540    0.0000 C.ar    1  LIG1       -0.0197
     14 C          -0.8670    3.2500    0.0000 C.ar    1  LIG1        0.0356
     15 C          -1.7330    2.7500    0.0000 C.ar    1  LIG1        0.1721
     16 C          -1.7420    1.7540    0.0000 C.ar    1  LIG1        0.1720
     17 O          -2.6000    1.2580    0.0000 O.3     1  LIG1       -0.4684
     18 C          -3.4630    1.7630    0.0000 C.3     1  LIG1        0.2526
     19 O          -2.5960    3.2460    0.0000 O.3     1  LIG1       -0.4684
     20 C          -3.4630    2.7500    0.0000 C.3     1  LIG1        0.2526
     21 C           0.0040   -1.2500    0.0000 C.ar    1  LIG1       -0.0011
     22 C          -0.8580   -1.7500    0.0000 C.ar    1  LIG1        0.0373
     23 C          -1.7330   -1.2500    0.0000 C.ar    1  LIG1        0.1484
     24 C          -1.7330   -0.2420    0.0000 C.ar    1  LIG1        0.0374
     25 O          -2.5960   -1.7500    0.0000 O.3     1  LIG1       -0.4241
     26 C          -2.5920   -2.7500    0.0000 C.2     1  LIG1        0.3220
     27 O          -1.7250   -3.2500    0.0000 O.2     1  LIG1       -0.2497
     28 C          -3.4540   -3.2500    0.0000 C.3     1  LIG1        0.1216
@<TRIPOS>BOND
     1     1     2   ar
     2     1     6    1
     3     1    13   ar
     4     2     3    1
     5     2    16   ar
     6     3     4   ar
     7     3    24   ar
     8     4     5    1
     9     4    21   ar
    10     5     6    1
    11     6     7    1
    12     7     8   am
    13     7    11    1
    14     8     9    2
    15     8    10    1
    16    11    12    1
    17    12    13    1
    18    13    14   ar
    19    14    15   ar
    20    15    16   ar
    21    15    19    1
    22    16    17    1
    23    17    18    1
    24    19    20    1
    25    21    22   ar
    26    22    23   ar
    27    23    24   ar
    28    23    25    1
    29    25    26    1
    30    26    27    2
    31    26    28    1
