@<TRIPOS>MOLECULE
25858_ChemDiv_N025-0039
 22 25 0 0 0
SMALL
GASTEIGER
Energy = 0

@<TRIPOS>ATOM
      1 C           0.4250    1.0000    0.0000 C.ar    1  LIG1        0.0280
      2 C          -0.4460    0.4920    0.0000 C.ar    1  LIG1        0.0378
      3 C          -1.3130    1.0000    0.0000 C.ar    1  LIG1        0.1721
      4 C          -1.3130    1.9960    0.0000 C.ar    1  LIG1        0.1721
      5 C          -0.4460    2.5040    0.0000 C.ar    1  LIG1        0.0359
      6 C           0.4250    1.9960    0.0000 C.ar    1  LIG1       -0.0117
      7 C           1.2920    2.5040    0.0000 C.3     1  LIG1        0.0890
      8 C           2.1580    1.9960    0.0000 C.3     1  LIG1        0.1438
      9 N           2.1580    1.0000    0.0000 N.4     1  LIG1        0.3813
     10 C           1.2920    0.4920    0.0000 C.3     1  LIG1        0.1144
     11 C           1.2920   -0.5000    0.0000 C.3     1  LIG1        0.0879
     12 C           0.4080   -0.9960    0.0000 C.ar    1  LIG1       -0.0160
     13 C          -0.4460   -0.5000    0.0000 C.ar    1  LIG1       -0.0009
     14 C          -1.3210   -0.9880    0.0000 C.ar    1  LIG1       -0.0002
     15 C          -1.3210   -1.9920    0.0000 C.ar    1  LIG1       -0.0000
     16 C          -0.4540   -2.5000    0.0000 C.ar    1  LIG1       -0.0003
     17 C           0.4250   -2.0000    0.0000 C.ar    1  LIG1       -0.0041
     18 C           3.0250    0.5170    0.0000 C.3     1  LIG1        0.2024
     19 O          -2.1830    2.4830    0.0000 O.3     1  LIG1       -0.4684
     20 C          -3.0290    1.9750    0.0000 C.3     1  LIG1        0.2526
     21 O          -2.1830    0.5170    0.0000 O.3     1  LIG1       -0.4684
     22 C          -3.0290    1.0130    0.0000 C.3     1  LIG1        0.2526
@<TRIPOS>BOND
     1     1     2   ar
     2     1     6   ar
     3     1    10    1
     4     2     3   ar
     5     2    13    1
     6     3     4   ar
     7     3    21    1
     8     4     5   ar
     9     4    19    1
    10     5     6   ar
    11     6     7    1
    12     7     8    1
    13     8     9    1
    14     9    10    1
    15     9    18    1
    16    10    11    1
    17    11    12    1
    18    12    13   ar
    19    12    17   ar
    20    13    14   ar
    21    14    15   ar
    22    15    16   ar
    23    16    17   ar
    24    19    20    1
    25    21    22    1
