@<TRIPOS>MOLECULE
25853_ChemDiv_5752-0060
 34 37 0 0 0
SMALL
GASTEIGER
Energy = 0

@<TRIPOS>ATOM
      1 C          -1.7710    2.2880    0.0000 C.2     1  LIG1        0.0706
      2 C          -1.8210    1.2880    0.0000 C.2     1  LIG1        0.2728
      3 N          -2.7880    1.0290    0.0000 N.am    1  LIG1       -0.1552
      4 N          -3.3330    1.8710    0.0000 N.2     1  LIG1       -0.1755
      5 C          -2.7040    2.6420    0.0000 C.2     1  LIG1        0.0817
      6 C          -2.9670    3.6080    0.0000 C.3     1  LIG1        0.0539
      7 C          -3.1540    0.0960    0.0000 C.ar    1  LIG1        0.0771
      8 C          -2.5170   -0.6790    0.0000 C.ar    1  LIG1        0.0182
      9 C          -2.8750   -1.6080    0.0000 C.ar    1  LIG1        0.0213
     10 C          -3.8710   -1.7670    0.0000 C.ar    1  LIG1        0.1251
     11 S          -4.2170   -2.7000    0.0000 S.O2    1  LIG1        0.0935
     12 O          -3.2670   -3.0380    0.0000 O.2     1  LIG1       -0.1503
     13 O          -5.1830   -2.3330    0.0000 O.2     1  LIG1       -0.1503
     14 N          -4.5500   -3.6040    0.0000 N.3     1  LIG1        0.0392
     15 C          -4.5000   -0.9920    0.0000 C.ar    1  LIG1        0.0213
     16 C          -4.1290   -0.0630    0.0000 C.ar    1  LIG1        0.0182
     17 O          -1.0500    0.6630    0.0000 O.2     1  LIG1       -0.2678
     18 C          -0.9380    2.8330    0.0000 C.2     1  LIG1        0.0059
     19 C          -0.0580    2.3880    0.0000 C.ar    1  LIG1        0.0034
     20 C           0.0080    1.3710    0.0000 C.ar    1  LIG1        0.0401
     21 C           0.8960    0.9290    0.0000 C.ar    1  LIG1        0.1731
     22 C           1.7460    1.4710    0.0000 C.ar    1  LIG1        0.1825
     23 O           2.6290    1.0210    0.0000 O.3     1  LIG1       -0.4158
     24 C           2.6920    0.0250    0.0000 C.2     1  LIG1        0.3809
     25 C           3.5750   -0.4290    0.0000 C.ar    1  LIG1        0.2210
     26 O           4.4710    0.0290    0.0000 O.2     1  LIG1       -0.4438
     27 C           5.1790   -0.6790    0.0000 C.ar    1  LIG1        0.1799
     28 C           4.7290   -1.5670    0.0000 C.ar    1  LIG1        0.0440
     29 C           3.7330   -1.4080    0.0000 C.ar    1  LIG1        0.0475
     30 O           1.8460   -0.5210    0.0000 O.2     1  LIG1       -0.2410
     31 C           1.6920    2.4750    0.0000 C.ar    1  LIG1        0.0408
     32 C           0.7960    2.9250    0.0000 C.ar    1  LIG1        0.0033
     33 O           0.9580   -0.0710    0.0000 O.3     1  LIG1       -0.4683
     34 C           0.1210   -0.6210    0.0000 C.3     1  LIG1        0.2526
@<TRIPOS>BOND
     1     1     2    1
     2     1     5    1
     3     1    18    2
     4     2     3   am
     5     2    17    2
     6     3     4    1
     7     3     7    1
     8     4     5    2
     9     5     6    1
    10     7     8   ar
    11     7    16   ar
    12     8     9   ar
    13     9    10   ar
    14    10    11    1
    15    10    15   ar
    16    11    12    2
    17    11    13    2
    18    11    14    1
    19    15    16   ar
    20    18    19    1
    21    19    20   ar
    22    19    32   ar
    23    20    21   ar
    24    21    22   ar
    25    21    33    1
    26    22    23    1
    27    22    31   ar
    28    23    24    1
    29    24    25    1
    30    24    30    2
    31    25    26   ar
    32    25    29   ar
    33    26    27   ar
    34    27    28   ar
    35    28    29   ar
    36    31    32   ar
    37    33    34    1
