@<TRIPOS>MOLECULE
25863_ChemDiv_0663-0359
 28 31 0 0 0
SMALL
GASTEIGER
Energy = 0

@<TRIPOS>ATOM
      1 S           0.4460   -1.2960    0.0000 S.O2    1  LIG1        0.0633
      2 N           0.0170   -2.2330    0.0000 N.3     1  LIG1       -0.1555
      3 C           0.6080   -3.0540    0.0000 C.3     1  LIG1        0.0958
      4 C           0.1790   -3.9630    0.0000 C.3     1  LIG1        0.0192
      5 C          -0.8040   -4.0370    0.0000 C.3     1  LIG1        0.0030
      6 C          -1.3960   -3.2170    0.0000 C.3     1  LIG1        0.0192
      7 C          -0.9710   -2.3210    0.0000 C.3     1  LIG1        0.0958
      8 C           0.8630   -0.3920    0.0000 C.ar    1  LIG1        0.1222
      9 C           1.8500   -0.3210    0.0000 C.ar    1  LIG1        0.0201
     10 C           2.3420    0.5330    0.0000 C.ar    1  LIG1        0.0059
     11 C           1.8210    1.3790    0.0000 C.ar    1  LIG1        0.0555
     12 C           2.3130    2.2380    0.0000 C.2     1  LIG1        0.2707
     13 N           1.7880    3.0960    0.0000 N.am    1  LIG1       -0.1505
     14 C           0.7750    3.0210    0.0000 C.ar    1  LIG1        0.1854
     15 N           0.2080    2.2000    0.0000 N.ar    1  LIG1       -0.2272
     16 C          -0.7380    2.5040    0.0000 C.ar    1  LIG1        0.0630
     17 C          -0.7380    3.5170    0.0000 C.ar    1  LIG1        0.0235
     18 S           0.2080    3.8170    0.0000 S.2     1  LIG1       -0.0544
     19 C          -1.6000    4.0170    0.0000 C.3     1  LIG1        0.0342
     20 C          -2.4460    3.5170    0.0000 C.3     1  LIG1        0.0053
     21 C          -2.4460    2.5040    0.0000 C.3     1  LIG1        0.0067
     22 C          -1.6000    2.0080    0.0000 C.3     1  LIG1        0.0461
     23 C          -3.3040    4.0370    0.0000 C.3     1  LIG1        0.0004
     24 O           3.3000    2.2750    0.0000 O.2     1  LIG1       -0.2679
     25 C           0.8380    1.3540    0.0000 C.ar    1  LIG1        0.0059
     26 C           0.3420    0.4710    0.0000 C.ar    1  LIG1        0.0201
     27 O          -0.4790   -0.8830    0.0000 O.2     1  LIG1       -0.1528
     28 O           1.3960   -1.7380    0.0000 O.2     1  LIG1       -0.1528
@<TRIPOS>BOND
     1     1     2    1
     2     1     8    1
     3     1    27    2
     4     1    28    2
     5     2     3    1
     6     2     7    1
     7     3     4    1
     8     4     5    1
     9     5     6    1
    10     6     7    1
    11     8     9   ar
    12     8    26   ar
    13     9    10   ar
    14    10    11   ar
    15    11    12    1
    16    11    25   ar
    17    12    13   am
    18    12    24    2
    19    13    14    1
    20    14    15   ar
    21    14    18   ar
    22    15    16   ar
    23    16    17   ar
    24    16    22    1
    25    17    18   ar
    26    17    19    1
    27    19    20    1
    28    20    21    1
    29    20    23    1
    30    21    22    1
    31    25    26   ar
