@<TRIPOS>MOLECULE
25867_ChemDiv_2291-1632
 33 35 0 0 0
SMALL
GASTEIGER
Energy = 0

@<TRIPOS>ATOM
      1 S           2.8540    0.3250    0.0000 S.O2    1  LIG1        0.0634
      2 N           3.8580    0.3580    0.0000 N.3     1  LIG1       -0.1504
      3 C           4.3460    1.2540    0.0000 C.3     1  LIG1        0.1279
      4 C           5.3500    1.2880    0.0000 C.3     1  LIG1        0.1614
      5 O           5.8250    2.1670    0.0000 O.3     1  LIG1       -0.3496
      6 C           6.8330    2.2080    0.0000 C.3     1  LIG1        0.1742
      7 C           4.3880   -0.4790    0.0000 C.3     1  LIG1        0.1279
      8 C           3.8920   -1.3580    0.0000 C.3     1  LIG1        0.1614
      9 O           4.4210   -2.2540    0.0000 O.3     1  LIG1       -0.3496
     10 C           3.9420   -3.1330    0.0000 C.3     1  LIG1        0.1742
     11 C           1.8500    0.2830    0.0000 C.ar    1  LIG1        0.1222
     12 C           1.3710   -0.6040    0.0000 C.ar    1  LIG1        0.0201
     13 C           0.3670   -0.6040    0.0000 C.ar    1  LIG1        0.0059
     14 C          -0.1290    0.2830    0.0000 C.ar    1  LIG1        0.0555
     15 C          -1.1330    0.2830    0.0000 C.2     1  LIG1        0.2707
     16 N          -1.6080    1.1290    0.0000 N.am    1  LIG1       -0.1505
     17 C          -2.6170    1.1290    0.0000 C.ar    1  LIG1        0.1858
     18 N          -3.1750    0.3250    0.0000 N.ar    1  LIG1       -0.2268
     19 C          -4.1460    0.6500    0.0000 C.ar    1  LIG1        0.0697
     20 C          -4.1460    1.6540    0.0000 C.ar    1  LIG1        0.0803
     21 S          -3.1750    1.9330    0.0000 S.2     1  LIG1       -0.0472
     22 C          -5.0250    2.1330    0.0000 C.2     1  LIG1        0.1802
     23 C          -5.8630    1.6540    0.0000 C.3     1  LIG1        0.0701
     24 C          -5.8630    0.6500    0.0000 C.3     1  LIG1        0.0129
     25 C          -5.0250    0.1250    0.0000 C.3     1  LIG1        0.0469
     26 C          -6.8330    0.7580    0.0000 C.3     1  LIG1        0.0008
     27 C          -6.2290   -0.2790    0.0000 C.3     1  LIG1        0.0008
     28 O          -5.0580    3.1380    0.0000 O.2     1  LIG1       -0.2908
     29 O          -1.6080   -0.6040    0.0000 O.2     1  LIG1       -0.2679
     30 C           0.3670    1.1290    0.0000 C.ar    1  LIG1        0.0059
     31 C           1.3710    1.0880    0.0000 C.ar    1  LIG1        0.0201
     32 O           2.8880   -0.6790    0.0000 O.2     1  LIG1       -0.1528
     33 O           2.8130    1.3290    0.0000 O.2     1  LIG1       -0.1528
@<TRIPOS>BOND
     1     1     2    1
     2     1    11    1
     3     1    32    2
     4     1    33    2
     5     2     3    1
     6     2     7    1
     7     3     4    1
     8     4     5    1
     9     5     6    1
    10     7     8    1
    11     8     9    1
    12     9    10    1
    13    11    12   ar
    14    11    31   ar
    15    12    13   ar
    16    13    14   ar
    17    14    15    1
    18    14    30   ar
    19    15    16   am
    20    15    29    2
    21    16    17    1
    22    17    18   ar
    23    17    21   ar
    24    18    19   ar
    25    19    20   ar
    26    19    25    1
    27    20    21   ar
    28    20    22    1
    29    22    23    1
    30    22    28    2
    31    23    24    1
    32    24    25    1
    33    24    26    1
    34    24    27    1
    35    30    31   ar
