@<TRIPOS>MOLECULE
25861_ChemDiv_4462-7445
 35 40 0 0 0
SMALL
GASTEIGER
Energy = 0

@<TRIPOS>ATOM
      1 S           3.9500   -0.1580    0.0000 S.O2    1  LIG1        0.0634
      2 N           4.9460   -0.2250    0.0000 N.3     1  LIG1       -0.1504
      3 C           5.5000    0.6080    0.0000 C.3     1  LIG1        0.1279
      4 C           6.5040    0.5250    0.0000 C.3     1  LIG1        0.1613
      5 O           6.9540   -0.3710    0.0000 O.3     1  LIG1       -0.3507
      6 C           6.3880   -1.1880    0.0000 C.3     1  LIG1        0.1613
      7 C           5.3670   -1.1040    0.0000 C.3     1  LIG1        0.1279
      8 C           2.9500   -0.0420    0.0000 C.ar    1  LIG1        0.1222
      9 C           2.5830    0.8420    0.0000 C.ar    1  LIG1        0.0201
     10 C           1.5920    0.9460    0.0000 C.ar    1  LIG1        0.0059
     11 C           0.9920    0.1080    0.0000 C.ar    1  LIG1        0.0555
     12 C           0.0040    0.1420    0.0000 C.2     1  LIG1        0.2690
     13 N          -0.4380   -0.7040    0.0000 N.am    1  LIG1       -0.1754
     14 C          -1.4630   -0.6920    0.0000 C.ar    1  LIG1        0.0737
     15 C          -1.9750   -1.5460    0.0000 C.ar    1  LIG1        0.0163
     16 C          -2.9580   -1.5630    0.0000 C.ar    1  LIG1       -0.0030
     17 C          -3.4420   -0.6920    0.0000 C.ar    1  LIG1       -0.0226
     18 C          -4.4250   -0.6920    0.0000 C.3     1  LIG1        0.0213
     19 C          -4.4250    0.1630    0.0000 C.3     1  LIG1        0.0345
     20 C          -5.2170    0.6080    0.0000 C.3     1  LIG1        0.1269
     21 C          -6.0420   -0.1420    0.0000 C.3     1  LIG1        0.0304
     22 C          -6.0420   -1.1880    0.0000 C.3     1  LIG1        0.0028
     23 C          -5.0670   -1.5290    0.0000 C.3     1  LIG1        0.0042
     24 C          -6.9540   -1.5290    0.0000 C.3     1  LIG1        0.0002
     25 C          -6.2420   -0.6920    0.0000 C.3     1  LIG1        0.0028
     26 C          -5.2170   -1.0920    0.0000 C.3     1  LIG1        0.0042
     27 C          -6.2420    0.2750    0.0000 C.3     1  LIG1        0.0304
     28 O          -5.1630    1.5670    0.0000 O.3     1  LIG1       -0.2257
     29 C          -2.9580    0.2080    0.0000 C.ar    1  LIG1       -0.0030
     30 C          -1.9460    0.2080    0.0000 C.ar    1  LIG1        0.0163
     31 O          -0.4130    1.0130    0.0000 O.2     1  LIG1       -0.2680
     32 C           1.4290   -0.7710    0.0000 C.ar    1  LIG1        0.0059
     33 C           2.3920   -0.8750    0.0000 C.ar    1  LIG1        0.0201
     34 O           3.8630   -1.1710    0.0000 O.2     1  LIG1       -0.1528
     35 O           4.0790    0.8420    0.0000 O.2     1  LIG1       -0.1528
@<TRIPOS>BOND
     1     1     2    1
     2     1     8    1
     3     1    34    2
     4     1    35    2
     5     2     3    1
     6     2     7    1
     7     3     4    1
     8     4     5    1
     9     5     6    1
    10     6     7    1
    11     8     9   ar
    12     8    33   ar
    13     9    10   ar
    14    10    11   ar
    15    11    12    1
    16    11    32   ar
    17    12    13   am
    18    12    31    2
    19    13    14    1
    20    14    15   ar
    21    14    30   ar
    22    15    16   ar
    23    16    17   ar
    24    17    18    1
    25    17    29   ar
    26    18    19    1
    27    18    23    1
    28    18    26    1
    29    19    20    1
    30    20    21    1
    31    20    27    1
    32    20    28    1
    33    21    22    1
    34    22    23    1
    35    22    24    1
    36    24    25    1
    37    25    26    1
    38    25    27    1
    39    29    30   ar
    40    32    33   ar
