@<TRIPOS>MOLECULE
25865_ChemDiv_2291-1618
 30 33 0 0 0
SMALL
GASTEIGER
Energy = 0

@<TRIPOS>ATOM
      1 S           3.2580   -1.6420    0.0000 S.O2    1  LIG1        0.0633
      2 N           4.2420   -1.7960    0.0000 N.3     1  LIG1       -0.1555
      3 C           4.5750   -2.7210    0.0000 C.3     1  LIG1        0.0958
      4 C           5.5920   -2.8750    0.0000 C.3     1  LIG1        0.0192
      5 C           6.2290   -2.0920    0.0000 C.3     1  LIG1        0.0030
      6 C           5.8380   -1.1750    0.0000 C.3     1  LIG1        0.0192
      7 C           4.8540   -1.0330    0.0000 C.3     1  LIG1        0.0958
      8 C           2.2750   -1.5000    0.0000 C.ar    1  LIG1        0.1222
      9 C           1.5880   -2.2630    0.0000 C.ar    1  LIG1        0.0201
     10 C           0.6290   -2.0670    0.0000 C.ar    1  LIG1        0.0059
     11 C           0.3330   -1.1330    0.0000 C.ar    1  LIG1        0.0555
     12 C          -0.6080   -0.9750    0.0000 C.2     1  LIG1        0.2707
     13 N          -0.9290    0.0000    0.0000 N.am    1  LIG1       -0.1505
     14 C          -1.9500    0.2290    0.0000 C.ar    1  LIG1        0.1858
     15 N          -2.7710   -0.3630    0.0000 N.ar    1  LIG1       -0.2268
     16 C          -3.5790    0.1960    0.0000 C.ar    1  LIG1        0.0697
     17 C          -3.2880    1.1540    0.0000 C.ar    1  LIG1        0.0803
     18 S          -2.3040    1.1540    0.0000 S.2     1  LIG1       -0.0472
     19 C          -3.9420    1.8920    0.0000 C.2     1  LIG1        0.1802
     20 C          -4.9580    1.6460    0.0000 C.3     1  LIG1        0.0701
     21 C          -5.2500    0.6880    0.0000 C.3     1  LIG1        0.0129
     22 C          -4.5380   -0.0500    0.0000 C.3     1  LIG1        0.0469
     23 C          -5.8170   -0.1670    0.0000 C.3     1  LIG1        0.0008
     24 C          -6.2290    0.4670    0.0000 C.3     1  LIG1        0.0008
     25 O          -3.6460    2.8790    0.0000 O.2     1  LIG1       -0.2908
     26 O          -1.2880   -1.7380    0.0000 O.2     1  LIG1       -0.2679
     27 C           1.0380   -0.3960    0.0000 C.ar    1  LIG1        0.0059
     28 C           1.9790   -0.5920    0.0000 C.ar    1  LIG1        0.0201
     29 O           3.1250   -2.6040    0.0000 O.2     1  LIG1       -0.1528
     30 O           3.4210   -0.6580    0.0000 O.2     1  LIG1       -0.1528
@<TRIPOS>BOND
     1     1     2    1
     2     1     8    1
     3     1    29    2
     4     1    30    2
     5     2     3    1
     6     2     7    1
     7     3     4    1
     8     4     5    1
     9     5     6    1
    10     6     7    1
    11     8     9   ar
    12     8    28   ar
    13     9    10   ar
    14    10    11   ar
    15    11    12    1
    16    11    27   ar
    17    12    13   am
    18    12    26    2
    19    13    14    1
    20    14    15   ar
    21    14    18   ar
    22    15    16   ar
    23    16    17   ar
    24    16    22    1
    25    17    18   ar
    26    17    19    1
    27    19    20    1
    28    19    25    2
    29    20    21    1
    30    21    22    1
    31    21    23    1
    32    21    24    1
    33    27    28   ar
