@<TRIPOS>MOLECULE
25871_ChemDiv_6494-0083
 23 25 0 0 0
SMALL
GASTEIGER
Energy = 0

@<TRIPOS>ATOM
      1 N          -1.9880   -0.2540    0.0000 N.ar    1  LIG1       -0.2579
      2 C          -1.3920   -1.0540    0.0000 C.ar    1  LIG1        0.4222
      3 O          -1.9790   -1.8670    0.0000 O.2     1  LIG1       -0.4068
      4 C          -2.9290   -1.5630    0.0000 C.ar    1  LIG1        0.1660
      5 C          -2.9380   -0.5630    0.0000 C.ar    1  LIG1        0.1000
      6 C          -3.8080   -0.0630    0.0000 C.ar    1  LIG1        0.0162
      7 C          -4.6670   -0.5630    0.0000 C.ar    1  LIG1       -0.0202
      8 C          -4.6710   -1.5670    0.0000 C.ar    1  LIG1       -0.0010
      9 C          -3.8040   -2.0710    0.0000 C.ar    1  LIG1        0.0388
     10 C          -5.5290   -0.0630    0.0000 C.3     1  LIG1        0.0311
     11 O          -0.3880   -1.0460    0.0000 O.2     1  LIG1       -0.2226
     12 C          -1.6830    0.7000    0.0000 C.3     1  LIG1        0.1389
     13 C          -0.7080    0.9080    0.0000 C.ar    1  LIG1        0.0008
     14 C          -0.0380    0.1790    0.0000 C.ar    1  LIG1        0.0007
     15 C           0.9380    0.3880    0.0000 C.ar    1  LIG1        0.0366
     16 C           1.2420    1.3380    0.0000 C.ar    1  LIG1        0.1385
     17 C           0.5630    2.0750    0.0000 C.ar    1  LIG1        0.0366
     18 C          -0.4130    1.8630    0.0000 C.ar    1  LIG1        0.0007
     19 O           2.2210    1.5500    0.0000 O.3     1  LIG1       -0.4755
     20 C           2.8960    0.8170    0.0000 C.3     1  LIG1        0.2054
     21 C           3.8710    1.0330    0.0000 C.3     1  LIG1        0.0473
     22 C           4.5460    0.3000    0.0000 C.3     1  LIG1        0.0038
     23 C           5.5250    0.5170    0.0000 C.3     1  LIG1        0.0001
@<TRIPOS>BOND
     1     1     2   ar
     2     1     5   ar
     3     1    12    1
     4     2     3   ar
     5     2    11    2
     6     3     4   ar
     7     4     5   ar
     8     4     9   ar
     9     5     6   ar
    10     6     7   ar
    11     7     8   ar
    12     7    10    1
    13     8     9   ar
    14    12    13    1
    15    13    14   ar
    16    13    18   ar
    17    14    15   ar
    18    15    16   ar
    19    16    17   ar
    20    16    19    1
    21    17    18   ar
    22    19    20    1
    23    20    21    1
    24    21    22    1
    25    22    23    1
