@<TRIPOS>MOLECULE
25889_ChemDiv_8002-4757
 22 25 0 0 0
SMALL
GASTEIGER
Energy = 0

@<TRIPOS>ATOM
      1 N           0.5420   -1.3630    0.0000 N.ar    1  LIG1       -0.2076
      2 C           1.1250   -2.1920    0.0000 C.ar    1  LIG1        0.4282
      3 O           0.5420   -2.9880    0.0000 O.2     1  LIG1       -0.4065
      4 C          -0.4000   -2.6960    0.0000 C.ar    1  LIG1        0.1664
      5 C          -0.4000   -1.6880    0.0000 C.ar    1  LIG1        0.1072
      6 C          -1.2540   -1.1790    0.0000 C.ar    1  LIG1        0.0209
      7 C          -2.1290   -1.6880    0.0000 C.ar    1  LIG1        0.0017
      8 C          -2.1290   -2.6960    0.0000 C.ar    1  LIG1        0.0032
      9 C          -1.2540   -3.2000    0.0000 C.ar    1  LIG1        0.0392
     10 O           2.1250   -2.1920    0.0000 O.2     1  LIG1       -0.2222
     11 C           0.8540   -0.4290    0.0000 C.2     1  LIG1        0.2693
     12 C           0.1880    0.3330    0.0000 C.ar    1  LIG1        0.0567
     13 C           0.4750    1.2710    0.0000 C.ar    1  LIG1        0.0046
     14 C          -0.1750    2.0290    0.0000 C.ar    1  LIG1        0.0001
     15 C          -1.1420    1.8170    0.0000 C.ar    1  LIG1        0.0000
     16 C          -1.4630    0.8580    0.0000 C.ar    1  LIG1        0.0002
     17 C          -0.7830    0.1210    0.0000 C.ar    1  LIG1        0.0047
     18 C           0.1210    3.0080    0.0000 C.ar    1  LIG1        0.0000
     19 C           1.1040    3.2040    0.0000 C.ar    1  LIG1        0.0000
     20 C           1.7630    2.4710    0.0000 C.ar    1  LIG1        0.0000
     21 C           1.4500    1.4920    0.0000 C.ar    1  LIG1        0.0002
     22 O           1.8130   -0.2330    0.0000 O.2     1  LIG1       -0.2665
@<TRIPOS>BOND
     1     1     2   ar
     2     1     5   ar
     3     1    11   am
     4     2     3   ar
     5     2    10    2
     6     3     4   ar
     7     4     5   ar
     8     4     9   ar
     9     5     6   ar
    10     6     7   ar
    11     7     8   ar
    12     8     9   ar
    13    11    12    1
    14    11    22    2
    15    12    13   ar
    16    12    17   ar
    17    13    14   ar
    18    13    21   ar
    19    14    15   ar
    20    14    18   ar
    21    15    16   ar
    22    16    17   ar
    23    18    19   ar
    24    19    20   ar
    25    20    21   ar
