@<TRIPOS>MOLECULE
25883_ChemDiv_8012-6252
 27 30 0 0 0
SMALL
GASTEIGER
Energy = 0

@<TRIPOS>ATOM
      1 C           0.1710    0.9330    0.0000 C.2     1  LIG1        0.0706
      2 C          -0.3710    0.1080    0.0000 C.2     1  LIG1        0.2728
      3 N          -1.3330    0.3960    0.0000 N.am    1  LIG1       -0.1552
      4 N          -1.3920    1.3790    0.0000 N.2     1  LIG1       -0.1755
      5 C          -0.4500    1.7290    0.0000 C.2     1  LIG1        0.0817
      6 C          -0.2000    2.6920    0.0000 C.3     1  LIG1        0.0539
      7 C          -2.2130   -0.1130    0.0000 C.ar    1  LIG1        0.0771
      8 C          -3.0790    0.3710    0.0000 C.ar    1  LIG1        0.0169
      9 C          -3.9130   -0.1380    0.0000 C.ar    1  LIG1        0.0025
     10 C          -3.8830   -1.1380    0.0000 C.ar    1  LIG1        0.0141
     11 C          -4.8170   -1.6580    0.0000 C.2     1  LIG1        0.0729
     12 O          -4.7880   -2.6880    0.0000 O.co2   1  LIG1       -0.5446
     13 O          -5.6670   -1.1460    0.0000 O.co2   1  LIG1       -0.5446
     14 C          -3.0250   -1.6210    0.0000 C.ar    1  LIG1        0.0025
     15 C          -2.1830   -1.1210    0.0000 C.ar    1  LIG1        0.0169
     16 O          -0.0290   -0.8380    0.0000 O.2     1  LIG1       -0.2678
     17 C           1.1330    1.1040    0.0000 C.2     1  LIG1        0.0058
     18 C           1.7790    0.3330    0.0000 C.ar    1  LIG1        0.0001
     19 C           2.7420    0.5000    0.0000 C.ar    1  LIG1       -0.0012
     20 C           3.3710   -0.2500    0.0000 C.ar    1  LIG1        0.0154
     21 C           3.0420   -1.1830    0.0000 C.ar    1  LIG1        0.1345
     22 O           3.8540   -1.7920    0.0000 O.3     1  LIG1       -0.4791
     23 C           4.6670   -1.2130    0.0000 C.3     1  LIG1        0.1704
     24 C           4.3670   -0.2830    0.0000 C.3     1  LIG1        0.0729
     25 C           5.6630   -1.5130    0.0000 C.3     1  LIG1        0.0476
     26 C           2.0790   -1.3790    0.0000 C.ar    1  LIG1        0.0366
     27 C           1.4130   -0.5960    0.0000 C.ar    1  LIG1        0.0031
@<TRIPOS>BOND
     1     1     2    1
     2     1     5    1
     3     1    17    2
     4     2     3   am
     5     2    16    2
     6     3     4    1
     7     3     7    1
     8     4     5    2
     9     5     6    1
    10     7     8   ar
    11     7    15   ar
    12     8     9   ar
    13     9    10   ar
    14    10    11    1
    15    10    14   ar
    16    11    12   ar
    17    11    13   ar
    18    14    15   ar
    19    17    18    1
    20    18    19   ar
    21    18    27   ar
    22    19    20   ar
    23    20    21   ar
    24    20    24    1
    25    21    22    1
    26    21    26   ar
    27    22    23    1
    28    23    24    1
    29    23    25    1
    30    26    27   ar
