@<TRIPOS>MOLECULE
25887_ChemDiv_D009-0593
 33 37 0 0 0
SMALL
GASTEIGER
Energy = 0

@<TRIPOS>ATOM
      1 C           0.1250    1.6000    0.0000 C.2     1  LIG1        0.0706
      2 C           0.5130    2.5210    0.0000 C.2     1  LIG1        0.2728
      3 N           1.5080    2.4290    0.0000 N.am    1  LIG1       -0.1552
      4 N           1.7330    1.4500    0.0000 N.2     1  LIG1       -0.1755
      5 C           0.8750    0.9380    0.0000 C.2     1  LIG1        0.0817
      6 C           0.7790   -0.0580    0.0000 C.3     1  LIG1        0.0539
      7 C           2.1750    3.1790    0.0000 C.ar    1  LIG1        0.0771
      8 C           1.8500    4.1170    0.0000 C.ar    1  LIG1        0.0168
      9 C           2.5040    4.8710    0.0000 C.ar    1  LIG1        0.0013
     10 C           3.4920    4.6790    0.0000 C.ar    1  LIG1        0.0001
     11 C           3.8130    3.7330    0.0000 C.ar    1  LIG1        0.0013
     12 C           3.1540    2.9830    0.0000 C.ar    1  LIG1        0.0168
     13 O           0.0040    3.3790    0.0000 O.2     1  LIG1       -0.2678
     14 C          -0.8540    1.3830    0.0000 C.2     1  LIG1        0.0073
     15 C          -1.1500    0.4290    0.0000 C.ar    1  LIG1        0.0188
     16 C          -0.5580   -0.3880    0.0000 C.ar    1  LIG1        0.0759
     17 N          -1.1330   -1.2000    0.0000 N.ar    1  LIG1       -0.3232
     18 C          -2.0880   -0.8830    0.0000 C.ar    1  LIG1        0.0600
     19 C          -2.0880    0.1130    0.0000 C.ar    1  LIG1        0.0172
     20 C          -2.9500    0.6170    0.0000 C.ar    1  LIG1        0.0015
     21 C          -3.8170    0.1130    0.0000 C.ar    1  LIG1        0.0001
     22 C          -3.8170   -0.8830    0.0000 C.ar    1  LIG1        0.0015
     23 C          -2.9500   -1.3830    0.0000 C.ar    1  LIG1        0.0172
     24 C          -0.8790   -2.1710    0.0000 C.3     1  LIG1        0.1451
     25 C           0.0880   -2.4210    0.0000 C.3     1  LIG1        0.2306
     26 C           0.3460   -3.3830    0.0000 C.3     1  LIG1        0.1741
     27 N           1.3080   -3.6420    0.0000 N.4     1  LIG1        0.3833
     28 C           2.0170   -2.9420    0.0000 C.3     1  LIG1        0.1714
     29 C           2.9790   -3.2000    0.0000 C.3     1  LIG1        0.2047
     30 O           3.2460   -4.1630    0.0000 O.3     1  LIG1       -0.3411
     31 C           2.5420   -4.8710    0.0000 C.3     1  LIG1        0.2047
     32 C           1.5750   -4.6130    0.0000 C.3     1  LIG1        0.1714
     33 O           0.7960   -1.7130    0.0000 O.3     1  LIG1       -0.2146
@<TRIPOS>BOND
     1     1     2    1
     2     1     5    1
     3     1    14    2
     4     2     3   am
     5     2    13    2
     6     3     4    1
     7     3     7    1
     8     4     5    2
     9     5     6    1
    10     7     8   ar
    11     7    12   ar
    12     8     9   ar
    13     9    10   ar
    14    10    11   ar
    15    11    12   ar
    16    14    15    1
    17    15    16   ar
    18    15    19   ar
    19    16    17   ar
    20    17    18   ar
    21    17    24    1
    22    18    19   ar
    23    18    23   ar
    24    19    20   ar
    25    20    21   ar
    26    21    22   ar
    27    22    23   ar
    28    24    25    1
    29    25    26    1
    30    25    33    1
    31    26    27    1
    32    27    28    1
    33    27    32    1
    34    28    29    1
    35    29    30    1
    36    30    31    1
    37    31    32    1
