@<TRIPOS>MOLECULE
25895_ChemDiv_8012-0996
 16 17 0 0 0
SMALL
GASTEIGER
Energy = 0

@<TRIPOS>ATOM
      1 N           0.3710    0.0000    0.0000 N.ar    1  LIG1       -0.1769
      2 C           0.3710   -0.9580    0.0000 C.ar    1  LIG1        0.4306
      3 O          -0.4630   -1.4040    0.0000 O.2     1  LIG1       -0.4064
      4 C          -1.2710   -0.9580    0.0000 C.ar    1  LIG1        0.1666
      5 C          -1.2710    0.0000    0.0000 C.ar    1  LIG1        0.1110
      6 C          -2.1080    0.4710    0.0000 C.ar    1  LIG1        0.0324
      7 C          -2.9420    0.0000    0.0000 C.ar    1  LIG1        0.0593
      8 C          -2.9420   -0.9580    0.0000 C.ar    1  LIG1        0.0146
      9 C          -2.1080   -1.4040    0.0000 C.ar    1  LIG1        0.0400
     10 CL         -3.7540    0.4710    0.0000 Cl      1  LIG1       -0.0822
     11 O           1.2210   -1.4500    0.0000 O.2     1  LIG1       -0.2221
     12 C           1.1920    0.4710    0.0000 C.2     1  LIG1        0.4260
     13 O           1.1920    1.4540    0.0000 O.2     1  LIG1       -0.2225
     14 O           2.0170    0.0000    0.0000 O.3     1  LIG1       -0.4324
     15 C           2.8790    0.5080    0.0000 C.3     1  LIG1        0.2105
     16 C           3.7500    0.0130    0.0000 C.3     1  LIG1        0.0513
@<TRIPOS>BOND
     1     1     2   ar
     2     1     5   ar
     3     1    12   am
     4     2     3   ar
     5     2    11    2
     6     3     4   ar
     7     4     5   ar
     8     4     9   ar
     9     5     6   ar
    10     6     7   ar
    11     7     8   ar
    12     7    10    1
    13     8     9   ar
    14    12    13    2
    15    12    14    1
    16    14    15    1
    17    15    16    1
