@<TRIPOS>MOLECULE
25899_ChemDiv_D011-2200
 22 24 0 0 0
SMALL
GASTEIGER
Energy = 0

@<TRIPOS>ATOM
      1 C          -1.4130   -1.9830    0.0000 C.ar    1  LIG1        0.4220
      2 N          -2.0130   -1.1830    0.0000 N.ar    1  LIG1       -0.2620
      3 C          -2.9630   -1.4920    0.0000 C.ar    1  LIG1        0.0999
      4 C          -2.9500   -2.4960    0.0000 C.ar    1  LIG1        0.1660
      5 O          -2.0000   -2.8040    0.0000 O.2     1  LIG1       -0.4068
      6 C          -3.8250   -3.0040    0.0000 C.ar    1  LIG1        0.0392
      7 C          -4.6880   -2.5040    0.0000 C.ar    1  LIG1        0.0032
      8 C          -4.6880   -1.5000    0.0000 C.ar    1  LIG1        0.0017
      9 C          -3.8250   -0.9960    0.0000 C.ar    1  LIG1        0.0205
     10 C          -1.7130   -0.2330    0.0000 C.3     1  LIG1        0.1161
     11 C          -0.7290   -0.0080    0.0000 C.3     1  LIG1        0.0720
     12 C          -0.4250    0.9420    0.0000 C.3     1  LIG1        0.2074
     13 O           0.5460    1.1540    0.0000 O.3     1  LIG1       -0.4754
     14 C           1.5250    1.3630    0.0000 C.ar    1  LIG1        0.1388
     15 C           1.8130    2.3040    0.0000 C.ar    1  LIG1        0.0400
     16 C           2.7920    2.5290    0.0000 C.ar    1  LIG1        0.0400
     17 C           3.4710    1.7880    0.0000 C.ar    1  LIG1        0.1389
     18 C           3.1710    0.8380    0.0000 C.ar    1  LIG1        0.0400
     19 C           2.1960    0.6250    0.0000 C.ar    1  LIG1        0.0400
     20 O           4.4330    2.0420    0.0000 O.3     1  LIG1       -0.4714
     21 C           4.6830    3.0080    0.0000 C.3     1  LIG1        0.2525
     22 O          -0.4130   -1.9830    0.0000 O.2     1  LIG1       -0.2226
@<TRIPOS>BOND
     1     1     2   ar
     2     1     5   ar
     3     1    22    2
     4     2     3   ar
     5     2    10    1
     6     3     4   ar
     7     3     9   ar
     8     4     5   ar
     9     4     6   ar
    10     6     7   ar
    11     7     8   ar
    12     8     9   ar
    13    10    11    1
    14    11    12    1
    15    12    13    1
    16    13    14    1
    17    14    15   ar
    18    14    19   ar
    19    15    16   ar
    20    16    17   ar
    21    17    18   ar
    22    17    20    1
    23    18    19   ar
    24    20    21    1
