@<TRIPOS>MOLECULE
25896_ChemDiv_8015-2538
 23 24 0 0 0
SMALL
GASTEIGER
Energy = 0

@<TRIPOS>ATOM
      1 S          -0.4290    1.0170    0.0000 S.O2    1  LIG1       -0.0578
      2 N           0.4130    1.5380    0.0000 N.pl3   1  LIG1       -0.5358
      3 C           1.2830    1.0540    0.0000 C.ar    1  LIG1       -0.1123
      4 C           2.1500    1.5460    0.0000 C.ar    1  LIG1       -0.0237
      5 C           3.0170    1.0540    0.0000 C.ar    1  LIG1        0.0028
      6 C           3.0170    0.0540    0.0000 C.ar    1  LIG1        0.0565
      7 C           3.8920   -0.4670    0.0000 C.2     1  LIG1        0.2842
      8 O           4.7750    0.0130    0.0000 O.2     1  LIG1       -0.2667
      9 N           3.8830   -1.4580    0.0000 N.am    1  LIG1       -0.0837
     10 C           2.1500   -0.4380    0.0000 C.ar    1  LIG1        0.0028
     11 C           1.2830    0.0540    0.0000 C.ar    1  LIG1       -0.0237
     12 C          -1.2960    0.4830    0.0000 C.ar    1  LIG1        0.0894
     13 C          -2.1580    0.9790    0.0000 C.ar    1  LIG1        0.0183
     14 C          -3.0330    0.4750    0.0000 C.ar    1  LIG1        0.0213
     15 C          -3.0330   -0.5210    0.0000 C.ar    1  LIG1        0.1251
     16 S          -3.8960   -1.0130    0.0000 S.O2    1  LIG1        0.0935
     17 O          -4.4000   -0.1500    0.0000 O.2     1  LIG1       -0.1503
     18 O          -3.3960   -1.8790    0.0000 O.2     1  LIG1       -0.1503
     19 N          -4.7790   -1.5170    0.0000 N.3     1  LIG1        0.0392
     20 C          -2.1580   -0.9960    0.0000 C.ar    1  LIG1        0.0213
     21 C          -1.2960   -0.5130    0.0000 C.ar    1  LIG1        0.0183
     22 O          -0.9420    1.8830    0.0000 O.2     1  LIG1       -0.1842
     23 O           0.0790    0.1540    0.0000 O.2     1  LIG1       -0.1842
@<TRIPOS>BOND
     1     1     2    1
     2     1    12    1
     3     1    22    2
     4     1    23    2
     5     2     3    1
     6     3     4   ar
     7     3    11   ar
     8     4     5   ar
     9     5     6   ar
    10     6     7    1
    11     6    10   ar
    12     7     8    2
    13     7     9   am
    14    10    11   ar
    15    12    13   ar
    16    12    21   ar
    17    13    14   ar
    18    14    15   ar
    19    15    16    1
    20    15    20   ar
    21    16    17    2
    22    16    18    2
    23    16    19    1
    24    20    21   ar
