@<TRIPOS>MOLECULE
25891_ChemDiv_8004-0448
 12 13 0 0 0
SMALL
GASTEIGER
Energy = 0

@<TRIPOS>ATOM
      1 C           0.0330    0.0080    0.0000 C.ar    1  LIG1        0.1283
      2 C           0.0330   -0.9960    0.0000 C.ar    1  LIG1        0.1693
      3 O           0.9790   -1.2960    0.0000 O.2     1  LIG1       -0.4055
      4 C           1.5710   -0.5040    0.0000 C.ar    1  LIG1        0.4409
      5 N           0.9790    0.3040    0.0000 N.ar    1  LIG1       -0.1708
      6 O           2.5710   -0.5040    0.0000 O.2     1  LIG1       -0.2207
      7 C          -0.8330   -1.5000    0.0000 C.ar    1  LIG1        0.0506
      8 C          -1.6960   -0.9960    0.0000 C.ar    1  LIG1        0.0613
      9 C          -1.6960    0.0080    0.0000 C.ar    1  LIG1        0.0198
     10 C          -0.8330    0.5040    0.0000 C.ar    1  LIG1        0.0562
     11 BR         -0.8330    1.5080    0.0000 Br      1  LIG1       -0.0473
     12 CL         -2.5750   -1.5040    0.0000 Cl      1  LIG1       -0.0821
@<TRIPOS>BOND
     1     1     2   ar
     2     1     5   ar
     3     1    10   ar
     4     2     3   ar
     5     2     7   ar
     6     3     4   ar
     7     4     5   ar
     8     4     6    2
     9     7     8   ar
    10     8     9   ar
    11     8    12    1
    12     9    10   ar
    13    10    11    1
