@<TRIPOS>MOLECULE
25909_ChemDiv_1606-0301
 30 33 0 0 0
SMALL
GASTEIGER
Energy = 0

@<TRIPOS>ATOM
      1 N          -1.1750   -0.3330    0.0000 N.am    1  LIG1       -0.2011
      2 C          -0.6330    0.4130    0.0000 C.2     1  LIG1        0.2589
      3 C           0.3040    0.1630    0.0000 C.ar    1  LIG1        0.0588
      4 C           0.3040   -0.8880    0.0000 C.ar    1  LIG1        0.0587
      5 C          -0.6330   -1.1880    0.0000 C.2     1  LIG1        0.2589
      6 O          -0.9540   -2.1500    0.0000 O.2     1  LIG1       -0.2691
      7 C           1.1920   -1.3920    0.0000 C.ar    1  LIG1        0.0048
      8 C           2.0960   -0.8880    0.0000 C.ar    1  LIG1        0.0047
      9 C           2.0960    0.1630    0.0000 C.ar    1  LIG1        0.0555
     10 C           2.9420    0.6580    0.0000 C.2     1  LIG1        0.2690
     11 N           3.8210    0.1710    0.0000 N.am    1  LIG1       -0.1754
     12 C           4.7080    0.6580    0.0000 C.ar    1  LIG1        0.0737
     13 C           4.7080    1.6750    0.0000 C.ar    1  LIG1        0.0166
     14 C           5.5670    2.1540    0.0000 C.ar    1  LIG1        0.0013
     15 C           6.4670    1.6750    0.0000 C.ar    1  LIG1        0.0001
     16 C           6.4580    0.5710    0.0000 C.ar    1  LIG1        0.0013
     17 C           5.5670    0.1630    0.0000 C.ar    1  LIG1        0.0166
     18 O           2.9420    1.6750    0.0000 O.2     1  LIG1       -0.2680
     19 C           1.1920    0.6210    0.0000 C.ar    1  LIG1        0.0093
     20 O          -0.9710    1.3790    0.0000 O.2     1  LIG1       -0.2691
     21 C          -2.1420   -0.3330    0.0000 C.ar    1  LIG1        0.0612
     22 C          -2.6460   -1.2130    0.0000 C.ar    1  LIG1        0.0155
     23 C          -3.6380   -1.2130    0.0000 C.ar    1  LIG1        0.0077
     24 C          -4.1250   -0.3330    0.0000 C.ar    1  LIG1        0.0757
     25 C          -5.1420   -0.3080    0.0000 C.2     1  LIG1        0.3413
     26 O          -5.6460   -1.1000    0.0000 O.2     1  LIG1       -0.2449
     27 O          -5.4790    0.6130    0.0000 O.3     1  LIG1       -0.4413
     28 C          -6.4670    0.6130    0.0000 C.3     1  LIG1        0.2560
     29 C          -3.6290    0.4790    0.0000 C.ar    1  LIG1        0.0077
     30 C          -2.6460    0.4790    0.0000 C.ar    1  LIG1        0.0155
@<TRIPOS>BOND
     1     1     2   am
     2     1     5   am
     3     1    21    1
     4     2     3    1
     5     2    20    2
     6     3     4   ar
     7     3    19   ar
     8     4     5    1
     9     4     7   ar
    10     5     6    2
    11     7     8   ar
    12     8     9   ar
    13     9    10    1
    14     9    19   ar
    15    10    11   am
    16    10    18    2
    17    11    12    1
    18    12    13   ar
    19    12    17   ar
    20    13    14   ar
    21    14    15   ar
    22    15    16   ar
    23    16    17   ar
    24    21    22   ar
    25    21    30   ar
    26    22    23   ar
    27    23    24   ar
    28    24    25    1
    29    24    29   ar
    30    25    26    2
    31    25    27    1
    32    27    28    1
    33    29    30   ar
