@<TRIPOS>MOLECULE
25903_ChemDiv_0665-0145
 19 20 0 0 0
SMALL
GASTEIGER
Energy = 0

@<TRIPOS>ATOM
      1 N          -0.7710    0.9790    0.0000 N.ar    1  LIG1       -0.2026
      2 C          -0.2000    0.1330    0.0000 C.ar    1  LIG1        0.2591
      3 O          -0.7710   -0.6290    0.0000 O.2     1  LIG1       -0.4300
      4 C          -1.7170   -0.3380    0.0000 C.ar    1  LIG1        0.1653
      5 C          -1.7170    0.6630    0.0000 C.ar    1  LIG1        0.1202
      6 C          -2.5630    1.1750    0.0000 C.ar    1  LIG1        0.0337
      7 C          -3.4210    0.7040    0.0000 C.ar    1  LIG1        0.0594
      8 C          -3.4210   -0.3380    0.0000 C.ar    1  LIG1        0.0146
      9 C          -2.5630   -0.8420    0.0000 C.ar    1  LIG1        0.0400
     10 CL         -4.2920    1.2330    0.0000 Cl      1  LIG1       -0.0822
     11 S           0.8290    0.1000    0.0000 S.3     1  LIG1       -0.0470
     12 C           1.3000   -0.7830    0.0000 C.3     1  LIG1        0.1516
     13 C           2.3170   -0.8420    0.0000 C.2     1  LIG1        0.2371
     14 N           2.8460    0.0040    0.0000 N.am    1  LIG1       -0.2788
     15 C           3.8170   -0.0250    0.0000 C.3     1  LIG1        0.0935
     16 C           4.2880   -0.9080    0.0000 C.3     1  LIG1        0.0233
     17 C           2.3750    0.8880    0.0000 C.3     1  LIG1        0.0935
     18 C           2.9460    1.7330    0.0000 C.3     1  LIG1        0.0233
     19 O           2.7540   -1.7290    0.0000 O.2     1  LIG1       -0.2739
@<TRIPOS>BOND
     1     1     2   ar
     2     1     5   ar
     3     2     3   ar
     4     2    11    1
     5     3     4   ar
     6     4     5   ar
     7     4     9   ar
     8     5     6   ar
     9     6     7   ar
    10     7     8   ar
    11     7    10    1
    12     8     9   ar
    13    11    12    1
    14    12    13    1
    15    13    14   am
    16    13    19    2
    17    14    15    1
    18    14    17    1
    19    15    16    1
    20    17    18    1
