@<TRIPOS>MOLECULE
25900_ChemDiv_C612-0737
 26 27 0 0 0
SMALL
GASTEIGER
Energy = 0

@<TRIPOS>ATOM
      1 C          -1.7250   -1.2540    0.0000 C.ar    1  LIG1        0.1551
      2 CA         -1.7250   -2.2540    0.0000 C.ar    1  LIG1        0.1174
      3 C          -0.8540   -2.7540    0.0000 C.2     1  LIG1        0.0921
      4 O           0.0080   -2.2540    0.0000 O.co2   1  LIG1       -0.5430
      5 OXT        -0.8540   -3.7540    0.0000 O.co2   1  LIG1       -0.5430
      6 N          -2.5960   -2.7540    0.0000 N.ar    1  LIG1       -0.2394
      7 C          -3.4580   -2.2540    0.0000 C.ar    1  LIG1        0.1195
      8 C          -3.4580   -1.2540    0.0000 C.ar    1  LIG1        0.1196
      9 N          -2.5960   -0.7540    0.0000 N.ar    1  LIG1       -0.2360
     10 C          -0.8580   -0.7540    0.0000 C.2     1  LIG1        0.2882
     11 N          -0.8710    0.2460    0.0000 N.am    1  LIG1       -0.1741
     12 C          -0.0080    0.7500    0.0000 C.ar    1  LIG1        0.0741
     13 C           0.8540    0.2500    0.0000 C.ar    1  LIG1        0.0230
     14 C           1.7210    0.7500    0.0000 C.ar    1  LIG1        0.0771
     15 C           2.5920    0.2500    0.0000 C.2     1  LIG1        0.3414
     16 O           2.5960   -0.7500    0.0000 O.2     1  LIG1       -0.2449
     17 O           3.4540    0.7580    0.0000 O.3     1  LIG1       -0.4413
     18 C           3.4540    1.7580    0.0000 C.3     1  LIG1        0.2560
     19 C           1.7210    1.7500    0.0000 C.ar    1  LIG1        0.0130
     20 C           0.8420    2.2500    0.0000 C.ar    1  LIG1        0.0771
     21 C           0.8420    3.2460    0.0000 C.2     1  LIG1        0.3414
     22 O           1.7040    3.7580    0.0000 O.2     1  LIG1       -0.2449
     23 O          -0.0290    3.7420    0.0000 O.3     1  LIG1       -0.4413
     24 C          -0.8920    3.2330    0.0000 C.3     1  LIG1        0.2560
     25 C          -0.0130    1.7420    0.0000 C.ar    1  LIG1        0.0230
     26 O           0.0080   -1.2500    0.0000 O.2     1  LIG1       -0.2663
@<TRIPOS>BOND
     1     1     2   ar
     2     1     9   ar
     3     1    10    1
     4     2     3    1
     5     2     6   ar
     6     3     4   ar
     7     3     5   ar
     8     6     7   ar
     9     7     8   ar
    10     8     9   ar
    11    10    11   am
    12    10    26    2
    13    11    12    1
    14    12    13   ar
    15    12    25   ar
    16    13    14   ar
    17    14    15    1
    18    14    19   ar
    19    15    16    2
    20    15    17    1
    21    17    18    1
    22    19    20   ar
    23    20    21    1
    24    20    25   ar
    25    21    22    2
    26    21    23    1
    27    23    24    1
