@<TRIPOS>MOLECULE
25901_ChemDiv_N013-0038
 17 19 0 0 0
SMALL
GASTEIGER
Energy = 0

@<TRIPOS>ATOM
      1 N           0.5750   -0.7920    0.0000 N.ar    1  LIG1       -0.2579
      2 C           1.1380   -1.5960    0.0000 C.ar    1  LIG1        0.4222
      3 O           0.5750   -2.4000    0.0000 O.2     1  LIG1       -0.4068
      4 C          -0.4000   -2.0960    0.0000 C.ar    1  LIG1        0.1660
      5 C          -0.4000   -1.0920    0.0000 C.ar    1  LIG1        0.1003
      6 C          -1.2750   -0.5790    0.0000 C.ar    1  LIG1        0.0205
      7 C          -2.1380   -1.0920    0.0000 C.ar    1  LIG1        0.0017
      8 C          -2.1380   -2.0960    0.0000 C.ar    1  LIG1        0.0032
      9 C          -1.2750   -2.6000    0.0000 C.ar    1  LIG1        0.0392
     10 O           2.1330   -1.5960    0.0000 O.2     1  LIG1       -0.2226
     11 C           0.9210    0.1420    0.0000 C.3     1  LIG1        0.1389
     12 C           0.2830    0.9080    0.0000 C.ar    1  LIG1        0.0006
     13 C           0.6040    1.8540    0.0000 C.ar    1  LIG1       -0.0024
     14 C          -0.0130    2.6040    0.0000 C.ar    1  LIG1       -0.0003
     15 C          -1.0250    2.4330    0.0000 C.ar    1  LIG1       -0.0000
     16 C          -1.3460    1.4920    0.0000 C.ar    1  LIG1       -0.0003
     17 C          -0.7000    0.7460    0.0000 C.ar    1  LIG1       -0.0024
@<TRIPOS>BOND
     1     1     2   ar
     2     1     5   ar
     3     1    11    1
     4     2     3   ar
     5     2    10    2
     6     3     4   ar
     7     4     5   ar
     8     4     9   ar
     9     5     6   ar
    10     6     7   ar
    11     7     8   ar
    12     8     9   ar
    13    11    12    1
    14    12    13   ar
    15    12    17   ar
    16    13    14   ar
    17    14    15   ar
    18    15    16   ar
    19    16    17   ar
