@<TRIPOS>MOLECULE
25911_ChemDiv_1606-0410
 33 37 0 0 0
SMALL
GASTEIGER
Energy = 0

@<TRIPOS>ATOM
      1 N          -3.1460   -0.4540    0.0000 N.am    1  LIG1       -0.2011
      2 C          -2.5920    0.2670    0.0000 C.2     1  LIG1        0.2589
      3 C          -1.6920    0.0290    0.0000 C.ar    1  LIG1        0.0588
      4 C          -1.6920   -1.0130    0.0000 C.ar    1  LIG1        0.0587
      5 C          -2.5920   -1.3500    0.0000 C.2     1  LIG1        0.2589
      6 O          -2.9420   -2.2670    0.0000 O.2     1  LIG1       -0.2691
      7 C          -0.7630   -1.5080    0.0000 C.ar    1  LIG1        0.0048
      8 C           0.1170   -1.0130    0.0000 C.ar    1  LIG1        0.0047
      9 C           0.1170    0.0290    0.0000 C.ar    1  LIG1        0.0555
     10 C           0.9290    0.5460    0.0000 C.2     1  LIG1        0.2690
     11 N           1.8080    0.0670    0.0000 N.am    1  LIG1       -0.1754
     12 C           2.6830    0.5460    0.0000 C.ar    1  LIG1        0.0737
     13 C           2.6830    1.5380    0.0000 C.ar    1  LIG1        0.0167
     14 C           3.5540    2.0460    0.0000 C.ar    1  LIG1        0.0042
     15 C           4.4500    1.5380    0.0000 C.ar    1  LIG1        0.0348
     16 C           5.2330    2.1040    0.0000 C.2     1  LIG1        0.1735
     17 O           5.2330    3.0960    0.0000 O.2     1  LIG1       -0.2913
     18 C           6.1250    1.6330    0.0000 C.3     1  LIG1        0.0773
     19 C           4.4500    0.4330    0.0000 C.ar    1  LIG1        0.0042
     20 C           3.5920    0.0080    0.0000 C.ar    1  LIG1        0.0167
     21 O           0.9290    1.5380    0.0000 O.2     1  LIG1       -0.2680
     22 C          -0.7630    0.5080    0.0000 C.ar    1  LIG1        0.0093
     23 O          -2.9540    1.2500    0.0000 O.2     1  LIG1       -0.2691
     24 C          -4.0920   -0.4540    0.0000 C.ar    1  LIG1        0.0612
     25 C          -4.6330   -1.3500    0.0000 C.ar    1  LIG1        0.0141
     26 C          -5.5920   -1.3500    0.0000 C.ar    1  LIG1        0.0012
     27 C          -6.0830   -0.4540    0.0000 C.ar    1  LIG1        0.0001
     28 C          -5.5630    0.3500    0.0000 C.ar    1  LIG1        0.0013
     29 C          -4.6330    0.3500    0.0000 C.ar    1  LIG1        0.0153
     30 C          -6.1250   -2.2130    0.0000 C.ar    1  LIG1        0.0000
     31 C          -5.6420   -3.0920    0.0000 C.ar    1  LIG1        0.0000
     32 C          -4.6330   -3.0790    0.0000 C.ar    1  LIG1        0.0000
     33 C          -4.1420   -2.1920    0.0000 C.ar    1  LIG1        0.0012
@<TRIPOS>BOND
     1     1     2   am
     2     1     5   am
     3     1    24    1
     4     2     3    1
     5     2    23    2
     6     3     4   ar
     7     3    22   ar
     8     4     5    1
     9     4     7   ar
    10     5     6    2
    11     7     8   ar
    12     8     9   ar
    13     9    10    1
    14     9    22   ar
    15    10    11   am
    16    10    21    2
    17    11    12    1
    18    12    13   ar
    19    12    20   ar
    20    13    14   ar
    21    14    15   ar
    22    15    16    1
    23    15    19   ar
    24    16    17    2
    25    16    18    1
    26    19    20   ar
    27    24    25   ar
    28    24    29   ar
    29    25    26   ar
    30    25    33   ar
    31    26    27   ar
    32    26    30   ar
    33    27    28   ar
    34    28    29   ar
    35    30    31   ar
    36    31    32   ar
    37    32    33   ar
