@<TRIPOS>MOLECULE
25928_ChemDiv_0891-0960
 31 35 0 0 0
SMALL
GASTEIGER
Energy = 0

@<TRIPOS>ATOM
      1 N          -1.0210    0.0540    0.0000 N.am    1  LIG1       -0.2208
      2 C          -1.6000    0.8710    0.0000 C.2     1  LIG1        0.2552
      3 C          -2.5500    0.5500    0.0000 C.ar    1  LIG1        0.0584
      4 C          -2.5500   -0.4670    0.0000 C.ar    1  LIG1        0.0584
      5 C          -1.6000   -0.7830    0.0000 C.2     1  LIG1        0.2552
      6 O          -1.2420   -1.7460    0.0000 O.2     1  LIG1       -0.2695
      7 C          -3.4210   -0.9920    0.0000 C.ar    1  LIG1        0.0047
      8 C          -4.3040   -0.4920    0.0000 C.ar    1  LIG1        0.0001
      9 C          -4.3040    0.5790    0.0000 C.ar    1  LIG1        0.0001
     10 C          -3.4210    1.0710    0.0000 C.ar    1  LIG1        0.0047
     11 O          -1.2420    1.8330    0.0000 O.2     1  LIG1       -0.2695
     12 C          -0.0080    0.0710    0.0000 C.3     1  LIG1        0.1257
     13 C           0.6880    0.7670    0.0000 C.3     1  LIG1        0.1180
     14 N           1.6460    0.5330    0.0000 N.am    1  LIG1       -0.2706
     15 C           1.9210   -0.4130    0.0000 C.2     1  LIG1        0.2837
     16 C           2.8790   -0.7040    0.0000 C.3     1  LIG1        0.2252
     17 N           3.1130   -1.6710    0.0000 N.4     1  LIG1        0.3884
     18 C           2.3960   -2.3790    0.0000 C.3     1  LIG1        0.1720
     19 C           2.6500   -3.3250    0.0000 C.3     1  LIG1        0.2048
     20 O           3.5920   -3.6080    0.0000 O.3     1  LIG1       -0.3411
     21 C           4.3000   -2.9040    0.0000 C.3     1  LIG1        0.2048
     22 C           4.0580   -1.9380    0.0000 C.3     1  LIG1        0.1720
     23 O           1.2790   -1.1790    0.0000 O.2     1  LIG1       -0.2684
     24 C           2.3210    1.2330    0.0000 C.3     1  LIG1        0.0986
     25 C           2.0670    2.1790    0.0000 C.3     1  LIG1        0.0476
     26 C           1.1040    2.4130    0.0000 C.ar    1  LIG1       -0.0228
     27 C           0.4330    1.7130    0.0000 C.ar    1  LIG1       -0.0065
     28 C          -0.5460    1.9290    0.0000 C.ar    1  LIG1       -0.0029
     29 C          -0.8080    2.8880    0.0000 C.ar    1  LIG1       -0.0003
     30 C          -0.1130    3.6130    0.0000 C.ar    1  LIG1       -0.0003
     31 C           0.8460    3.3630    0.0000 C.ar    1  LIG1       -0.0045
@<TRIPOS>BOND
     1     1     2   am
     2     1     5   am
     3     1    12    1
     4     2     3    1
     5     2    11    2
     6     3     4   ar
     7     3    10   ar
     8     4     5    1
     9     4     7   ar
    10     5     6    2
    11     7     8   ar
    12     8     9   ar
    13     9    10   ar
    14    12    13    1
    15    13    14    1
    16    13    27    1
    17    14    15   am
    18    14    24    1
    19    15    16    1
    20    15    23    2
    21    16    17    1
    22    17    18    1
    23    17    22    1
    24    18    19    1
    25    19    20    1
    26    20    21    1
    27    21    22    1
    28    24    25    1
    29    25    26    1
    30    26    27   ar
    31    26    31   ar
    32    27    28   ar
    33    28    29   ar
    34    29    30   ar
    35    30    31   ar
