@<TRIPOS>MOLECULE
25929_ChemDiv_8008-7036
 31 35 0 0 0
SMALL
GASTEIGER
Energy = 0

@<TRIPOS>ATOM
      1 N          -3.2080    0.1000    0.0000 N.am    1  LIG1       -0.2333
      2 C          -3.2080   -0.9130    0.0000 C.ar    1  LIG1        0.0642
      3 C          -4.0790   -1.4380    0.0000 C.ar    1  LIG1        0.0435
      4 S          -4.9420   -0.9130    0.0000 S.3     1  LIG1       -0.0844
      5 C          -4.9420    0.1000    0.0000 C.ar    1  LIG1        0.0435
      6 C          -4.0790    0.5880    0.0000 C.ar    1  LIG1        0.0642
      7 C          -4.0790    1.5880    0.0000 C.ar    1  LIG1        0.0157
      8 C          -4.9420    2.0710    0.0000 C.ar    1  LIG1        0.0013
      9 C          -5.8130    1.5880    0.0000 C.ar    1  LIG1        0.0006
     10 C          -5.8130    0.5880    0.0000 C.ar    1  LIG1        0.0077
     11 C          -4.0790   -2.4500    0.0000 C.ar    1  LIG1        0.0077
     12 C          -3.2080   -2.9330    0.0000 C.ar    1  LIG1        0.0006
     13 C          -2.3420   -2.4500    0.0000 C.ar    1  LIG1        0.0013
     14 C          -2.3420   -1.4380    0.0000 C.ar    1  LIG1        0.0157
     15 C          -2.3420    0.5880    0.0000 C.2     1  LIG1        0.2778
     16 C          -1.4830    0.1000    0.0000 C.3     1  LIG1        0.2933
     17 O          -0.6130    0.5880    0.0000 O.3     1  LIG1       -0.4377
     18 C           0.2500    0.1000    0.0000 C.2     1  LIG1        0.3291
     19 O           0.2500   -0.9130    0.0000 O.2     1  LIG1       -0.2491
     20 C           1.1540    0.5880    0.0000 C.3     1  LIG1        0.1758
     21 S           2.0170    0.1000    0.0000 S.3     1  LIG1       -0.0449
     22 C           2.8880    0.5880    0.0000 C.ar    1  LIG1        0.2592
     23 N           2.8880    1.5880    0.0000 N.ar    1  LIG1       -0.2027
     24 C           3.8170    1.9210    0.0000 C.ar    1  LIG1        0.1194
     25 C           4.3960    1.1040    0.0000 C.ar    1  LIG1        0.1652
     26 O           3.8170    0.2920    0.0000 O.2     1  LIG1       -0.4300
     27 C           5.3920    1.2500    0.0000 C.ar    1  LIG1        0.0391
     28 C           5.8080    2.1670    0.0000 C.ar    1  LIG1        0.0032
     29 C           5.2290    2.9380    0.0000 C.ar    1  LIG1        0.0018
     30 C           4.2330    2.8420    0.0000 C.ar    1  LIG1        0.0223
     31 O          -2.3420    1.5880    0.0000 O.2     1  LIG1       -0.2701
@<TRIPOS>BOND
     1     1     2    1
     2     1     6    1
     3     1    15   am
     4     2     3   ar
     5     2    14   ar
     6     3     4    1
     7     3    11   ar
     8     4     5    1
     9     5     6   ar
    10     5    10   ar
    11     6     7   ar
    12     7     8   ar
    13     8     9   ar
    14     9    10   ar
    15    11    12   ar
    16    12    13   ar
    17    13    14   ar
    18    15    16    1
    19    15    31    2
    20    16    17    1
    21    17    18    1
    22    18    19    2
    23    18    20    1
    24    20    21    1
    25    21    22    1
    26    22    23   ar
    27    22    26   ar
    28    23    24   ar
    29    24    25   ar
    30    24    30   ar
    31    25    26   ar
    32    25    27   ar
    33    27    28   ar
    34    28    29   ar
    35    29    30   ar
