@<TRIPOS>MOLECULE
25925_ChemDiv_7422-0104
 27 30 0 0 0
SMALL
GASTEIGER
Energy = 0

@<TRIPOS>ATOM
      1 S           2.3080    2.0330    0.0000 S.O2    1  LIG1        0.0648
      2 N           1.6420    1.2830    0.0000 N.3     1  LIG1       -0.1337
      3 C           1.8420    0.3000    0.0000 C.3     1  LIG1        0.1918
      4 N           0.9790   -0.1920    0.0000 N.am    1  LIG1       -0.2619
      5 C           0.7710   -1.1670    0.0000 C.2     1  LIG1        0.2382
      6 C          -0.1880   -1.4750    0.0000 C.3     1  LIG1        0.1516
      7 S          -0.4000   -2.4540    0.0000 S.3     1  LIG1       -0.0470
      8 C          -1.3630   -2.7630    0.0000 C.ar    1  LIG1        0.2591
      9 N          -2.1540   -2.1710    0.0000 N.ar    1  LIG1       -0.2027
     10 C          -2.9830   -2.7630    0.0000 C.ar    1  LIG1        0.1194
     11 C          -2.6710   -3.7130    0.0000 C.ar    1  LIG1        0.1652
     12 O          -1.6710   -3.7130    0.0000 O.2     1  LIG1       -0.4300
     13 C          -3.3460   -4.4540    0.0000 C.ar    1  LIG1        0.0391
     14 C          -4.3130   -4.2420    0.0000 C.ar    1  LIG1        0.0032
     15 C          -4.6290   -3.2920    0.0000 C.ar    1  LIG1        0.0018
     16 C          -3.9540   -2.5500    0.0000 C.ar    1  LIG1        0.0223
     17 O           1.5130   -1.8380    0.0000 O.2     1  LIG1       -0.2739
     18 C           0.2330    0.4750    0.0000 C.3     1  LIG1        0.1139
     19 C           0.6500    1.3880    0.0000 C.3     1  LIG1        0.1192
     20 O           3.0540    1.3580    0.0000 O.2     1  LIG1       -0.1527
     21 O           1.5670    2.7000    0.0000 O.2     1  LIG1       -0.1527
     22 C           2.9790    2.7750    0.0000 C.ar    1  LIG1        0.1223
     23 C           3.9540    2.5630    0.0000 C.ar    1  LIG1        0.0199
     24 C           4.6250    3.3040    0.0000 C.ar    1  LIG1        0.0014
     25 C           4.3080    4.2420    0.0000 C.ar    1  LIG1        0.0001
     26 C           3.3420    4.4540    0.0000 C.ar    1  LIG1        0.0014
     27 C           2.6710    3.7290    0.0000 C.ar    1  LIG1        0.0199
@<TRIPOS>BOND
     1     1     2    1
     2     1    20    2
     3     1    21    2
     4     1    22    1
     5     2     3    1
     6     2    19    1
     7     3     4    1
     8     4     5   am
     9     4    18    1
    10     5     6    1
    11     5    17    2
    12     6     7    1
    13     7     8    1
    14     8     9   ar
    15     8    12   ar
    16     9    10   ar
    17    10    11   ar
    18    10    16   ar
    19    11    12   ar
    20    11    13   ar
    21    13    14   ar
    22    14    15   ar
    23    15    16   ar
    24    18    19    1
    25    22    23   ar
    26    22    27   ar
    27    23    24   ar
    28    24    25   ar
    29    25    26   ar
    30    26    27   ar
