@<TRIPOS>MOLECULE
25926_ChemDiv_R052-0693
 19 21 0 0 0
SMALL
GASTEIGER
Energy = 0

@<TRIPOS>ATOM
      1 C           0.4250   -0.2500    0.0000 C.ar    1  LIG1        0.0445
      2 C           0.4290    0.7540    0.0000 C.3     1  LIG1        0.1695
      3 C          -0.4330    1.2540    0.0000 C.3     1  LIG1        0.0896
      4 C          -0.4330    2.2500    0.0000 C.3     1  LIG1        0.1384
      5 C           0.4380    2.7540    0.0000 C.3     1  LIG1        0.0994
      6 C           1.3040    2.2500    0.0000 C.3     1  LIG1        0.2034
      7 N           1.3040    1.2420    0.0000 N.4     1  LIG1        0.4469
      8 O          -0.4330    3.2500    0.0000 O.3     1  LIG1       -0.2252
      9 C          -1.2920    2.7630    0.0000 C.3     1  LIG1        0.0309
     10 C          -2.1540    2.2500    0.0000 C.3     1  LIG1        0.0025
     11 C          -2.1540    1.2540    0.0000 C.3     1  LIG1        0.0004
     12 C          -1.2920    0.7540    0.0000 C.3     1  LIG1        0.0088
     13 C           1.2880   -0.7540    0.0000 C.ar    1  LIG1        0.0600
     14 C           1.2750   -1.7540    0.0000 C.ar    1  LIG1        0.0227
     15 C           0.4130   -2.2500    0.0000 C.ar    1  LIG1        0.0585
     16 C          -0.4540   -1.7460    0.0000 C.ar    1  LIG1        0.0113
     17 C          -0.4460   -0.7420    0.0000 C.ar    1  LIG1        0.0031
     18 CL          0.4080   -3.2460    0.0000 Cl      1  LIG1       -0.0822
     19 CL          2.1500   -0.2500    0.0000 Cl      1  LIG1       -0.0823
@<TRIPOS>BOND
     1     1     2    1
     2     1    13   ar
     3     1    17   ar
     4     2     3    1
     5     2     7    1
     6     3     4    1
     7     3    12    1
     8     4     5    1
     9     4     8    1
    10     4     9    1
    11     5     6    1
    12     6     7    1
    13     9    10    1
    14    10    11    1
    15    11    12    1
    16    13    14   ar
    17    13    19    1
    18    14    15   ar
    19    15    16   ar
    20    15    18    1
    21    16    17   ar
