@<TRIPOS>MOLECULE
25922_ChemDiv_0882-0028
 22 25 0 0 0
SMALL
GASTEIGER
Energy = 0

@<TRIPOS>ATOM
      1 N           0.6130   -0.0920    0.0000 N.4     1  LIG1        0.4461
      2 C           0.1040   -0.5580    0.0000 C.3     1  LIG1        0.1735
      3 C          -1.1170   -0.3630    0.0000 C.3     1  LIG1        0.1189
      4 C          -1.3290    1.3130    0.0000 C.2     1  LIG1        0.1621
      5 C          -1.6830    0.5290    0.0000 C.3     1  LIG1        0.1189
      6 C          -0.3540    0.4250    0.0000 C.3     1  LIG1        0.1735
      7 C           0.2830    1.1750    0.0000 C.ar    1  LIG1        0.0343
      8 C           1.2750    1.0130    0.0000 C.ar    1  LIG1        0.0014
      9 C           1.9000    1.7790    0.0000 C.ar    1  LIG1       -0.0001
     10 C           1.5670    2.7170    0.0000 C.ar    1  LIG1       -0.0000
     11 C           0.5710    2.8960    0.0000 C.ar    1  LIG1       -0.0001
     12 C          -0.0540    2.1130    0.0000 C.ar    1  LIG1        0.0014
     13 C          -2.5380    0.0580    0.0000 C.3     1  LIG1        0.0137
     14 C          -2.5130   -0.9380    0.0000 C.3     1  LIG1        0.0013
     15 C          -1.9710   -0.5830    0.0000 C.3     1  LIG1        0.0137
     16 O          -1.3290    1.9170    0.0000 O.2     1  LIG1       -0.2956
     17 C           0.8290   -1.2380    0.0000 C.ar    1  LIG1        0.0343
     18 C           1.7790   -0.9380    0.0000 C.ar    1  LIG1        0.0014
     19 C           2.5330   -1.6000    0.0000 C.ar    1  LIG1       -0.0001
     20 C           2.3170   -2.5920    0.0000 C.ar    1  LIG1       -0.0000
     21 C           1.3540   -2.8920    0.0000 C.ar    1  LIG1       -0.0001
     22 C           0.6250   -2.2290    0.0000 C.ar    1  LIG1        0.0014
@<TRIPOS>BOND
     1     1     2    1
     2     1     6    1
     3     2     3    1
     4     2    17    1
     5     3     4    1
     6     3    15    1
     7     4     5    1
     8     4    16    2
     9     5     6    1
    10     5    13    1
    11     6     7    1
    12     7     8   ar
    13     7    12   ar
    14     8     9   ar
    15     9    10   ar
    16    10    11   ar
    17    11    12   ar
    18    13    14    1
    19    14    15    1
    20    17    18   ar
    21    17    22   ar
    22    18    19   ar
    23    19    20   ar
    24    20    21   ar
    25    21    22   ar
