@<TRIPOS>MOLECULE
25932_ChemDiv_0896-3187
 16 18 0 0 0
SMALL
GASTEIGER
Energy = 0

@<TRIPOS>ATOM
      1 N           0.3750   -0.0380    0.0000 N.am    1  LIG1       -0.2244
      2 C          -0.3130   -0.7460    0.0000 C.2     1  LIG1        0.2320
      3 C          -1.1790   -0.3210    0.0000 C.3     1  LIG1        0.0900
      4 C          -1.0750    0.6290    0.0000 C.3     1  LIG1        0.0900
      5 C          -0.1000    0.8210    0.0000 C.2     1  LIG1        0.2320
      6 O           0.3330    1.7000    0.0000 O.2     1  LIG1       -0.2744
      7 C          -1.8670    1.2420    0.0000 C.3     1  LIG1        0.0311
      8 C          -2.7750    0.8250    0.0000 C.2     1  LIG1       -0.0305
      9 C          -2.8790   -0.0960    0.0000 C.2     1  LIG1       -0.0305
     10 C          -2.0960   -0.6830    0.0000 C.3     1  LIG1        0.0311
     11 C          -1.3040    0.2080    0.0000 C.3     1  LIG1        0.0096
     12 O          -0.1380   -1.6960    0.0000 O.2     1  LIG1       -0.2744
     13 C           1.3500   -0.1670    0.0000 C.3     1  LIG1        0.1424
     14 C           1.9380    0.6170    0.0000 C.2     1  LIG1        0.0709
     15 O           1.5750    1.5460    0.0000 O.co2   1  LIG1       -0.5474
     16 O           2.8750    0.4380    0.0000 O.co2   1  LIG1       -0.5474
@<TRIPOS>BOND
     1     1     2   am
     2     1     5   am
     3     1    13    1
     4     2     3    1
     5     2    12    2
     6     3     4    1
     7     3    10    1
     8     4     5    1
     9     4     7    1
    10     5     6    2
    11     7     8    1
    12     7    11    1
    13     8     9    2
    14     9    10    1
    15    10    11    1
    16    13    14    1
    17    14    15   ar
    18    14    16   ar
