@<TRIPOS>MOLECULE
25935_ChemDiv_8012-7344
 27 29 0 0 0
SMALL
GASTEIGER
Energy = 0

@<TRIPOS>ATOM
      1 C           0.1330   -1.2830    0.0000 C.ar    1  LIG1        0.2591
      2 N          -0.4460   -0.4540    0.0000 N.ar    1  LIG1       -0.2027
      3 C          -1.4040   -0.7580    0.0000 C.ar    1  LIG1        0.1194
      4 C          -1.4040   -1.7920    0.0000 C.ar    1  LIG1        0.1652
      5 O          -0.4460   -2.0830    0.0000 O.2     1  LIG1       -0.4300
      6 C          -2.2630   -2.2750    0.0000 C.ar    1  LIG1        0.0391
      7 C          -3.1290   -1.7500    0.0000 C.ar    1  LIG1        0.0032
      8 C          -3.1290   -0.7880    0.0000 C.ar    1  LIG1        0.0018
      9 C          -2.2630   -0.2750    0.0000 C.ar    1  LIG1        0.0223
     10 S           1.1330   -1.2830    0.0000 S.3     1  LIG1       -0.0469
     11 C           1.6210   -2.1380    0.0000 C.3     1  LIG1        0.1535
     12 C           2.6330   -2.1380    0.0000 C.2     1  LIG1        0.2571
     13 N           3.1250   -1.2830    0.0000 N.am    1  LIG1       -0.1785
     14 C           2.6130   -0.4250    0.0000 C.ar    1  LIG1        0.0734
     15 C           3.1130    0.4460    0.0000 C.ar    1  LIG1        0.0168
     16 C           2.6130    1.3000    0.0000 C.ar    1  LIG1        0.0078
     17 C           1.6210    1.3000    0.0000 C.ar    1  LIG1        0.0757
     18 C           1.1330    2.1790    0.0000 C.2     1  LIG1        0.3412
     19 O           1.6420    3.0330    0.0000 O.2     1  LIG1       -0.2449
     20 O           0.1330    2.2080    0.0000 O.3     1  LIG1       -0.4454
     21 C          -0.3920    1.3540    0.0000 C.3     1  LIG1        0.2088
     22 C          -1.3830    1.3540    0.0000 C.3     1  LIG1        0.0475
     23 C          -1.8960    0.5000    0.0000 C.3     1  LIG1        0.0038
     24 C          -2.9080    0.5290    0.0000 C.3     1  LIG1        0.0001
     25 C           1.1040    0.4170    0.0000 C.ar    1  LIG1        0.0078
     26 C           1.6000   -0.4250    0.0000 C.ar    1  LIG1        0.0168
     27 O           3.1250   -3.0290    0.0000 O.2     1  LIG1       -0.2720
@<TRIPOS>BOND
     1     1     2   ar
     2     1     5   ar
     3     1    10    1
     4     2     3   ar
     5     3     4   ar
     6     3     9   ar
     7     4     5   ar
     8     4     6   ar
     9     6     7   ar
    10     7     8   ar
    11     8     9   ar
    12    10    11    1
    13    11    12    1
    14    12    13   am
    15    12    27    2
    16    13    14    1
    17    14    15   ar
    18    14    26   ar
    19    15    16   ar
    20    16    17   ar
    21    17    18    1
    22    17    25   ar
    23    18    19    2
    24    18    20    1
    25    20    21    1
    26    21    22    1
    27    22    23    1
    28    23    24    1
    29    25    26   ar
