@<TRIPOS>MOLECULE
25939_ChemDiv_2922-0497
 31 34 0 0 0
SMALL
GASTEIGER
Energy = 0

@<TRIPOS>ATOM
      1 N           3.0080    0.0460    0.0000 N.am    1  LIG1       -0.2011
      2 C           2.3210    0.7250    0.0000 C.2     1  LIG1        0.2589
      3 C           1.4170    0.3040    0.0000 C.ar    1  LIG1        0.0588
      4 C           1.5710   -0.7210    0.0000 C.ar    1  LIG1        0.0587
      5 C           2.5670   -0.8580    0.0000 C.2     1  LIG1        0.2589
      6 O           3.0080   -1.7630    0.0000 O.2     1  LIG1       -0.2691
      7 C           0.7960   -1.3380    0.0000 C.ar    1  LIG1        0.0048
      8 C          -0.1130   -0.9330    0.0000 C.ar    1  LIG1        0.0047
      9 C          -0.3210    0.0460    0.0000 C.ar    1  LIG1        0.0555
     10 C          -1.3170    0.4580    0.0000 C.2     1  LIG1        0.2690
     11 N          -2.0920   -0.1630    0.0000 N.am    1  LIG1       -0.1754
     12 C          -3.0040    0.1750    0.0000 C.ar    1  LIG1        0.0737
     13 C          -3.1750    1.1380    0.0000 C.ar    1  LIG1        0.0166
     14 C          -4.1130    1.5420    0.0000 C.ar    1  LIG1        0.0025
     15 C          -4.9040    0.9210    0.0000 C.ar    1  LIG1        0.0141
     16 C          -5.8580    1.3330    0.0000 C.2     1  LIG1        0.0729
     17 O          -6.6250    0.7170    0.0000 O.co2   1  LIG1       -0.5446
     18 O          -5.9710    2.2710    0.0000 O.co2   1  LIG1       -0.5446
     19 C          -4.6960   -0.1000    0.0000 C.ar    1  LIG1        0.0025
     20 C          -3.7960   -0.4460    0.0000 C.ar    1  LIG1        0.0166
     21 O          -1.4290    1.4130    0.0000 O.2     1  LIG1       -0.2680
     22 C           0.4630    0.6630    0.0000 C.ar    1  LIG1        0.0093
     23 O           2.4920    1.7540    0.0000 O.2     1  LIG1       -0.2691
     24 C           3.9460   -0.2040    0.0000 C.ar    1  LIG1        0.0609
     25 C           4.9000    0.0960    0.0000 C.ar    1  LIG1        0.0108
     26 C           5.5960   -0.6170    0.0000 C.ar    1  LIG1       -0.0245
     27 C           5.3790   -1.5540    0.0000 C.ar    1  LIG1       -0.0257
     28 C           4.4080   -1.8540    0.0000 C.ar    1  LIG1       -0.0033
     29 C           3.7290   -1.1420    0.0000 C.ar    1  LIG1        0.0150
     30 C           6.0580   -2.2670    0.0000 C.3     1  LIG1        0.0307
     31 C           6.6250   -0.3670    0.0000 C.3     1  LIG1        0.0307
@<TRIPOS>BOND
     1     1     2   am
     2     1     5   am
     3     1    24    1
     4     2     3    1
     5     2    23    2
     6     3     4   ar
     7     3    22   ar
     8     4     5    1
     9     4     7   ar
    10     5     6    2
    11     7     8   ar
    12     8     9   ar
    13     9    10    1
    14     9    22   ar
    15    10    11   am
    16    10    21    2
    17    11    12    1
    18    12    13   ar
    19    12    20   ar
    20    13    14   ar
    21    14    15   ar
    22    15    16    1
    23    15    19   ar
    24    16    17   ar
    25    16    18   ar
    26    19    20   ar
    27    24    25   ar
    28    24    29   ar
    29    25    26   ar
    30    26    27   ar
    31    26    31    1
    32    27    28   ar
    33    27    30    1
    34    28    29   ar
