@<TRIPOS>MOLECULE
25933_ChemDiv_8012-7292
 19 21 0 0 0
SMALL
GASTEIGER
Energy = 0

@<TRIPOS>ATOM
      1 C          -0.7460    0.7830    0.0000 C.ar    1  LIG1        0.2602
      2 N          -1.3170   -0.0330    0.0000 N.ar    1  LIG1       -0.2026
      3 C          -2.2710    0.2790    0.0000 C.ar    1  LIG1        0.1194
      4 C          -2.2710    1.2920    0.0000 C.ar    1  LIG1        0.1652
      5 O          -1.3170    1.6000    0.0000 O.2     1  LIG1       -0.4300
      6 C          -3.1250    1.7790    0.0000 C.ar    1  LIG1        0.0391
      7 C          -3.9880    1.2920    0.0000 C.ar    1  LIG1        0.0032
      8 C          -3.9880    0.2790    0.0000 C.ar    1  LIG1        0.0018
      9 C          -3.1250   -0.2080    0.0000 C.ar    1  LIG1        0.0223
     10 S           0.2460    0.7830    0.0000 S.3     1  LIG1       -0.0347
     11 C           0.7580   -0.0540    0.0000 C.3     1  LIG1        0.1611
     12 N           1.7750   -0.0540    0.0000 N.am    1  LIG1       -0.2694
     13 C           2.2580   -0.9330    0.0000 C.2     1  LIG1        0.2263
     14 O           1.6790   -1.7750    0.0000 O.2     1  LIG1       -0.2748
     15 C           3.2500   -1.0920    0.0000 C.3     1  LIG1        0.0853
     16 C           3.9830   -0.3880    0.0000 C.3     1  LIG1        0.0096
     17 C           3.9130    0.6040    0.0000 C.3     1  LIG1        0.0023
     18 C           3.0750    1.1790    0.0000 C.3     1  LIG1        0.0215
     19 C           2.1250    0.8710    0.0000 C.3     1  LIG1        0.0942
@<TRIPOS>BOND
     1     1     2   ar
     2     1     5   ar
     3     1    10    1
     4     2     3   ar
     5     3     4   ar
     6     3     9   ar
     7     4     5   ar
     8     4     6   ar
     9     6     7   ar
    10     7     8   ar
    11     8     9   ar
    12    10    11    1
    13    11    12    1
    14    12    13   am
    15    12    19    1
    16    13    14    2
    17    13    15    1
    18    15    16    1
    19    16    17    1
    20    17    18    1
    21    18    19    1
