@<TRIPOS>MOLECULE
25942_ChemDiv_0790-0890
 19 21 0 0 0
SMALL
GASTEIGER
Energy = 0

@<TRIPOS>ATOM
      1 C          -1.5000    0.7710    0.0000 C.ar    1  LIG1        0.1151
      2 N          -1.2040   -0.2000    0.0000 N.ar    1  LIG1       -0.2408
      3 C          -1.9210   -0.9170    0.0000 C.ar    1  LIG1        0.0989
      4 C          -2.8670   -0.6790    0.0000 C.ar    1  LIG1        0.0207
      5 C          -3.1630    0.2710    0.0000 C.ar    1  LIG1        0.0032
      6 C          -2.4460    1.0130    0.0000 C.ar    1  LIG1        0.0207
      7 C          -2.7420    1.9880    0.0000 C.ar    1  LIG1        0.0017
      8 C          -2.0290    2.7000    0.0000 C.ar    1  LIG1        0.0032
      9 C          -1.0880    2.4330    0.0000 C.ar    1  LIG1        0.0385
     10 C          -0.7880    1.4880    0.0000 C.ar    1  LIG1        0.1563
     11 O           0.2250    1.2830    0.0000 O.3     1  LIG1       -0.4675
     12 C           0.5460    0.3250    0.0000 C.3     1  LIG1        0.2676
     13 C           1.5250    0.1210    0.0000 C.3     1  LIG1        0.1867
     14 N           1.8540   -0.7920    0.0000 N.4     1  LIG1        0.3802
     15 C           1.1920   -1.5710    0.0000 C.3     1  LIG1        0.1387
     16 C           1.5250   -2.4920    0.0000 C.3     1  LIG1        0.0629
     17 C           2.5040   -2.6960    0.0000 C.3     1  LIG1        0.0123
     18 C           3.1580   -1.9210    0.0000 C.3     1  LIG1        0.0629
     19 C           2.8250   -1.0080    0.0000 C.3     1  LIG1        0.1387
@<TRIPOS>BOND
     1     1     2   ar
     2     1     6   ar
     3     1    10   ar
     4     2     3   ar
     5     3     4   ar
     6     4     5   ar
     7     5     6   ar
     8     6     7   ar
     9     7     8   ar
    10     8     9   ar
    11     9    10   ar
    12    10    11    1
    13    11    12    1
    14    12    13    1
    15    13    14    1
    16    14    15    1
    17    14    19    1
    18    15    16    1
    19    16    17    1
    20    17    18    1
    21    18    19    1
