@<TRIPOS>MOLECULE
25943_ChemDiv_2922-2951
 32 35 0 0 0
SMALL
GASTEIGER
Energy = 0

@<TRIPOS>ATOM
      1 N          -1.7880   -1.7790    0.0000 N.am    1  LIG1       -0.2017
      2 C          -1.6920   -0.8000    0.0000 C.2     1  LIG1        0.2589
      3 C          -0.7130   -0.5750    0.0000 C.ar    1  LIG1        0.0588
      4 C          -0.2170   -1.4290    0.0000 C.ar    1  LIG1        0.0587
      5 C          -0.8830   -2.1540    0.0000 C.2     1  LIG1        0.2589
      6 O          -0.6580   -3.1420    0.0000 O.2     1  LIG1       -0.2691
      7 C           0.7920   -1.4080    0.0000 C.ar    1  LIG1        0.0048
      8 C           1.2880   -0.5420    0.0000 C.ar    1  LIG1        0.0047
      9 C           0.7920    0.3040    0.0000 C.ar    1  LIG1        0.0555
     10 C           1.3170    1.1540    0.0000 C.2     1  LIG1        0.2690
     11 N           2.3040    1.1540    0.0000 N.am    1  LIG1       -0.1754
     12 C           2.7920    2.0170    0.0000 C.ar    1  LIG1        0.0747
     13 C           3.8000    2.0040    0.0000 C.ar    1  LIG1        0.0293
     14 C           4.2580    1.1290    0.0000 C.2     1  LIG1        0.0741
     15 O           5.2540    1.0750    0.0000 O.co2   1  LIG1       -0.5446
     16 O           3.7710    0.2710    0.0000 O.co2   1  LIG1       -0.5446
     17 C           4.3290    2.8790    0.0000 C.ar    1  LIG1        0.0024
     18 C           3.8250    3.7630    0.0000 C.ar    1  LIG1        0.0001
     19 C           2.8210    3.7830    0.0000 C.ar    1  LIG1        0.0013
     20 C           2.3040    2.9040    0.0000 C.ar    1  LIG1        0.0166
     21 O           0.8710    2.0580    0.0000 O.2     1  LIG1       -0.2680
     22 C          -0.2380    0.3040    0.0000 C.ar    1  LIG1        0.0093
     23 O          -2.4630   -0.1250    0.0000 O.2     1  LIG1       -0.2691
     24 C          -2.6250   -2.3040    0.0000 C.ar    1  LIG1        0.0533
     25 C          -2.6250   -3.3080    0.0000 C.ar    1  LIG1       -0.0083
     26 C          -3.5170   -3.7580    0.0000 C.ar    1  LIG1       -0.0073
     27 C          -4.3750   -3.3080    0.0000 C.ar    1  LIG1       -0.0224
     28 C          -4.3750   -2.3040    0.0000 C.ar    1  LIG1       -0.0073
     29 C          -3.5170   -1.8040    0.0000 C.ar    1  LIG1       -0.0083
     30 C          -3.5170   -0.8000    0.0000 C.3     1  LIG1        0.0323
     31 C          -5.2580   -3.7790    0.0000 C.3     1  LIG1        0.0310
     32 C          -1.7670   -3.7790    0.0000 C.3     1  LIG1        0.0323
@<TRIPOS>BOND
     1     1     2   am
     2     1     5   am
     3     1    24    1
     4     2     3    1
     5     2    23    2
     6     3     4   ar
     7     3    22   ar
     8     4     5    1
     9     4     7   ar
    10     5     6    2
    11     7     8   ar
    12     8     9   ar
    13     9    10    1
    14     9    22   ar
    15    10    11   am
    16    10    21    2
    17    11    12    1
    18    12    13   ar
    19    12    20   ar
    20    13    14    1
    21    13    17   ar
    22    14    15   ar
    23    14    16   ar
    24    17    18   ar
    25    18    19   ar
    26    19    20   ar
    27    24    25   ar
    28    24    29   ar
    29    25    26   ar
    30    25    32    1
    31    26    27   ar
    32    27    28   ar
    33    27    31    1
    34    28    29   ar
    35    29    30    1
