@<TRIPOS>MOLECULE
25948_ChemDiv_8015-0985
 34 37 0 0 0
SMALL
GASTEIGER
Energy = 0

@<TRIPOS>ATOM
      1 S           3.9880    1.2380    0.0000 S.O2    1  LIG1        0.0633
      2 N           4.9920    1.2380    0.0000 N.3     1  LIG1       -0.1555
      3 C           5.5670    0.4290    0.0000 C.3     1  LIG1        0.0958
      4 C           6.5250    0.7380    0.0000 C.3     1  LIG1        0.0206
      5 C           6.5250    1.7290    0.0000 C.3     1  LIG1        0.0206
      6 C           5.5670    2.0420    0.0000 C.3     1  LIG1        0.0958
      7 C           2.9880    1.2380    0.0000 C.ar    1  LIG1        0.1222
      8 C           2.4790    0.3750    0.0000 C.ar    1  LIG1        0.0201
      9 C           1.4790    0.3750    0.0000 C.ar    1  LIG1        0.0059
     10 C           0.9880    1.2380    0.0000 C.ar    1  LIG1        0.0555
     11 C          -0.0130    1.2380    0.0000 C.2     1  LIG1        0.2690
     12 N          -0.5170    0.3750    0.0000 N.am    1  LIG1       -0.1753
     13 C          -1.5170    0.3750    0.0000 C.ar    1  LIG1        0.0781
     14 C          -2.0170   -0.5000    0.0000 C.ar    1  LIG1        0.0703
     15 C          -1.5170   -1.3670    0.0000 C.2     1  LIG1        0.2661
     16 O          -0.5170   -1.3670    0.0000 O.2     1  LIG1       -0.2683
     17 N          -2.0170   -2.2330    0.0000 N.am    1  LIG1       -0.2013
     18 C          -3.0170   -2.2330    0.0000 C.3     1  LIG1        0.1201
     19 C          -3.5210   -1.3670    0.0000 C.3     1  LIG1        0.0498
     20 C          -4.5210   -1.3670    0.0000 C.ar    1  LIG1       -0.0204
     21 C          -5.0250   -0.5000    0.0000 C.ar    1  LIG1       -0.0042
     22 C          -6.0210   -0.5000    0.0000 C.ar    1  LIG1       -0.0003
     23 C          -6.5250   -1.3670    0.0000 C.ar    1  LIG1       -0.0000
     24 C          -6.0210   -2.2330    0.0000 C.ar    1  LIG1       -0.0003
     25 C          -5.0250   -2.2330    0.0000 C.ar    1  LIG1       -0.0042
     26 C          -3.0170   -0.5000    0.0000 C.ar    1  LIG1        0.0059
     27 C          -3.5210    0.3750    0.0000 C.ar    1  LIG1        0.0002
     28 C          -3.0170    1.2380    0.0000 C.ar    1  LIG1        0.0013
     29 C          -2.0170    1.2380    0.0000 C.ar    1  LIG1        0.0168
     30 O          -0.5170    2.1000    0.0000 O.2     1  LIG1       -0.2680
     31 C           1.4790    2.1000    0.0000 C.ar    1  LIG1        0.0059
     32 C           2.4790    2.1000    0.0000 C.ar    1  LIG1        0.0201
     33 O           3.9880    0.2380    0.0000 O.2     1  LIG1       -0.1528
     34 O           3.9880    2.2380    0.0000 O.2     1  LIG1       -0.1528
@<TRIPOS>BOND
     1     1     2    1
     2     1     7    1
     3     1    33    2
     4     1    34    2
     5     2     3    1
     6     2     6    1
     7     3     4    1
     8     4     5    1
     9     5     6    1
    10     7     8   ar
    11     7    32   ar
    12     8     9   ar
    13     9    10   ar
    14    10    11    1
    15    10    31   ar
    16    11    12   am
    17    11    30    2
    18    12    13    1
    19    13    14   ar
    20    13    29   ar
    21    14    15    1
    22    14    26   ar
    23    15    16    2
    24    15    17   am
    25    17    18    1
    26    18    19    1
    27    19    20    1
    28    20    21   ar
    29    20    25   ar
    30    21    22   ar
    31    22    23   ar
    32    23    24   ar
    33    24    25   ar
    34    26    27   ar
    35    27    28   ar
    36    28    29   ar
    37    31    32   ar
