@<TRIPOS>MOLECULE
25955_ChemDiv_8014-7367
 26 28 0 0 0
SMALL
GASTEIGER
Energy = 0

@<TRIPOS>ATOM
      1 C          -2.7580    1.1130    0.0000 C.ar    1  LIG1        0.2591
      2 N          -2.7580    2.0250    0.0000 N.ar    1  LIG1       -0.2027
      3 C          -4.3750    2.0250    0.0000 C.ar    1  LIG1        0.1194
      4 C          -4.3750    1.1130    0.0000 C.ar    1  LIG1        0.1652
      5 O          -3.5630    0.6460    0.0000 O.2     1  LIG1       -0.4300
      6 C          -5.1710    0.6460    0.0000 C.ar    1  LIG1        0.0391
      7 C          -5.9790    1.1130    0.0000 C.ar    1  LIG1        0.0032
      8 C          -5.9790    2.0250    0.0000 C.ar    1  LIG1        0.0018
      9 C          -5.1710    2.4790    0.0000 C.ar    1  LIG1        0.0223
     10 S          -1.9040    0.6250    0.0000 S.3     1  LIG1       -0.0469
     11 C          -1.0250    1.0880    0.0000 C.3     1  LIG1        0.1535
     12 C          -0.1670    0.6000    0.0000 C.2     1  LIG1        0.2571
     13 N           0.6960    1.0540    0.0000 N.am    1  LIG1       -0.1785
     14 C           1.6330    0.5210    0.0000 C.ar    1  LIG1        0.0732
     15 C           2.4920    1.0080    0.0000 C.ar    1  LIG1        0.0136
     16 C           3.3710    0.5210    0.0000 C.ar    1  LIG1       -0.0072
     17 C           3.3710   -0.4790    0.0000 C.ar    1  LIG1        0.0439
     18 C           2.4920   -0.9500    0.0000 C.ar    1  LIG1        0.0155
     19 C           1.6330   -0.4790    0.0000 C.ar    1  LIG1        0.0178
     20 N           4.2380   -0.9630    0.0000 N.pl3   1  LIG1       -0.3077
     21 C           4.2380   -2.0080    0.0000 C.3     1  LIG1        0.0908
     22 C           5.0830   -2.4750    0.0000 C.3     1  LIG1        0.0232
     23 C           5.1330   -0.4790    0.0000 C.3     1  LIG1        0.0908
     24 C           5.9750   -1.0000    0.0000 C.3     1  LIG1        0.0232
     25 C           4.2380    1.0210    0.0000 C.3     1  LIG1        0.0324
     26 O          -0.1540   -0.4790    0.0000 O.2     1  LIG1       -0.2720
@<TRIPOS>BOND
     1     1     2   ar
     2     1     5   ar
     3     1    10    1
     4     2     3   ar
     5     3     4   ar
     6     3     9   ar
     7     4     5   ar
     8     4     6   ar
     9     6     7   ar
    10     7     8   ar
    11     8     9   ar
    12    10    11    1
    13    11    12    1
    14    12    13   am
    15    12    26    2
    16    13    14    1
    17    14    15   ar
    18    14    19   ar
    19    15    16   ar
    20    16    17   ar
    21    16    25    1
    22    17    18   ar
    23    17    20    1
    24    18    19   ar
    25    20    21    1
    26    20    23    1
    27    21    22    1
    28    23    24    1
