@<TRIPOS>MOLECULE
25950_ChemDiv_0800-0580
 30 33 0 0 0
SMALL
GASTEIGER
Energy = 0

@<TRIPOS>ATOM
      1 S           2.5710   -0.4080    0.0000 S.O2    1  LIG1       -0.0578
      2 N           1.8630    0.3040    0.0000 N.pl3   1  LIG1       -0.5357
      3 C           2.0880    1.2380    0.0000 C.ar    1  LIG1       -0.1078
      4 C           1.3290    1.9880    0.0000 C.ar    1  LIG1        0.0334
      5 C           0.4040    1.6830    0.0000 C.2     1  LIG1        0.2689
      6 N          -0.3080    2.3630    0.0000 N.am    1  LIG1       -0.1505
      7 C          -1.3040    2.0670    0.0000 C.ar    1  LIG1        0.1861
      8 N          -1.5790    1.0920    0.0000 N.ar    1  LIG1       -0.2225
      9 C          -2.6330    1.1630    0.0000 C.ar    1  LIG1        0.0894
     10 C          -2.8830    2.1290    0.0000 C.ar    1  LIG1        0.0506
     11 S          -2.0540    2.6580    0.0000 S.2     1  LIG1       -0.0497
     12 C          -3.8580    2.3460    0.0000 C.ar    1  LIG1        0.0195
     13 C          -4.5290    1.6330    0.0000 C.ar    1  LIG1        0.0583
     14 C          -4.2330    0.6580    0.0000 C.ar    1  LIG1        0.0130
     15 C          -3.2880    0.4210    0.0000 C.ar    1  LIG1        0.0205
     16 CL         -5.5630    1.7540    0.0000 Cl      1  LIG1       -0.0822
     17 O           0.2040    0.6580    0.0000 O.2     1  LIG1       -0.2680
     18 C           1.5880    2.9380    0.0000 C.ar    1  LIG1        0.0028
     19 C           2.6000    3.1710    0.0000 C.ar    1  LIG1        0.0000
     20 C           3.2420    2.5420    0.0000 C.ar    1  LIG1       -0.0019
     21 C           3.0330    1.5170    0.0000 C.ar    1  LIG1       -0.0237
     22 C           3.3630   -1.1580    0.0000 C.ar    1  LIG1        0.0893
     23 C           4.2880   -0.8000    0.0000 C.ar    1  LIG1        0.0166
     24 C           5.0170   -1.4830    0.0000 C.ar    1  LIG1       -0.0030
     25 C           4.8210   -2.4580    0.0000 C.ar    1  LIG1       -0.0218
     26 C           3.8630   -2.6960    0.0000 C.ar    1  LIG1       -0.0030
     27 C           3.1540   -2.0750    0.0000 C.ar    1  LIG1        0.0166
     28 C           5.5580   -3.1670    0.0000 C.3     1  LIG1        0.0310
     29 O           3.2830    0.3330    0.0000 O.2     1  LIG1       -0.1842
     30 O           1.8920   -1.0880    0.0000 O.2     1  LIG1       -0.1842
@<TRIPOS>BOND
     1     1     2    1
     2     1    22    1
     3     1    29    2
     4     1    30    2
     5     2     3    1
     6     3     4   ar
     7     3    21   ar
     8     4     5    1
     9     4    18   ar
    10     5     6   am
    11     5    17    2
    12     6     7    1
    13     7     8   ar
    14     7    11   ar
    15     8     9   ar
    16     9    10   ar
    17     9    15   ar
    18    10    11   ar
    19    10    12   ar
    20    12    13   ar
    21    13    14   ar
    22    13    16    1
    23    14    15   ar
    24    18    19   ar
    25    19    20   ar
    26    20    21   ar
    27    22    23   ar
    28    22    27   ar
    29    23    24   ar
    30    24    25   ar
    31    25    26   ar
    32    25    28    1
    33    26    27   ar
