@<TRIPOS>MOLECULE
25954_ChemDiv_3847-0019
 24 30 0 0 0
SMALL
GASTEIGER
Energy = 0

@<TRIPOS>ATOM
      1 N           0.2380   -0.6960    0.0000 N.am    1  LIG1       -0.2331
      2 C          -0.5920   -1.1880    0.0000 C.2     1  LIG1        0.2315
      3 C          -1.5130   -0.9500    0.0000 C.3     1  LIG1        0.0900
      4 C          -1.1250   -0.1540    0.0000 C.3     1  LIG1        0.0900
      5 C          -0.2080    0.0920    0.0000 C.2     1  LIG1        0.2315
      6 O           0.2710    0.9250    0.0000 O.2     1  LIG1       -0.2745
      7 C          -2.1290    0.4540    0.0000 C.3     1  LIG1        0.0311
      8 C          -2.3210    1.4880    0.0000 C.3     1  LIG1        0.0084
      9 C          -2.4330   -0.4580    0.0000 C.3     1  LIG1        0.0311
     10 C          -3.5460   -0.9880    0.0000 C.2     1  LIG1       -0.0305
     11 C          -3.0960    0.0130    0.0000 C.2     1  LIG1       -0.0305
     12 C          -3.1540    1.9790    0.0000 C.3     1  LIG1        0.0007
     13 C          -1.6380    2.1540    0.0000 C.3     1  LIG1        0.0007
     14 O          -0.5920   -2.1500    0.0000 O.2     1  LIG1       -0.2745
     15 C           1.2630   -0.9500    0.0000 C.3     1  LIG1        0.0669
     16 C           1.9380   -0.2920    0.0000 C.3     1  LIG1        0.0187
     17 C           2.7080   -0.6290    0.0000 C.3     1  LIG1        0.0016
     18 C           3.5420   -0.4210    0.0000 C.3     1  LIG1        0.0001
     19 C           2.8460   -1.0960    0.0000 C.3     1  LIG1        0.0016
     20 C           2.1290   -0.8040    0.0000 C.3     1  LIG1        0.0187
     21 C           2.8380   -1.9170    0.0000 C.3     1  LIG1        0.0001
     22 C           2.0790   -2.1500    0.0000 C.3     1  LIG1        0.0016
     23 C           1.3250   -1.8040    0.0000 C.3     1  LIG1        0.0187
     24 C           2.6750   -1.5000    0.0000 C.3     1  LIG1        0.0001
@<TRIPOS>BOND
     1     1     2   am
     2     1     5   am
     3     1    15    1
     4     2     3    1
     5     2    14    2
     6     3     4    1
     7     3     9    1
     8     4     5    1
     9     4     7    1
    10     5     6    2
    11     7     8    1
    12     7    11    1
    13     8     9    1
    14     8    12    1
    15     8    13    1
    16     9    10    1
    17    10    11    2
    18    12    13    1
    19    15    16    1
    20    15    20    1
    21    15    23    1
    22    16    17    1
    23    17    18    1
    24    17    24    1
    25    18    19    1
    26    19    20    1
    27    19    21    1
    28    21    22    1
    29    22    23    1
    30    22    24    1
