@<TRIPOS>MOLECULE
25953_ChemDiv_8013-0883
 27 31 0 0 0
SMALL
GASTEIGER
Energy = 0

@<TRIPOS>ATOM
      1 C          -1.6830   -0.0080    0.0000 C.ar    1  LIG1        0.2591
      2 N          -2.2750   -0.8000    0.0000 N.ar    1  LIG1       -0.2027
      3 C          -3.2210   -0.4710    0.0000 C.ar    1  LIG1        0.1194
      4 C          -3.2130    0.5210    0.0000 C.ar    1  LIG1        0.1652
      5 O          -2.2380    0.7880    0.0000 O.2     1  LIG1       -0.4300
      6 C          -4.0330    1.0500    0.0000 C.ar    1  LIG1        0.0391
      7 C          -4.9500    0.5580    0.0000 C.ar    1  LIG1        0.0032
      8 C          -4.9790   -0.3960    0.0000 C.ar    1  LIG1        0.0018
      9 C          -4.1210   -0.9420    0.0000 C.ar    1  LIG1        0.0223
     10 S          -0.6880   -0.0080    0.0000 S.3     1  LIG1       -0.0469
     11 C          -0.1960   -0.8670    0.0000 C.3     1  LIG1        0.1531
     12 C           0.8040   -0.8670    0.0000 C.2     1  LIG1        0.2529
     13 O           1.3170   -1.7290    0.0000 O.2     1  LIG1       -0.2724
     14 N           1.2960   -0.0080    0.0000 N.am    1  LIG1       -0.2020
     15 C           0.8040    0.8460    0.0000 C.3     1  LIG1        0.1471
     16 C           1.2960    1.7210    0.0000 C.3     1  LIG1        0.1653
     17 O           2.4710    1.7330    0.0000 O.3     1  LIG1       -0.3566
     18 C           2.9630    0.8710    0.0000 C.3     1  LIG1        0.0928
     19 C           3.2790   -0.0080    0.0000 C.3     1  LIG1        0.0272
     20 C           4.1710   -0.4420    0.0000 C.3     1  LIG1        0.0023
     21 C           4.9750    0.2210    0.0000 C.3     1  LIG1        0.0002
     22 C           4.7130    1.0710    0.0000 C.3     1  LIG1        0.0023
     23 C           3.7080    1.4960    0.0000 C.3     1  LIG1        0.0272
     24 C           4.3420    0.1170    0.0000 C.3     1  LIG1        0.0002
     25 C           3.5460   -0.5540    0.0000 C.3     1  LIG1        0.0023
     26 C           2.6670   -0.1380    0.0000 C.3     1  LIG1        0.0272
     27 C           3.7830   -1.3880    0.0000 C.3     1  LIG1        0.0002
@<TRIPOS>BOND
     1     1     2   ar
     2     1     5   ar
     3     1    10    1
     4     2     3   ar
     5     3     4   ar
     6     3     9   ar
     7     4     5   ar
     8     4     6   ar
     9     6     7   ar
    10     7     8   ar
    11     8     9   ar
    12    10    11    1
    13    11    12    1
    14    12    13    2
    15    12    14   am
    16    14    15    1
    17    15    16    1
    18    16    17    1
    19    17    18    1
    20    18    19    1
    21    18    23    1
    22    18    26    1
    23    19    20    1
    24    20    21    1
    25    20    27    1
    26    21    22    1
    27    22    23    1
    28    22    24    1
    29    24    25    1
    30    25    26    1
    31    25    27    1
