@<TRIPOS>MOLECULE
25963_ChemDiv_8018-0081
 24 28 0 0 0
SMALL
GASTEIGER
Energy = 0

@<TRIPOS>ATOM
      1 C          -2.7750    0.5330    0.0000 C.3     1  LIG1        0.0190
      2 C          -1.9250    0.0330    0.0000 C.ar    1  LIG1       -0.0211
      3 C          -1.0710    0.5330    0.0000 C.ar    1  LIG1        0.0180
      4 C          -0.2210    0.0330    0.0000 C.ar    1  LIG1        0.1191
      5 N           1.4920    0.0330    0.0000 N.ar    1  LIG1       -0.2027
      6 C           1.4920   -0.9420    0.0000 C.ar    1  LIG1        0.2590
      7 O           0.6330   -1.4420    0.0000 O.2     1  LIG1       -0.4300
      8 C          -0.2210   -0.9420    0.0000 C.ar    1  LIG1        0.1652
      9 C          -1.0710   -1.4420    0.0000 C.ar    1  LIG1        0.0388
     10 C          -1.9250   -0.9420    0.0000 C.ar    1  LIG1       -0.0011
     11 S           2.3460   -1.4420    0.0000 S.3     1  LIG1       -0.0489
     12 C           3.1960   -0.9420    0.0000 C.3     1  LIG1        0.1309
     13 C           4.0460   -1.4420    0.0000 C.2     1  LIG1        0.1624
     14 O           4.0460   -2.4210    0.0000 O.2     1  LIG1       -0.2951
     15 C           4.9040   -0.9420    0.0000 C.3     1  LIG1        0.0732
     16 C          -3.6710    0.3920    0.0000 C.3     1  LIG1        0.0040
     17 C          -4.0580    1.1460    0.0000 C.3     1  LIG1        0.0003
     18 C          -3.3000    1.9210    0.0000 C.3     1  LIG1        0.0000
     19 C          -2.3580    2.1830    0.0000 C.3     1  LIG1        0.0003
     20 C          -2.0880    1.2330    0.0000 C.3     1  LIG1        0.0040
     21 C          -3.3080    2.4250    0.0000 C.3     1  LIG1        0.0000
     22 C          -4.0460    1.6750    0.0000 C.3     1  LIG1        0.0003
     23 C          -3.4630    0.6500    0.0000 C.3     1  LIG1        0.0040
     24 C          -4.9080    1.6080    0.0000 C.3     1  LIG1        0.0000
@<TRIPOS>BOND
     1     1     2    1
     2     1    16    1
     3     1    20    1
     4     1    23    1
     5     2     3   ar
     6     2    10   ar
     7     3     4   ar
     8     4     5   ar
     9     4     8   ar
    10     5     6   ar
    11     6     7   ar
    12     6    11    1
    13     7     8   ar
    14     8     9   ar
    15     9    10   ar
    16    11    12    1
    17    12    13    1
    18    13    14    2
    19    13    15    1
    20    16    17    1
    21    17    18    1
    22    17    24    1
    23    18    19    1
    24    19    20    1
    25    19    21    1
    26    21    22    1
    27    22    23    1
    28    22    24    1
