@<TRIPOS>MOLECULE
25968_ChemDiv_6228-0595
 20 23 0 0 0
SMALL
GASTEIGER
Energy = 0

@<TRIPOS>ATOM
      1 N           0.1250    0.4290    0.0000 N.am    1  LIG1       -0.1809
      2 C          -0.4420   -0.4000    0.0000 C.2     1  LIG1        0.2358
      3 C          -1.3750   -0.0750    0.0000 C.3     1  LIG1        0.0902
      4 C          -1.3750    0.9290    0.0000 C.3     1  LIG1        0.0902
      5 C          -0.4420    1.2420    0.0000 C.2     1  LIG1        0.2358
      6 O          -0.1380    2.2040    0.0000 O.2     1  LIG1       -0.2743
      7 C          -2.1960    1.4420    0.0000 C.3     1  LIG1        0.0311
      8 C          -3.0290    0.9290    0.0000 C.2     1  LIG1       -0.0305
      9 C          -3.0290   -0.0880    0.0000 C.2     1  LIG1       -0.0305
     10 C          -2.1960   -0.5750    0.0000 C.3     1  LIG1        0.0311
     11 C          -1.7330    0.5540    0.0000 C.3     1  LIG1        0.0096
     12 O          -0.2000   -1.3670    0.0000 O.2     1  LIG1       -0.2743
     13 C           1.0920    0.4290    0.0000 C.3     1  LIG1        0.2206
     14 N           1.5670   -0.4540    0.0000 N.4     1  LIG1        0.3176
     15 C           2.1170    0.4040    0.0000 C.3     1  LIG1        0.1724
     16 C           1.0920   -1.3330    0.0000 C.3     1  LIG1        0.1107
     17 C           1.5670   -2.2000    0.0000 C.3     1  LIG1        0.0613
     18 C           2.5250   -2.2000    0.0000 C.3     1  LIG1        0.0122
     19 C           3.0250   -1.3330    0.0000 C.3     1  LIG1        0.0613
     20 C           2.5250   -0.4540    0.0000 C.3     1  LIG1        0.1107
@<TRIPOS>BOND
     1     1     2   am
     2     1     5   am
     3     1    13    1
     4     2     3    1
     5     2    12    2
     6     3     4    1
     7     3    10    1
     8     4     5    1
     9     4     7    1
    10     5     6    2
    11     7     8    1
    12     7    11    1
    13     8     9    2
    14     9    10    1
    15    10    11    1
    16    13    14    1
    17    14    15    1
    18    14    16    1
    19    14    20    1
    20    16    17    1
    21    17    18    1
    22    18    19    1
    23    19    20    1
