@<TRIPOS>MOLECULE
25962_ChemDiv_4682-0020
 17 19 0 0 0
SMALL
GASTEIGER
Energy = 0

@<TRIPOS>ATOM
      1 N           0.0750   -0.8250    0.0000 N.am    1  LIG1       -0.2206
      2 C           0.0750    0.0170    0.0000 C.2     1  LIG1        0.2321
      3 C          -0.6830    0.1960    0.0000 C.3     1  LIG1        0.0900
      4 C          -0.9460   -0.2580    0.0000 C.3     1  LIG1        0.0900
      5 C          -0.7750   -0.8250    0.0000 C.2     1  LIG1        0.2321
      6 O          -0.9460   -1.5750    0.0000 O.2     1  LIG1       -0.2744
      7 C          -2.0880    0.3580    0.0000 C.3     1  LIG1        0.0311
      8 C          -3.4380   -0.1920    0.0000 C.2     1  LIG1       -0.0305
      9 C          -3.1080    0.3580    0.0000 C.2     1  LIG1       -0.0305
     10 C          -1.7880    0.8540    0.0000 C.3     1  LIG1        0.0311
     11 C          -2.0880    1.9790    0.0000 C.3     1  LIG1        0.0096
     12 O           0.7920    0.2670    0.0000 O.2     1  LIG1       -0.2744
     13 C           0.7830   -1.5290    0.0000 C.3     1  LIG1        0.1873
     14 C           1.7380   -1.2630    0.0000 C.2     1  LIG1        0.2621
     15 O           1.9710   -0.2960    0.0000 O.2     1  LIG1       -0.2715
     16 N           2.4750   -1.9750    0.0000 N.am    1  LIG1       -0.2021
     17 C           3.4330   -1.7130    0.0000 C.3     1  LIG1        0.1386
@<TRIPOS>BOND
     1     1     2   am
     2     1     5   am
     3     1    13    1
     4     2     3    1
     5     2    12    2
     6     3     4    1
     7     3    10    1
     8     4     5    1
     9     4     7    1
    10     5     6    2
    11     7     8    1
    12     7    11    1
    13     8     9    2
    14     9    10    1
    15    10    11    1
    16    13    14    1
    17    14    15    2
    18    14    16   am
    19    16    17    1
