@<TRIPOS>MOLECULE
25969_ChemDiv_3448-3303
 28 31 0 0 0
SMALL
GASTEIGER
Energy = 0

@<TRIPOS>ATOM
      1 N           2.2880   -0.2040    0.0000 N.am    1  LIG1       -0.2011
      2 C           1.4750    0.3920    0.0000 C.2     1  LIG1        0.2589
      3 C           0.6830   -0.2040    0.0000 C.ar    1  LIG1        0.0588
      4 C           0.9580   -1.1500    0.0000 C.ar    1  LIG1        0.0587
      5 C           1.9880   -1.1580    0.0000 C.2     1  LIG1        0.2589
      6 O           2.6250   -1.9880    0.0000 O.2     1  LIG1       -0.2691
      7 C           0.3000   -1.9000    0.0000 C.ar    1  LIG1        0.0048
      8 C          -0.6250   -1.7000    0.0000 C.ar    1  LIG1        0.0047
      9 C          -0.9540   -0.7080    0.0000 C.ar    1  LIG1        0.0555
     10 C          -1.9420   -0.4170    0.0000 C.2     1  LIG1        0.2690
     11 N          -2.1670    0.5540    0.0000 N.am    1  LIG1       -0.1754
     12 C          -3.1580    0.8000    0.0000 C.ar    1  LIG1        0.0737
     13 C          -3.8330    0.0670    0.0000 C.ar    1  LIG1        0.0163
     14 C          -4.8130    0.3250    0.0000 C.ar    1  LIG1       -0.0029
     15 C          -5.0790    1.2460    0.0000 C.ar    1  LIG1       -0.0218
     16 C          -4.3710    1.9920    0.0000 C.ar    1  LIG1       -0.0029
     17 C          -3.4250    1.7210    0.0000 C.ar    1  LIG1        0.0163
     18 C          -6.0540    1.4040    0.0000 C.3     1  LIG1        0.0310
     19 O          -2.6210   -1.1290    0.0000 O.2     1  LIG1       -0.2680
     20 C          -0.2630    0.0330    0.0000 C.ar    1  LIG1        0.0093
     21 O           1.5330    1.4040    0.0000 O.2     1  LIG1       -0.2691
     22 C           3.2330    0.1330    0.0000 C.ar    1  LIG1        0.0612
     23 C           3.4210    1.1130    0.0000 C.ar    1  LIG1        0.0150
     24 C           4.3500    1.4830    0.0000 C.ar    1  LIG1       -0.0030
     25 C           5.1210    0.8420    0.0000 C.ar    1  LIG1       -0.0218
     26 C           4.9170   -0.1710    0.0000 C.ar    1  LIG1       -0.0030
     27 C           3.9960   -0.4830    0.0000 C.ar    1  LIG1        0.0150
     28 C           6.0540    1.1790    0.0000 C.3     1  LIG1        0.0310
@<TRIPOS>BOND
     1     1     2   am
     2     1     5   am
     3     1    22    1
     4     2     3    1
     5     2    21    2
     6     3     4   ar
     7     3    20   ar
     8     4     5    1
     9     4     7   ar
    10     5     6    2
    11     7     8   ar
    12     8     9   ar
    13     9    10    1
    14     9    20   ar
    15    10    11   am
    16    10    19    2
    17    11    12    1
    18    12    13   ar
    19    12    17   ar
    20    13    14   ar
    21    14    15   ar
    22    15    16   ar
    23    15    18    1
    24    16    17   ar
    25    22    23   ar
    26    22    27   ar
    27    23    24   ar
    28    24    25   ar
    29    25    26   ar
    30    25    28    1
    31    26    27   ar
