@<TRIPOS>MOLECULE
25965_ChemDiv_D058-0186
 16 17 0 0 0
SMALL
GASTEIGER
Energy = 0

@<TRIPOS>ATOM
      1 C           0.1330    0.3710    0.0000 C.ar    1  LIG1        0.2590
      2 N          -0.4460    1.1790    0.0000 N.ar    1  LIG1       -0.2027
      3 C          -1.4000    0.8670    0.0000 C.ar    1  LIG1        0.1194
      4 C          -1.4080   -0.1290    0.0000 C.ar    1  LIG1        0.1652
      5 O          -0.3710   -0.4790    0.0000 O.2     1  LIG1       -0.4300
      6 C          -2.2670   -0.6250    0.0000 C.ar    1  LIG1        0.0391
      7 C          -3.1170   -0.1290    0.0000 C.ar    1  LIG1        0.0032
      8 C          -3.1170    0.8670    0.0000 C.ar    1  LIG1        0.0018
      9 C          -2.2670    1.3580    0.0000 C.ar    1  LIG1        0.0223
     10 S           1.1210    0.3710    0.0000 S.3     1  LIG1       -0.0520
     11 C           1.6210   -0.4960    0.0000 C.3     1  LIG1        0.0926
     12 C           2.6170   -0.4960    0.0000 C.2     1  LIG1        0.0605
     13 O           3.1130   -1.3540    0.0000 O.co2   1  LIG1       -0.5483
     14 O           3.1130    0.3710    0.0000 O.co2   1  LIG1       -0.5483
     15 C           1.1210   -1.3540    0.0000 C.3     1  LIG1        0.0169
     16 C           0.1250   -1.3540    0.0000 C.3     1  LIG1        0.0013
@<TRIPOS>BOND
     1     1     2   ar
     2     1     5   ar
     3     1    10    1
     4     2     3   ar
     5     3     4   ar
     6     3     9   ar
     7     4     5   ar
     8     4     6   ar
     9     6     7   ar
    10     7     8   ar
    11     8     9   ar
    12    10    11    1
    13    11    12    1
    14    11    15    1
    15    12    13   ar
    16    12    14   ar
    17    15    16    1
