@<TRIPOS>MOLECULE
25966_ChemDiv_5988-0073
 18 20 0 0 0
SMALL
GASTEIGER
Energy = 0

@<TRIPOS>ATOM
      1 N           0.4250    0.5420    0.0000 N.am    1  LIG1       -0.2096
      2 C           0.1920    1.4710    0.0000 C.2     1  LIG1        0.2330
      3 C          -0.7420    1.5460    0.0000 C.3     1  LIG1        0.0901
      4 C          -1.1330    0.6920    0.0000 C.3     1  LIG1        0.0901
      5 C          -0.4330    0.0710    0.0000 C.2     1  LIG1        0.2330
      6 O          -0.5330   -0.8880    0.0000 O.2     1  LIG1       -0.2744
      7 C          -2.0630    1.1080    0.0000 C.3     1  LIG1        0.0311
      8 C          -2.9250    0.6710    0.0000 C.2     1  LIG1       -0.0305
      9 C          -2.4790    1.5210    0.0000 C.2     1  LIG1       -0.0305
     10 C          -1.6250    1.9670    0.0000 C.3     1  LIG1        0.0311
     11 C          -2.0630    2.8170    0.0000 C.3     1  LIG1        0.0096
     12 O           0.8420    2.1960    0.0000 O.2     1  LIG1       -0.2744
     13 C           1.2540    0.0710    0.0000 C.3     1  LIG1        0.2211
     14 N           1.2540   -0.8880    0.0000 N.am    1  LIG1       -0.1458
     15 C           2.0920   -1.3580    0.0000 C.2     1  LIG1        0.4228
     16 O           2.9210   -0.8880    0.0000 O.2     1  LIG1       -0.2245
     17 O           2.0920   -2.3500    0.0000 O.3     1  LIG1       -0.4294
     18 C           2.9210   -2.8130    0.0000 C.3     1  LIG1        0.2574
@<TRIPOS>BOND
     1     1     2   am
     2     1     5   am
     3     1    13    1
     4     2     3    1
     5     2    12    2
     6     3     4    1
     7     3    10    1
     8     4     5    1
     9     4     7    1
    10     5     6    2
    11     7     8    1
    12     7    11    1
    13     8     9    2
    14     9    10    1
    15    10    11    1
    16    13    14    1
    17    14    15   am
    18    15    16    2
    19    15    17    1
    20    17    18    1
