@<TRIPOS>MOLECULE
25971_ChemDiv_3448-3304
 36 39 0 0 0
SMALL
GASTEIGER
Energy = 0

@<TRIPOS>ATOM
      1 N           2.2130   -0.6000    0.0000 N.am    1  LIG1       -0.2011
      2 C           1.4000   -0.0040    0.0000 C.2     1  LIG1        0.2589
      3 C           0.6080   -0.6000    0.0000 C.ar    1  LIG1        0.0588
      4 C           0.8830   -1.5460    0.0000 C.ar    1  LIG1        0.0587
      5 C           1.9130   -1.5580    0.0000 C.2     1  LIG1        0.2589
      6 O           2.5500   -2.3880    0.0000 O.2     1  LIG1       -0.2691
      7 C           0.2250   -2.3000    0.0000 C.ar    1  LIG1        0.0048
      8 C          -0.7040   -2.1000    0.0000 C.ar    1  LIG1        0.0047
      9 C          -1.0330   -1.1080    0.0000 C.ar    1  LIG1        0.0555
     10 C          -2.0250   -0.8170    0.0000 C.2     1  LIG1        0.2690
     11 N          -2.2500    0.1580    0.0000 N.am    1  LIG1       -0.1754
     12 C          -3.2420    0.4000    0.0000 C.ar    1  LIG1        0.0737
     13 C          -3.9170   -0.3290    0.0000 C.ar    1  LIG1        0.0168
     14 C          -4.8960   -0.0710    0.0000 C.ar    1  LIG1        0.0078
     15 C          -5.1670    0.8540    0.0000 C.ar    1  LIG1        0.0757
     16 C          -6.1420    1.0080    0.0000 C.2     1  LIG1        0.3412
     17 O          -6.4830    1.9420    0.0000 O.2     1  LIG1       -0.2449
     18 O          -6.7580    0.2500    0.0000 O.3     1  LIG1       -0.4454
     19 C          -6.3790   -0.6790    0.0000 C.3     1  LIG1        0.2089
     20 C          -5.4040   -0.8170    0.0000 C.3     1  LIG1        0.0513
     21 C          -4.4580    1.5960    0.0000 C.ar    1  LIG1        0.0078
     22 C          -3.5130    1.3250    0.0000 C.ar    1  LIG1        0.0168
     23 O          -2.7040   -1.5290    0.0000 O.2     1  LIG1       -0.2680
     24 C          -0.3420   -0.3630    0.0000 C.ar    1  LIG1        0.0093
     25 O           1.4580    1.0080    0.0000 O.2     1  LIG1       -0.2691
     26 C           3.1580   -0.2630    0.0000 C.ar    1  LIG1        0.0612
     27 C           3.3500    0.7170    0.0000 C.ar    1  LIG1        0.0155
     28 C           4.2790    1.0880    0.0000 C.ar    1  LIG1        0.0077
     29 C           5.0500    0.4460    0.0000 C.ar    1  LIG1        0.0757
     30 C           5.9880    0.7830    0.0000 C.2     1  LIG1        0.3412
     31 O           6.7580    0.1420    0.0000 O.2     1  LIG1       -0.2449
     32 O           6.1210    1.7670    0.0000 O.3     1  LIG1       -0.4454
     33 C           5.3380    2.3920    0.0000 C.3     1  LIG1        0.2089
     34 C           4.4130    2.0250    0.0000 C.3     1  LIG1        0.0513
     35 C           4.8500   -0.5670    0.0000 C.ar    1  LIG1        0.0077
     36 C           3.9250   -0.8830    0.0000 C.ar    1  LIG1        0.0155
@<TRIPOS>BOND
     1     1     2   am
     2     1     5   am
     3     1    26    1
     4     2     3    1
     5     2    25    2
     6     3     4   ar
     7     3    24   ar
     8     4     5    1
     9     4     7   ar
    10     5     6    2
    11     7     8   ar
    12     8     9   ar
    13     9    10    1
    14     9    24   ar
    15    10    11   am
    16    10    23    2
    17    11    12    1
    18    12    13   ar
    19    12    22   ar
    20    13    14   ar
    21    14    15   ar
    22    15    16    1
    23    15    21   ar
    24    16    17    2
    25    16    18    1
    26    18    19    1
    27    19    20    1
    28    21    22   ar
    29    26    27   ar
    30    26    36   ar
    31    27    28   ar
    32    28    29   ar
    33    29    30    1
    34    29    35   ar
    35    30    31    2
    36    30    32    1
    37    32    33    1
    38    33    34    1
    39    35    36   ar
