@<TRIPOS>MOLECULE
25975_ChemDiv_3448-4824
 27 30 0 0 0
SMALL
GASTEIGER
Energy = 0

@<TRIPOS>ATOM
      1 N           2.0710    0.1290    0.0000 N.am    1  LIG1       -0.2011
      2 C           1.1540    0.5290    0.0000 C.2     1  LIG1        0.2589
      3 C           0.4750   -0.2290    0.0000 C.ar    1  LIG1        0.0588
      4 C           0.9790   -1.0920    0.0000 C.ar    1  LIG1        0.0587
      5 C           1.9670   -0.8670    0.0000 C.2     1  LIG1        0.2589
      6 O           2.7040   -1.5460    0.0000 O.2     1  LIG1       -0.2691
      7 C           0.4750   -1.9500    0.0000 C.ar    1  LIG1        0.0048
      8 C          -0.5170   -1.9500    0.0000 C.ar    1  LIG1        0.0047
      9 C          -1.0210   -1.0920    0.0000 C.ar    1  LIG1        0.0555
     10 C          -2.0170   -1.0920    0.0000 C.2     1  LIG1        0.2690
     11 N          -2.5250   -0.2290    0.0000 N.am    1  LIG1       -0.1754
     12 C          -3.5130   -0.2290    0.0000 C.ar    1  LIG1        0.0737
     13 C          -4.0210    0.6380    0.0000 C.ar    1  LIG1        0.0166
     14 C          -5.0130    0.6380    0.0000 C.ar    1  LIG1        0.0013
     15 C          -5.5210   -0.2290    0.0000 C.ar    1  LIG1        0.0001
     16 C          -5.0130   -1.0920    0.0000 C.ar    1  LIG1        0.0013
     17 C          -4.0210   -1.0920    0.0000 C.ar    1  LIG1        0.0166
     18 O          -2.5250   -1.9500    0.0000 O.2     1  LIG1       -0.2680
     19 C          -0.5170   -0.2290    0.0000 C.ar    1  LIG1        0.0093
     20 O           0.9790    1.5250    0.0000 O.2     1  LIG1       -0.2691
     21 C           2.9790    0.5290    0.0000 C.ar    1  LIG1        0.0609
     22 C           3.8000   -0.0460    0.0000 C.ar    1  LIG1        0.0111
     23 C           4.7080    0.3580    0.0000 C.ar    1  LIG1       -0.0206
     24 C           4.8130    1.3500    0.0000 C.ar    1  LIG1       -0.0042
     25 C           3.9960    1.9540    0.0000 C.ar    1  LIG1        0.0010
     26 C           3.0830    1.5250    0.0000 C.ar    1  LIG1        0.0153
     27 C           5.5170   -0.2290    0.0000 C.3     1  LIG1        0.0311
@<TRIPOS>BOND
     1     1     2   am
     2     1     5   am
     3     1    21    1
     4     2     3    1
     5     2    20    2
     6     3     4   ar
     7     3    19   ar
     8     4     5    1
     9     4     7   ar
    10     5     6    2
    11     7     8   ar
    12     8     9   ar
    13     9    10    1
    14     9    19   ar
    15    10    11   am
    16    10    18    2
    17    11    12    1
    18    12    13   ar
    19    12    17   ar
    20    13    14   ar
    21    14    15   ar
    22    15    16   ar
    23    16    17   ar
    24    21    22   ar
    25    21    26   ar
    26    22    23   ar
    27    23    24   ar
    28    23    27    1
    29    24    25   ar
    30    25    26   ar
