@<TRIPOS>MOLECULE
25977_ChemDiv_3448-4855
 29 32 0 0 0
SMALL
GASTEIGER
Energy = 0

@<TRIPOS>ATOM
      1 N           3.1750   -0.0420    0.0000 N.am    1  LIG1       -0.2011
      2 C           2.3290    0.4830    0.0000 C.2     1  LIG1        0.2589
      3 C           1.5500   -0.1250    0.0000 C.ar    1  LIG1        0.0588
      4 C           1.9080   -1.0710    0.0000 C.ar    1  LIG1        0.0587
      5 C           2.9080   -1.0130    0.0000 C.2     1  LIG1        0.2589
      6 O           3.5170   -1.8290    0.0000 O.2     1  LIG1       -0.2691
      7 C           1.2750   -1.8460    0.0000 C.ar    1  LIG1        0.0048
      8 C           0.2790   -1.6960    0.0000 C.ar    1  LIG1        0.0047
      9 C          -0.0540   -0.7750    0.0000 C.ar    1  LIG1        0.0555
     10 C          -1.0710   -0.6080    0.0000 C.2     1  LIG1        0.2690
     11 N          -1.4460    0.3130    0.0000 N.am    1  LIG1       -0.1754
     12 C          -2.4420    0.4630    0.0000 C.ar    1  LIG1        0.0737
     13 C          -3.0670   -0.3080    0.0000 C.ar    1  LIG1        0.0166
     14 C          -4.0540   -0.1750    0.0000 C.ar    1  LIG1        0.0025
     15 C          -4.4330    0.7630    0.0000 C.ar    1  LIG1        0.0141
     16 C          -5.4210    0.9130    0.0000 C.2     1  LIG1        0.0729
     17 O          -5.7580    1.8500    0.0000 O.co2   1  LIG1       -0.5446
     18 O          -6.0540    0.1330    0.0000 O.co2   1  LIG1       -0.5446
     19 C          -3.8040    1.5380    0.0000 C.ar    1  LIG1        0.0025
     20 C          -2.8130    1.4000    0.0000 C.ar    1  LIG1        0.0166
     21 O          -1.6920   -1.4130    0.0000 O.2     1  LIG1       -0.2680
     22 C           0.5460    0.0000    0.0000 C.ar    1  LIG1        0.0093
     23 O           2.2790    1.4880    0.0000 O.2     1  LIG1       -0.2691
     24 C           4.1170    0.1790    0.0000 C.ar    1  LIG1        0.0612
     25 C           4.4210    1.1170    0.0000 C.ar    1  LIG1        0.0153
     26 C           5.3580    1.3540    0.0000 C.ar    1  LIG1        0.0013
     27 C           6.0540    0.6460    0.0000 C.ar    1  LIG1        0.0001
     28 C           5.7880   -0.3170    0.0000 C.ar    1  LIG1        0.0013
     29 C           4.8210   -0.5580    0.0000 C.ar    1  LIG1        0.0153
@<TRIPOS>BOND
     1     1     2   am
     2     1     5   am
     3     1    24    1
     4     2     3    1
     5     2    23    2
     6     3     4   ar
     7     3    22   ar
     8     4     5    1
     9     4     7   ar
    10     5     6    2
    11     7     8   ar
    12     8     9   ar
    13     9    10    1
    14     9    22   ar
    15    10    11   am
    16    10    21    2
    17    11    12    1
    18    12    13   ar
    19    12    20   ar
    20    13    14   ar
    21    14    15   ar
    22    15    16    1
    23    15    19   ar
    24    16    17   ar
    25    16    18   ar
    26    19    20   ar
    27    24    25   ar
    28    24    29   ar
    29    25    26   ar
    30    26    27   ar
    31    27    28   ar
    32    28    29   ar
