@<TRIPOS>MOLECULE
25979_ChemDiv_4334-1827
 33 36 0 0 0
SMALL
GASTEIGER
Energy = 0

@<TRIPOS>ATOM
      1 N          -1.7880   -0.9130    0.0000 N.am    1  LIG1       -0.2017
      2 C          -1.6790    0.0960    0.0000 C.2     1  LIG1        0.2589
      3 C          -0.6960    0.2960    0.0000 C.ar    1  LIG1        0.0588
      4 C          -0.2080   -0.5500    0.0000 C.ar    1  LIG1        0.0587
      5 C          -0.8790   -1.3250    0.0000 C.2     1  LIG1        0.2589
      6 O          -0.6750   -2.3080    0.0000 O.2     1  LIG1       -0.2691
      7 C           0.7790   -0.5500    0.0000 C.ar    1  LIG1        0.0048
      8 C           1.2630    0.3130    0.0000 C.ar    1  LIG1        0.0047
      9 C           0.7630    1.1460    0.0000 C.ar    1  LIG1        0.0555
     10 C           1.2630    2.0330    0.0000 C.2     1  LIG1        0.2690
     11 N           2.2710    2.0500    0.0000 N.am    1  LIG1       -0.1754
     12 C           2.7790    1.1710    0.0000 C.ar    1  LIG1        0.0749
     13 C           3.7710    1.1880    0.0000 C.ar    1  LIG1        0.0325
     14 C           4.2580    2.0540    0.0000 C.2     1  LIG1        0.0742
     15 O           3.7460    2.9170    0.0000 O.co2   1  LIG1       -0.5445
     16 O           5.2630    2.0710    0.0000 O.co2   1  LIG1       -0.5445
     17 C           4.2790    0.3380    0.0000 C.ar    1  LIG1        0.0445
     18 C           3.7880   -0.5500    0.0000 C.ar    1  LIG1        0.1959
     19 C           2.7790   -0.5500    0.0000 C.ar    1  LIG1        0.0434
     20 C           2.2710    0.3130    0.0000 C.ar    1  LIG1        0.0199
     21 O           4.2920   -1.4040    0.0000 O.3     1  LIG1       -0.2866
     22 O           0.7420    2.8960    0.0000 O.2     1  LIG1       -0.2680
     23 C          -0.2130    1.1460    0.0000 C.ar    1  LIG1        0.0093
     24 O          -2.4330    0.7630    0.0000 O.2     1  LIG1       -0.2691
     25 C          -2.6750   -1.4040    0.0000 C.ar    1  LIG1        0.0533
     26 C          -2.6750   -2.4130    0.0000 C.ar    1  LIG1       -0.0083
     27 C          -3.5250   -2.9130    0.0000 C.ar    1  LIG1       -0.0073
     28 C          -4.3920   -2.4130    0.0000 C.ar    1  LIG1       -0.0224
     29 C          -4.3920   -1.4000    0.0000 C.ar    1  LIG1       -0.0073
     30 C          -3.5250   -0.9000    0.0000 C.ar    1  LIG1       -0.0083
     31 C          -3.5250    0.0960    0.0000 C.3     1  LIG1        0.0323
     32 C          -5.2670   -2.9130    0.0000 C.3     1  LIG1        0.0310
     33 C          -1.8040   -2.9130    0.0000 C.3     1  LIG1        0.0323
@<TRIPOS>BOND
     1     1     2   am
     2     1     5   am
     3     1    25    1
     4     2     3    1
     5     2    24    2
     6     3     4   ar
     7     3    23   ar
     8     4     5    1
     9     4     7   ar
    10     5     6    2
    11     7     8   ar
    12     8     9   ar
    13     9    10    1
    14     9    23   ar
    15    10    11   am
    16    10    22    2
    17    11    12    1
    18    12    13   ar
    19    12    20   ar
    20    13    14    1
    21    13    17   ar
    22    14    15   ar
    23    14    16   ar
    24    17    18   ar
    25    18    19   ar
    26    18    21    1
    27    19    20   ar
    28    25    26   ar
    29    25    30   ar
    30    26    27   ar
    31    26    33    1
    32    27    28   ar
    33    28    29   ar
    34    28    32    1
    35    29    30   ar
    36    30    31    1
