@<TRIPOS>MOLECULE
25976_ChemDiv_R091-0014
 17 19 0 0 0
SMALL
GASTEIGER
Energy = 0

@<TRIPOS>ATOM
      1 N          -0.4920   -0.7880    0.0000 N.ar    1  LIG1       -0.2384
      2 C           0.0580    0.0210    0.0000 C.ar    1  LIG1        0.1107
      3 S          -0.4920    0.8130    0.0000 S.2     1  LIG1       -0.0665
      4 C          -1.4580    0.5130    0.0000 C.ar    1  LIG1        0.0485
      5 C          -1.4580   -0.4790    0.0000 C.ar    1  LIG1        0.0875
      6 C          -2.3250   -0.9920    0.0000 C.ar    1  LIG1        0.0154
      7 C          -3.1920   -0.4790    0.0000 C.ar    1  LIG1       -0.0203
      8 C          -3.1920    0.5130    0.0000 C.ar    1  LIG1       -0.0036
      9 C          -2.3250    1.0130    0.0000 C.ar    1  LIG1        0.0077
     10 C          -4.0710   -1.0080    0.0000 C.3     1  LIG1        0.0311
     11 C           1.0790    0.0710    0.0000 C.ar    1  LIG1        0.0239
     12 C           1.6080   -0.7710    0.0000 C.ar    1  LIG1        0.0034
     13 C           2.6130   -0.7000    0.0000 C.ar    1  LIG1        0.0181
     14 C           3.0750    0.1830    0.0000 C.ar    1  LIG1        0.0891
     15 N           4.0670    0.2250    0.0000 N.pl3   1  LIG1       -0.1281
     16 C           2.5250    1.0130    0.0000 C.ar    1  LIG1        0.0181
     17 C           1.5210    0.9670    0.0000 C.ar    1  LIG1        0.0034
@<TRIPOS>BOND
     1     1     2   ar
     2     1     5   ar
     3     2     3   ar
     4     2    11    1
     5     3     4   ar
     6     4     5   ar
     7     4     9   ar
     8     5     6   ar
     9     6     7   ar
    10     7     8   ar
    11     7    10    1
    12     8     9   ar
    13    11    12   ar
    14    11    17   ar
    15    12    13   ar
    16    13    14   ar
    17    14    15    1
    18    14    16   ar
    19    16    17   ar
