@<TRIPOS>MOLECULE
25987_ChemDiv_8011-8200
 20 22 0 0 0
SMALL
GASTEIGER
Energy = 0

@<TRIPOS>ATOM
      1 N          -0.6830   -0.8380    0.0000 N.am    1  LIG1       -0.2297
      2 C          -1.2580   -0.0330    0.0000 C.2     1  LIG1        0.2316
      3 C          -2.1880   -0.3380    0.0000 C.3     1  LIG1        0.0900
      4 C          -2.1880   -1.3170    0.0000 C.3     1  LIG1        0.0900
      5 C          -1.2580   -1.6250    0.0000 C.2     1  LIG1        0.2316
      6 O          -0.9330   -2.5880    0.0000 O.2     1  LIG1       -0.2745
      7 C          -3.0420   -1.8170    0.0000 C.3     1  LIG1        0.0311
      8 C          -3.8880   -1.3170    0.0000 C.2     1  LIG1       -0.0305
      9 C          -3.8880   -0.3380    0.0000 C.2     1  LIG1       -0.0305
     10 C          -3.0420    0.1540    0.0000 C.3     1  LIG1        0.0311
     11 C          -3.4380   -0.8540    0.0000 C.3     1  LIG1        0.0096
     12 O          -0.9330    0.8960    0.0000 O.2     1  LIG1       -0.2745
     13 C           0.3000   -0.8380    0.0000 C.3     1  LIG1        0.1070
     14 C           0.8000    0.0210    0.0000 C.3     1  LIG1        0.0846
     15 C           1.8960    0.0040    0.0000 C.3     1  LIG1        0.1404
     16 N           2.3920    0.8580    0.0000 N.4     1  LIG1        0.3773
     17 C           1.8960    1.7000    0.0000 C.3     1  LIG1        0.1388
     18 C           2.3920    2.5920    0.0000 C.3     1  LIG1        0.0688
     19 C           3.4040    0.8790    0.0000 C.3     1  LIG1        0.1388
     20 C           3.8830    1.7500    0.0000 C.3     1  LIG1        0.0688
@<TRIPOS>BOND
     1     1     2   am
     2     1     5   am
     3     1    13    1
     4     2     3    1
     5     2    12    2
     6     3     4    1
     7     3    10    1
     8     4     5    1
     9     4     7    1
    10     5     6    2
    11     7     8    1
    12     7    11    1
    13     8     9    2
    14     9    10    1
    15    10    11    1
    16    13    14    1
    17    14    15    1
    18    15    16    1
    19    16    17    1
    20    16    19    1
    21    17    18    1
    22    19    20    1
