@<TRIPOS>MOLECULE
25980_ChemDiv_1003-0021
 16 17 0 0 0
SMALL
GASTEIGER
Energy = 0

@<TRIPOS>ATOM
      1 N          -1.8750    0.0790    0.0000 N.ar    1  LIG1       -0.2427
      2 C          -0.9250   -0.2380    0.0000 C.ar    1  LIG1        0.0880
      3 C          -0.9250   -1.2380    0.0000 C.ar    1  LIG1        0.0556
      4 S          -1.8750   -1.5540    0.0000 S.2     1  LIG1       -0.0702
      5 C          -2.4420   -0.7460    0.0000 C.ar    1  LIG1        0.0886
      6 C          -3.4330   -0.7630    0.0000 C.3     1  LIG1        0.0594
      7 C          -0.0540    0.2630    0.0000 C.ar    1  LIG1        0.0195
      8 C           0.8130   -0.2380    0.0000 C.ar    1  LIG1        0.0181
      9 C           1.6750    0.2630    0.0000 C.ar    1  LIG1        0.0734
     10 N           2.5580   -0.2380    0.0000 N.am    1  LIG1       -0.1792
     11 C           2.5580   -1.2540    0.0000 C.2     1  LIG1        0.2461
     12 O           1.7080   -1.7500    0.0000 O.2     1  LIG1       -0.2730
     13 C           3.4290   -1.7630    0.0000 C.3     1  LIG1        0.0968
     14 C           1.6750    1.2580    0.0000 C.ar    1  LIG1        0.0166
     15 C           0.8130    1.7670    0.0000 C.ar    1  LIG1        0.0014
     16 C          -0.0540    1.2580    0.0000 C.ar    1  LIG1        0.0016
@<TRIPOS>BOND
     1     1     2   ar
     2     1     5   ar
     3     2     3   ar
     4     2     7    1
     5     3     4   ar
     6     4     5   ar
     7     5     6    1
     8     7     8   ar
     9     7    16   ar
    10     8     9   ar
    11     9    10    1
    12     9    14   ar
    13    10    11   am
    14    11    12    2
    15    11    13    1
    16    14    15   ar
    17    15    16   ar
