@<TRIPOS>MOLECULE
25983_ChemDiv_8007-4161
 31 34 0 0 0
SMALL
GASTEIGER
Energy = 0

@<TRIPOS>ATOM
      1 N          -2.6670   -0.0330    0.0000 N.am    1  LIG1       -0.2011
      2 C          -1.7380   -0.4290    0.0000 C.2     1  LIG1        0.2589
      3 C          -1.0580    0.3130    0.0000 C.ar    1  LIG1        0.0588
      4 C          -1.5750    1.1250    0.0000 C.ar    1  LIG1        0.0587
      5 C          -2.5670    0.8790    0.0000 C.2     1  LIG1        0.2589
      6 O          -3.3920    1.5330    0.0000 O.2     1  LIG1       -0.2691
      7 C          -1.0750    2.0380    0.0000 C.ar    1  LIG1        0.0048
      8 C          -0.1330    2.0380    0.0000 C.ar    1  LIG1        0.0047
      9 C           0.4210    1.2130    0.0000 C.ar    1  LIG1        0.0555
     10 C           1.4420    1.2830    0.0000 C.2     1  LIG1        0.2690
     11 N           2.0000    0.4830    0.0000 N.am    1  LIG1       -0.1754
     12 C           2.9960    0.5290    0.0000 C.ar    1  LIG1        0.0737
     13 C           3.5460   -0.2750    0.0000 C.ar    1  LIG1        0.0177
     14 C           4.5330   -0.2170    0.0000 C.ar    1  LIG1        0.0153
     15 C           5.0710   -1.0580    0.0000 C.2     1  LIG1        0.0729
     16 O           6.1000   -1.0000    0.0000 O.co2   1  LIG1       -0.5446
     17 O           4.5630   -1.8960    0.0000 O.co2   1  LIG1       -0.5446
     18 C           4.9880    0.6540    0.0000 C.ar    1  LIG1        0.0012
     19 C           4.4290    1.4790    0.0000 C.ar    1  LIG1        0.0014
     20 C           3.4210    1.4250    0.0000 C.ar    1  LIG1        0.0166
     21 O           1.8830    2.2080    0.0000 O.2     1  LIG1       -0.2680
     22 C          -0.0500    0.3420    0.0000 C.ar    1  LIG1        0.0093
     23 O          -1.5460   -1.4670    0.0000 O.2     1  LIG1       -0.2691
     24 C          -3.5210   -0.5880    0.0000 C.ar    1  LIG1        0.0609
     25 C          -4.4080   -0.1460    0.0000 C.ar    1  LIG1        0.0108
     26 C          -5.2380   -0.6750    0.0000 C.ar    1  LIG1       -0.0245
     27 C          -5.1920   -1.6830    0.0000 C.ar    1  LIG1       -0.0257
     28 C          -4.2790   -2.1540    0.0000 C.ar    1  LIG1       -0.0033
     29 C          -3.4630   -1.6080    0.0000 C.ar    1  LIG1        0.0150
     30 C          -6.0420   -2.2040    0.0000 C.3     1  LIG1        0.0307
     31 C          -6.1000   -0.1880    0.0000 C.3     1  LIG1        0.0307
@<TRIPOS>BOND
     1     1     2   am
     2     1     5   am
     3     1    24    1
     4     2     3    1
     5     2    23    2
     6     3     4   ar
     7     3    22   ar
     8     4     5    1
     9     4     7   ar
    10     5     6    2
    11     7     8   ar
    12     8     9   ar
    13     9    10    1
    14     9    22   ar
    15    10    11   am
    16    10    21    2
    17    11    12    1
    18    12    13   ar
    19    12    20   ar
    20    13    14   ar
    21    14    15    1
    22    14    18   ar
    23    15    16   ar
    24    15    17   ar
    25    18    19   ar
    26    19    20   ar
    27    24    25   ar
    28    24    29   ar
    29    25    26   ar
    30    26    27   ar
    31    26    31    1
    32    27    28   ar
    33    27    30    1
    34    28    29   ar
