@<TRIPOS>MOLECULE
25984_ChemDiv_8006-5093
 23 25 0 0 0
SMALL
GASTEIGER
Energy = 0

@<TRIPOS>ATOM
      1 S           1.6920   -0.1000    0.0000 S.O2    1  LIG1       -0.0578
      2 N           0.8420   -0.6040    0.0000 N.pl3   1  LIG1       -0.5358
      3 C          -0.0420   -0.1000    0.0000 C.ar    1  LIG1       -0.1123
      4 C          -0.9080   -0.6040    0.0000 C.ar    1  LIG1       -0.0223
      5 C          -1.7790   -0.1000    0.0000 C.ar    1  LIG1        0.0164
      6 C          -2.6210   -0.6040    0.0000 C.ar    1  LIG1        0.0879
      7 N          -3.5710   -0.2880    0.0000 N.ar    1  LIG1       -0.2427
      8 C          -4.1580   -1.1080    0.0000 C.ar    1  LIG1        0.0886
      9 S          -3.5710   -1.9170    0.0000 S.2     1  LIG1       -0.0702
     10 C          -2.6210   -1.6210    0.0000 C.ar    1  LIG1        0.0556
     11 C          -5.1500   -1.1080    0.0000 C.3     1  LIG1        0.0594
     12 C          -1.7790    0.9000    0.0000 C.ar    1  LIG1        0.0014
     13 C          -0.9080    1.3920    0.0000 C.ar    1  LIG1       -0.0018
     14 C          -0.0420    0.9000    0.0000 C.ar    1  LIG1       -0.0238
     15 C           2.5380    0.4130    0.0000 C.ar    1  LIG1        0.0893
     16 C           3.4130   -0.0750    0.0000 C.ar    1  LIG1        0.0174
     17 C           4.2790    0.4130    0.0000 C.ar    1  LIG1        0.0080
     18 C           4.2790    1.4040    0.0000 C.ar    1  LIG1        0.0346
     19 C           3.4130    1.9210    0.0000 C.ar    1  LIG1        0.0080
     20 C           2.5380    1.4040    0.0000 C.ar    1  LIG1        0.0174
     21 BR          5.1460    1.8920    0.0000 Br      1  LIG1       -0.0490
     22 O           2.2040   -0.9630    0.0000 O.2     1  LIG1       -0.1842
     23 O           1.1880    0.7670    0.0000 O.2     1  LIG1       -0.1842
@<TRIPOS>BOND
     1     1     2    1
     2     1    15    1
     3     1    22    2
     4     1    23    2
     5     2     3    1
     6     3     4   ar
     7     3    14   ar
     8     4     5   ar
     9     5     6    1
    10     5    12   ar
    11     6     7   ar
    12     6    10   ar
    13     7     8   ar
    14     8     9   ar
    15     8    11    1
    16     9    10   ar
    17    12    13   ar
    18    13    14   ar
    19    15    16   ar
    20    15    20   ar
    21    16    17   ar
    22    17    18   ar
    23    18    19   ar
    24    18    21    1
    25    19    20   ar
