@<TRIPOS>MOLECULE
25982_ChemDiv_3384-8147
 24 26 0 0 0
SMALL
GASTEIGER
Energy = 0

@<TRIPOS>ATOM
      1 N           1.3670   -0.6960    0.0000 N.ar    1  LIG1       -0.2383
      2 C           1.6790   -1.6290    0.0000 C.ar    1  LIG1        0.1107
      3 S           0.8790   -2.2170    0.0000 S.2     1  LIG1       -0.0659
      4 C           0.0630   -1.6420    0.0000 C.ar    1  LIG1        0.0560
      5 C           0.3630   -0.6960    0.0000 C.ar    1  LIG1        0.0883
      6 C          -0.2250    0.1040    0.0000 C.ar    1  LIG1        0.0183
      7 C          -1.2170   -0.0040    0.0000 C.ar    1  LIG1        0.0028
      8 C          -1.8170    0.8000    0.0000 C.ar    1  LIG1        0.0166
      9 C          -1.4130    1.7210    0.0000 C.ar    1  LIG1        0.0734
     10 N          -2.0040    2.5170    0.0000 N.am    1  LIG1       -0.1792
     11 C          -3.0000    2.3960    0.0000 C.2     1  LIG1        0.2456
     12 O          -3.5960    3.2080    0.0000 O.2     1  LIG1       -0.2730
     13 C          -3.3960    1.4830    0.0000 C.3     1  LIG1        0.0872
     14 C          -4.3960    1.3790    0.0000 C.3     1  LIG1        0.0096
     15 C          -4.5460    0.3750    0.0000 C.3     1  LIG1        0.0005
     16 C          -3.7580   -0.2500    0.0000 C.3     1  LIG1        0.0000
     17 C          -0.4250    1.8290    0.0000 C.ar    1  LIG1        0.0166
     18 C           0.1790    1.0250    0.0000 C.ar    1  LIG1        0.0028
     19 C           2.6380   -1.9290    0.0000 C.ar    1  LIG1        0.0238
     20 C           3.3750   -1.2500    0.0000 C.ar    1  LIG1        0.0020
     21 C           4.3210   -1.5500    0.0000 C.ar    1  LIG1        0.0001
     22 C           4.5420   -2.5210    0.0000 C.ar    1  LIG1        0.0000
     23 C           3.8170   -3.2040    0.0000 C.ar    1  LIG1        0.0001
     24 C           2.8500   -2.9000    0.0000 C.ar    1  LIG1        0.0020
@<TRIPOS>BOND
     1     1     2   ar
     2     1     5   ar
     3     2     3   ar
     4     2    19    1
     5     3     4   ar
     6     4     5   ar
     7     5     6    1
     8     6     7   ar
     9     6    18   ar
    10     7     8   ar
    11     8     9   ar
    12     9    10    1
    13     9    17   ar
    14    10    11   am
    15    11    12    2
    16    11    13    1
    17    13    14    1
    18    14    15    1
    19    15    16    1
    20    17    18   ar
    21    19    20   ar
    22    19    24   ar
    23    20    21   ar
    24    21    22   ar
    25    22    23   ar
    26    23    24   ar
