@<TRIPOS>MOLECULE
25993_ChemDiv_K978-0072
 22 25 0 0 0
SMALL
GASTEIGER
Energy = 0

@<TRIPOS>ATOM
      1 N           1.0210    0.0040    0.0000 N.am    1  LIG1       -0.2207
      2 C           1.4880    0.9210    0.0000 C.2     1  LIG1        0.2321
      3 C           2.4460    0.8880    0.0000 C.3     1  LIG1        0.0900
      4 C           2.7080   -0.0330    0.0000 C.3     1  LIG1        0.0900
      5 C           1.9170   -0.5630    0.0000 C.2     1  LIG1        0.2321
      6 O           1.8830   -1.5210    0.0000 O.2     1  LIG1       -0.2744
      7 C           3.6330   -0.2540    0.0000 C.3     1  LIG1        0.0311
      8 C           4.3040    0.4250    0.0000 C.2     1  LIG1       -0.0305
      9 C           4.0370    1.3500    0.0000 C.2     1  LIG1       -0.0305
     10 C           3.1000    1.5790    0.0000 C.3     1  LIG1        0.0311
     11 C           3.8290    0.9500    0.0000 C.3     1  LIG1        0.0096
     12 O           0.9460    1.7210    0.0000 O.2     1  LIG1       -0.2744
     13 C           0.0330   -0.2540    0.0000 C.3     1  LIG1        0.1858
     14 C          -0.8580    0.2920    0.0000 C.2     1  LIG1        0.2464
     15 N          -1.7250   -0.1960    0.0000 N.am    1  LIG1       -0.2781
     16 C          -2.5830    0.3040    0.0000 C.3     1  LIG1        0.0934
     17 C          -3.4540   -0.1880    0.0000 C.3     1  LIG1        0.0216
     18 C          -3.4580   -1.1960    0.0000 C.3     1  LIG1        0.0034
     19 C          -2.5830   -1.6960    0.0000 C.3     1  LIG1        0.0216
     20 C          -1.7170   -1.2000    0.0000 C.3     1  LIG1        0.0934
     21 C          -4.3080   -1.7170    0.0000 C.3     1  LIG1        0.0001
     22 O          -0.9000    1.3710    0.0000 O.2     1  LIG1       -0.2730
@<TRIPOS>BOND
     1     1     2   am
     2     1     5   am
     3     1    13    1
     4     2     3    1
     5     2    12    2
     6     3     4    1
     7     3    10    1
     8     4     5    1
     9     4     7    1
    10     5     6    2
    11     7     8    1
    12     7    11    1
    13     8     9    2
    14     9    10    1
    15    10    11    1
    16    13    14    1
    17    14    15   am
    18    14    22    2
    19    15    16    1
    20    15    20    1
    21    16    17    1
    22    17    18    1
    23    18    19    1
    24    18    21    1
    25    19    20    1
