@<TRIPOS>MOLECULE
26006_ChemDiv_C614-0187
 17 19 0 0 0
SMALL
GASTEIGER
Energy = 0

@<TRIPOS>ATOM
      1 N          -0.9580   -1.1790    0.0000 N.ar    1  LIG1        0.0972
      2 C          -0.3710   -0.3710    0.0000 C.ar    1  LIG1        0.3160
      3 C          -0.9580    0.4330    0.0000 C.ar    1  LIG1        0.1619
      4 N          -1.9080    0.1290    0.0000 N.ar    1  LIG1       -0.2404
      5 C          -1.9080   -0.8670    0.0000 C.ar    1  LIG1        0.3692
      6 C          -2.7710   -1.3670    0.0000 C.ar    1  LIG1        0.0965
      7 C          -3.6330   -0.8750    0.0000 C.ar    1  LIG1        0.0096
      8 C          -3.6330    0.1290    0.0000 C.ar    1  LIG1        0.0194
      9 C          -2.7710    0.6330    0.0000 C.ar    1  LIG1        0.0859
     10 C           0.6250   -0.3710    0.0000 C.ar    1  LIG1        0.0715
     11 C           1.1210    0.4960    0.0000 C.ar    1  LIG1        0.0016
     12 C           2.1210    0.5000    0.0000 C.ar    1  LIG1       -0.0256
     13 C           2.6290   -0.3710    0.0000 C.ar    1  LIG1       -0.0258
     14 C           2.1250   -1.2420    0.0000 C.ar    1  LIG1       -0.0044
     15 C           1.1250   -1.2420    0.0000 C.ar    1  LIG1        0.0058
     16 C           3.6290   -0.3710    0.0000 C.3     1  LIG1        0.0307
     17 C           2.6170    1.3710    0.0000 C.3     1  LIG1        0.0307
@<TRIPOS>BOND
     1     1     2   ar
     2     1     5   ar
     3     2     3   ar
     4     2    10    1
     5     3     4   ar
     6     4     5   ar
     7     4     9   ar
     8     5     6   ar
     9     6     7   ar
    10     7     8   ar
    11     8     9   ar
    12    10    11   ar
    13    10    15   ar
    14    11    12   ar
    15    12    13   ar
    16    12    17    1
    17    13    14   ar
    18    13    16    1
    19    14    15   ar
