@<TRIPOS>MOLECULE
26005_ChemDiv_2332-1031
 21 23 0 0 0
SMALL
GASTEIGER
Energy = 0

@<TRIPOS>ATOM
      1 N           1.2960   -0.7830    0.0000 N.ar    1  LIG1       -0.1428
      2 C           2.2330   -1.1540    0.0000 C.ar    1  LIG1        0.3381
      3 S           2.2080   -2.1210    0.0000 S.2     1  LIG1        0.0063
      4 C           1.2170   -2.4000    0.0000 C.ar    1  LIG1        0.1117
      5 C           0.6880   -1.5630    0.0000 C.ar    1  LIG1        0.2346
      6 C          -0.2920   -1.5630    0.0000 C.ar    1  LIG1        0.0643
      7 C          -0.7830   -0.7080    0.0000 C.ar    1  LIG1        0.0090
      8 C          -1.7880   -0.6790    0.0000 C.ar    1  LIG1        0.0371
      9 C          -2.2920   -1.5290    0.0000 C.ar    1  LIG1        0.1387
     10 C          -1.8130   -2.3880    0.0000 C.ar    1  LIG1        0.0371
     11 C          -0.7960   -2.4080    0.0000 C.ar    1  LIG1        0.0090
     12 O          -3.3080   -1.4880    0.0000 O.3     1  LIG1       -0.4714
     13 C          -3.8630   -2.3580    0.0000 C.3     1  LIG1        0.2525
     14 N           3.0670   -0.5880    0.0000 N.pl3   1  LIG1       -0.1469
     15 C           3.0250    0.4040    0.0000 C.ar    1  LIG1        0.0767
     16 C           3.8580    0.9580    0.0000 C.ar    1  LIG1        0.0167
     17 C           3.8080    1.9380    0.0000 C.ar    1  LIG1        0.0013
     18 C           2.9080    2.4130    0.0000 C.ar    1  LIG1        0.0001
     19 C           2.0630    1.8580    0.0000 C.ar    1  LIG1        0.0013
     20 C           2.1130    0.8670    0.0000 C.ar    1  LIG1        0.0167
     21 C           1.0540    0.1830    0.0000 C.3     1  LIG1        0.4097
@<TRIPOS>BOND
     1     1     2   ar
     2     1     5   ar
     3     1    21    1
     4     2     3   ar
     5     2    14    1
     6     3     4   ar
     7     4     5   ar
     8     5     6    1
     9     6     7   ar
    10     6    11   ar
    11     7     8   ar
    12     8     9   ar
    13     9    10   ar
    14     9    12    1
    15    10    11   ar
    16    12    13    1
    17    14    15    1
    18    15    16   ar
    19    15    20   ar
    20    16    17   ar
    21    17    18   ar
    22    18    19   ar
    23    19    20   ar
