@<TRIPOS>MOLECULE
26003_ChemDiv_0945-0277
 19 21 0 0 0
SMALL
GASTEIGER
Energy = 0

@<TRIPOS>ATOM
      1 N          -0.0250   -0.8710    0.0000 N.ar    1  LIG1       -0.2226
      2 C           0.5580   -0.0500    0.0000 C.ar    1  LIG1        0.1834
      3 S          -0.0250    0.7540    0.0000 S.2     1  LIG1       -0.0492
      4 C          -0.9540    0.4460    0.0000 C.ar    1  LIG1        0.0573
      5 C          -0.9540   -0.5630    0.0000 C.ar    1  LIG1        0.0898
      6 C          -1.8290   -1.0790    0.0000 C.ar    1  LIG1        0.0182
      7 C          -2.6960   -0.5630    0.0000 C.ar    1  LIG1        0.0015
      8 C          -3.5670   -1.0790    0.0000 C.ar    1  LIG1        0.0000
      9 C          -3.5670   -2.0790    0.0000 C.ar    1  LIG1        0.0000
     10 C          -2.6960   -2.5630    0.0000 C.ar    1  LIG1        0.0000
     11 C          -1.8290   -2.0670    0.0000 C.ar    1  LIG1        0.0015
     12 N           1.5460   -0.0500    0.0000 N.pl3   1  LIG1       -0.1889
     13 C           2.0380    0.8170    0.0000 C.ar    1  LIG1        0.0686
     14 C           3.0500    0.8170    0.0000 C.ar    1  LIG1       -0.0065
     15 C           3.5630   -0.0420    0.0000 C.3     1  LIG1        0.0324
     16 C           3.5420    1.6790    0.0000 C.ar    1  LIG1       -0.0030
     17 C           3.0500    2.5670    0.0000 C.ar    1  LIG1       -0.0002
     18 C           2.0380    2.5670    0.0000 C.ar    1  LIG1        0.0013
     19 C           1.5460    1.6880    0.0000 C.ar    1  LIG1        0.0163
@<TRIPOS>BOND
     1     1     2   ar
     2     1     5   ar
     3     2     3   ar
     4     2    12    1
     5     3     4   ar
     6     4     5   ar
     7     5     6    1
     8     6     7   ar
     9     6    11   ar
    10     7     8   ar
    11     8     9   ar
    12     9    10   ar
    13    10    11   ar
    14    12    13    1
    15    13    14   ar
    16    13    19   ar
    17    14    15    1
    18    14    16   ar
    19    16    17   ar
    20    17    18   ar
    21    18    19   ar
