@<TRIPOS>MOLECULE
26002_ChemDiv_8016-6476
 28 31 0 0 0
SMALL
GASTEIGER
Energy = 0

@<TRIPOS>ATOM
      1 C          -0.2630    0.5830    0.0000 C.ar    1  LIG1        0.0827
      2 C           0.7290    0.4710    0.0000 C.ar    1  LIG1        0.0987
      3 N           1.1500    1.3750    0.0000 N.ar    1  LIG1       -0.2306
      4 C           0.4170    2.0580    0.0000 C.ar    1  LIG1        0.1246
      5 N          -0.4580    1.5710    0.0000 N.ar    1  LIG1       -0.2922
      6 C          -1.4080    1.8920    0.0000 C.ar    1  LIG1        0.0811
      7 C          -2.1580    1.2330    0.0000 C.ar    1  LIG1        0.0192
      8 C          -1.9670    0.2500    0.0000 C.ar    1  LIG1        0.0062
      9 C          -1.0210   -0.0750    0.0000 C.ar    1  LIG1        0.0209
     10 C          -0.8210   -1.0540    0.0000 C.ar    1  LIG1        0.0415
     11 C          -1.5750   -1.7130    0.0000 C.ar    1  LIG1        0.1724
     12 C          -2.5210   -1.3920    0.0000 C.ar    1  LIG1        0.1724
     13 C          -2.7170   -0.4040    0.0000 C.ar    1  LIG1        0.0401
     14 O          -3.2710   -2.0500    0.0000 O.3     1  LIG1       -0.4684
     15 C          -4.2170   -1.7250    0.0000 C.3     1  LIG1        0.2526
     16 O          -1.3830   -2.6880    0.0000 O.3     1  LIG1       -0.4684
     17 C          -0.4330   -3.0130    0.0000 C.3     1  LIG1        0.2526
     18 C           0.5290    3.0420    0.0000 C.3     1  LIG1        0.0722
     19 C           1.2170   -0.4040    0.0000 C.ar    1  LIG1        0.0223
     20 C           2.2170   -0.4170    0.0000 C.ar    1  LIG1        0.0416
     21 C           2.7000   -1.2920    0.0000 C.ar    1  LIG1        0.1724
     22 C           2.1920   -2.1540    0.0000 C.ar    1  LIG1        0.1724
     23 C           1.1920   -2.1420    0.0000 C.ar    1  LIG1        0.0401
     24 C           0.7040   -1.2670    0.0000 C.ar    1  LIG1        0.0049
     25 O           2.6750   -3.0250    0.0000 O.3     1  LIG1       -0.4684
     26 C           3.6750   -3.0380    0.0000 C.3     1  LIG1        0.2526
     27 O           3.7000   -1.3040    0.0000 O.3     1  LIG1       -0.4684
     28 C           4.2130   -0.4500    0.0000 C.3     1  LIG1        0.2526
@<TRIPOS>BOND
     1     1     2   ar
     2     1     5   ar
     3     1     9   ar
     4     2     3   ar
     5     2    19    1
     6     3     4   ar
     7     4     5   ar
     8     4    18    1
     9     5     6   ar
    10     6     7   ar
    11     7     8   ar
    12     8     9   ar
    13     8    13   ar
    14     9    10   ar
    15    10    11   ar
    16    11    12   ar
    17    11    16    1
    18    12    13   ar
    19    12    14    1
    20    14    15    1
    21    16    17    1
    22    19    20   ar
    23    19    24   ar
    24    20    21   ar
    25    21    22   ar
    26    21    27    1
    27    22    23   ar
    28    22    25    1
    29    23    24   ar
    30    25    26    1
    31    27    28    1
