@<TRIPOS>MOLECULE
26001_ChemDiv_3359-0236
 38 43 0 0 0
SMALL
GASTEIGER
Energy = 0

@<TRIPOS>ATOM
      1 N          -0.1580    0.0170    0.0000 N.am    1  LIG1       -0.2228
      2 C          -0.6830   -0.7130    0.0000 C.2     1  LIG1        0.2323
      3 C          -1.5380   -0.4380    0.0000 C.3     1  LIG1        0.0944
      4 C          -1.5380    0.4500    0.0000 C.3     1  LIG1        0.0944
      5 C          -0.6830    0.7330    0.0000 C.2     1  LIG1        0.2323
      6 O          -0.4000    1.5710    0.0000 O.2     1  LIG1       -0.2744
      7 C          -4.7250    0.8250    0.0000 C.3     1  LIG1        0.0530
      8 C          -3.9580    0.3830    0.0000 C.ar    1  LIG1       -0.0216
      9 C          -3.9500   -0.5130    0.0000 C.ar    1  LIG1       -0.0216
     10 C          -4.7210   -0.9540    0.0000 C.3     1  LIG1        0.0530
     11 C          -5.4830   -0.5130    0.0000 C.ar    1  LIG1       -0.0216
     12 C          -5.4960    0.3830    0.0000 C.ar    1  LIG1       -0.0216
     13 C          -6.2460    0.8250    0.0000 C.ar    1  LIG1       -0.0042
     14 C          -7.0170    0.3670    0.0000 C.ar    1  LIG1       -0.0003
     15 C          -7.0170   -0.5250    0.0000 C.ar    1  LIG1       -0.0003
     16 C          -6.2460   -0.9540    0.0000 C.ar    1  LIG1       -0.0042
     17 C          -3.1830   -0.9540    0.0000 C.ar    1  LIG1       -0.0042
     18 C          -2.4130   -0.5000    0.0000 C.ar    1  LIG1       -0.0003
     19 C          -2.4250    0.3880    0.0000 C.ar    1  LIG1       -0.0003
     20 C          -3.1960    0.8290    0.0000 C.ar    1  LIG1       -0.0042
     21 O          -0.4000   -1.5670    0.0000 O.2     1  LIG1       -0.2744
     22 C           0.7330    0.0170    0.0000 C.3     1  LIG1        0.1613
     23 C           1.1830   -0.7540    0.0000 C.2     1  LIG1        0.2641
     24 N           2.0710   -0.7540    0.0000 N.am    1  LIG1       -0.1778
     25 C           3.0170   -0.7920    0.0000 C.ar    1  LIG1        0.0736
     26 C           3.5000   -1.5630    0.0000 C.ar    1  LIG1        0.0197
     27 C           4.3710   -1.5380    0.0000 C.ar    1  LIG1        0.0382
     28 C           4.7960   -0.7540    0.0000 C.ar    1  LIG1        0.1386
     29 C           4.3500    0.0170    0.0000 C.ar    1  LIG1        0.0382
     30 C           3.4420    0.0040    0.0000 C.ar    1  LIG1        0.0197
     31 O           5.6920   -0.7540    0.0000 O.3     1  LIG1       -0.4755
     32 C           6.1210   -1.5040    0.0000 C.3     1  LIG1        0.2055
     33 C           7.0170   -1.5040    0.0000 C.3     1  LIG1        0.0512
     34 O           0.5330   -1.3790    0.0000 O.2     1  LIG1       -0.2712
     35 C           1.1830    0.7960    0.0000 C.3     1  LIG1        0.0413
     36 C           2.0830    0.7960    0.0000 C.3     1  LIG1        0.0598
     37 S           2.5250    1.5460    0.0000 S.3     1  LIG1       -0.1393
     38 C           3.4210    1.5460    0.0000 C.3     1  LIG1        0.0692
@<TRIPOS>BOND
     1     1     2   am
     2     1     5   am
     3     1    22    1
     4     2     3    1
     5     2    21    2
     6     3     4    1
     7     3    10    1
     8     4     5    1
     9     4     7    1
    10     5     6    2
    11     7     8    1
    12     7    12    1
    13     8     9   ar
    14     8    20   ar
    15     9    10    1
    16     9    17   ar
    17    10    11    1
    18    11    12   ar
    19    11    16   ar
    20    12    13   ar
    21    13    14   ar
    22    14    15   ar
    23    15    16   ar
    24    17    18   ar
    25    18    19   ar
    26    19    20   ar
    27    22    23    1
    28    22    35    1
    29    23    24   am
    30    23    34    2
    31    24    25    1
    32    25    26   ar
    33    25    30   ar
    34    26    27   ar
    35    27    28   ar
    36    28    29   ar
    37    28    31    1
    38    29    30   ar
    39    31    32    1
    40    32    33    1
    41    35    36    1
    42    36    37    1
    43    37    38    1
