@<TRIPOS>MOLECULE
26008_ChemDiv_D264-0175
 30 34 0 0 0
SMALL
GASTEIGER
Energy = 0

@<TRIPOS>ATOM
      1 N           4.1460    0.9330    0.0000 N.ar    1  LIG1        0.0972
      2 C           3.2330    0.5250    0.0000 C.ar    1  LIG1        0.3160
      3 C           3.3460   -0.4710    0.0000 C.ar    1  LIG1        0.1619
      4 N           4.3210   -0.6670    0.0000 N.ar    1  LIG1       -0.2404
      5 C           4.8170    0.1960    0.0000 C.ar    1  LIG1        0.3692
      6 C           5.8080    0.2080    0.0000 C.ar    1  LIG1        0.0965
      7 C           6.3040   -0.6670    0.0000 C.ar    1  LIG1        0.0096
      8 C           5.8080   -1.5290    0.0000 C.ar    1  LIG1        0.0194
      9 C           4.8170   -1.5210    0.0000 C.ar    1  LIG1        0.0859
     10 C           2.3710    1.0210    0.0000 C.ar    1  LIG1        0.0731
     11 C           1.5040    0.5210    0.0000 C.ar    1  LIG1        0.0228
     12 C           0.6420    1.0130    0.0000 C.ar    1  LIG1        0.0736
     13 N          -0.2330    0.4960    0.0000 N.am    1  LIG1       -0.1792
     14 C          -1.1000    1.0080    0.0000 C.2     1  LIG1        0.2452
     15 C          -1.9630    0.4960    0.0000 C.3     1  LIG1        0.0820
     16 C          -1.9630   -0.5080    0.0000 C.3     1  LIG1        0.0307
     17 C          -2.8330   -0.9960    0.0000 C.3     1  LIG1        0.0941
     18 N          -3.7000   -0.5080    0.0000 N.pl3   1  LIG1       -0.2782
     19 C          -4.5710   -1.0040    0.0000 C.ar    1  LIG1        0.2202
     20 N          -5.4380   -0.5080    0.0000 N.ar    1  LIG1       -0.2121
     21 C          -6.3040   -1.0080    0.0000 C.ar    1  LIG1        0.1034
     22 C          -6.3040   -2.0080    0.0000 C.ar    1  LIG1        0.0414
     23 C          -5.4380   -2.5170    0.0000 C.ar    1  LIG1        0.1034
     24 N          -4.5710   -2.0080    0.0000 N.ar    1  LIG1       -0.2121
     25 C          -3.7080    0.4960    0.0000 C.3     1  LIG1        0.0941
     26 C          -2.8330    1.0080    0.0000 C.3     1  LIG1        0.0307
     27 O          -1.1000    2.0080    0.0000 O.2     1  LIG1       -0.2730
     28 C           0.6290    2.0080    0.0000 C.ar    1  LIG1        0.0166
     29 C           1.4920    2.5210    0.0000 C.ar    1  LIG1        0.0015
     30 C           2.3580    2.0210    0.0000 C.ar    1  LIG1        0.0063
@<TRIPOS>BOND
     1     1     2   ar
     2     1     5   ar
     3     2     3   ar
     4     2    10    1
     5     3     4   ar
     6     4     5   ar
     7     4     9   ar
     8     5     6   ar
     9     6     7   ar
    10     7     8   ar
    11     8     9   ar
    12    10    11   ar
    13    10    30   ar
    14    11    12   ar
    15    12    13    1
    16    12    28   ar
    17    13    14   am
    18    14    15    1
    19    14    27    2
    20    15    16    1
    21    15    26    1
    22    16    17    1
    23    17    18    1
    24    18    19    1
    25    18    25    1
    26    19    20   ar
    27    19    24   ar
    28    20    21   ar
    29    21    22   ar
    30    22    23   ar
    31    23    24   ar
    32    25    26    1
    33    28    29   ar
    34    29    30   ar
