@<TRIPOS>MOLECULE
26004_ChemDiv_8016-8224
 34 39 0 0 0
SMALL
GASTEIGER
Energy = 0

@<TRIPOS>ATOM
      1 C          -1.5460    1.1170    0.0000 C.ar    1  LIG1        0.1313
      2 C          -2.0460    0.2500    0.0000 C.ar    1  LIG1        0.3502
      3 O          -3.0460    0.2500    0.0000 O.2     1  LIG1       -0.4209
      4 C          -3.5540    1.1170    0.0000 C.ar    1  LIG1        0.1487
      5 C          -3.0500    1.9790    0.0000 C.ar    1  LIG1        0.0350
      6 C          -2.0500    1.9880    0.0000 C.ar    1  LIG1        0.0141
      7 C          -3.5630    2.8380    0.0000 C.ar    1  LIG1        0.0029
      8 C          -4.5540    2.8420    0.0000 C.ar    1  LIG1        0.0002
      9 C          -5.0500    1.9750    0.0000 C.ar    1  LIG1        0.0031
     10 C          -4.5500    1.1130    0.0000 C.ar    1  LIG1        0.0376
     11 C          -5.0500    3.7000    0.0000 C.ar    1  LIG1        0.0000
     12 C          -4.5540    4.5460    0.0000 C.ar    1  LIG1        0.0000
     13 C          -3.5540    4.5540    0.0000 C.ar    1  LIG1        0.0000
     14 C          -3.0580    3.7000    0.0000 C.ar    1  LIG1        0.0001
     15 O          -1.5380   -0.6170    0.0000 O.2     1  LIG1       -0.2443
     16 C          -0.5460    1.1250    0.0000 C.2     1  LIG1        0.2753
     17 N          -0.0380    0.2630    0.0000 N.am    1  LIG1       -0.1753
     18 C           0.9630    0.2630    0.0000 C.ar    1  LIG1        0.0739
     19 C           1.4670   -0.6040    0.0000 C.ar    1  LIG1        0.0228
     20 C           2.4670   -0.6000    0.0000 C.ar    1  LIG1        0.0731
     21 C           2.9670   -1.4670    0.0000 C.ar    1  LIG1        0.3160
     22 N           2.5630   -2.3790    0.0000 N.ar    1  LIG1        0.0968
     23 C           3.3080   -3.0420    0.0000 C.ar    1  LIG1        0.3650
     24 N           4.1710   -2.5420    0.0000 N.ar    1  LIG1       -0.2407
     25 C           3.9580   -1.5670    0.0000 C.ar    1  LIG1        0.1619
     26 C           5.0420   -3.0420    0.0000 C.ar    1  LIG1        0.0859
     27 C           5.0460   -4.0500    0.0000 C.ar    1  LIG1        0.0191
     28 C           4.1710   -4.5540    0.0000 C.ar    1  LIG1        0.0050
     29 C           3.3080   -4.0500    0.0000 C.ar    1  LIG1        0.0670
     30 C           2.4380   -4.5500    0.0000 C.3     1  LIG1        0.0393
     31 C           2.9670    0.2750    0.0000 C.ar    1  LIG1        0.0063
     32 C           2.4670    1.1380    0.0000 C.ar    1  LIG1        0.0015
     33 C           1.4630    1.1380    0.0000 C.ar    1  LIG1        0.0166
     34 O          -0.0460    1.9920    0.0000 O.2     1  LIG1       -0.2678
@<TRIPOS>BOND
     1     1     2   ar
     2     1     6   ar
     3     1    16    1
     4     2     3   ar
     5     2    15    2
     6     3     4   ar
     7     4     5   ar
     8     4    10   ar
     9     5     6   ar
    10     5     7   ar
    11     7     8   ar
    12     7    14   ar
    13     8     9   ar
    14     8    11   ar
    15     9    10   ar
    16    11    12   ar
    17    12    13   ar
    18    13    14   ar
    19    16    17   am
    20    16    34    2
    21    17    18    1
    22    18    19   ar
    23    18    33   ar
    24    19    20   ar
    25    20    21    1
    26    20    31   ar
    27    21    22   ar
    28    21    25   ar
    29    22    23   ar
    30    23    24   ar
    31    23    29   ar
    32    24    25   ar
    33    24    26   ar
    34    26    27   ar
    35    27    28   ar
    36    28    29   ar
    37    29    30    1
    38    31    32   ar
    39    32    33   ar
