@<TRIPOS>MOLECULE
26009_ChemDiv_5186-0453
 24 26 0 0 0
SMALL
GASTEIGER
Energy = 0

@<TRIPOS>ATOM
      1 N          -0.7830    1.0500    0.0000 N.ar    1  LIG1       -0.2225
      2 C          -1.4210    0.2460    0.0000 C.ar    1  LIG1        0.0929
      3 C          -2.4210    0.3040    0.0000 C.ar    1  LIG1        0.0573
      4 C          -2.9540   -0.5460    0.0000 C.ar    1  LIG1        0.2003
      5 C          -3.9710   -0.5040    0.0000 C.ar    1  LIG1        0.0840
      6 C          -4.4130    0.3880    0.0000 C.ar    1  LIG1        0.1989
      7 C          -3.8880    1.2380    0.0000 C.ar    1  LIG1        0.0423
      8 C          -2.9130    1.1790    0.0000 C.ar    1  LIG1        0.0080
      9 O          -5.4080    0.4130    0.0000 O.3     1  LIG1       -0.2865
     10 O          -2.4960   -1.4170    0.0000 O.3     1  LIG1       -0.2864
     11 C          -0.8460   -0.5830    0.0000 C.ar    1  LIG1        0.0574
     12 S           0.0960   -0.3130    0.0000 S.2     1  LIG1       -0.0492
     13 C           0.1500    0.6830    0.0000 C.ar    1  LIG1        0.1834
     14 N           0.9790    1.2420    0.0000 N.pl3   1  LIG1       -0.1885
     15 C           1.8710    0.8210    0.0000 C.ar    1  LIG1        0.0758
     16 C           2.7000    1.3790    0.0000 C.ar    1  LIG1        0.0586
     17 C           3.6000    0.9330    0.0000 C.ar    1  LIG1        0.1980
     18 C           3.6630   -0.0830    0.0000 C.ar    1  LIG1        0.0530
     19 C           4.5750   -0.5040    0.0000 C.2     1  LIG1        0.0760
     20 O           5.4040    0.0540    0.0000 O.co2   1  LIG1       -0.5445
     21 O           4.6380   -1.5000    0.0000 O.co2   1  LIG1       -0.5445
     22 C           2.8330   -0.6290    0.0000 C.ar    1  LIG1        0.0057
     23 C           1.9420   -0.1750    0.0000 C.ar    1  LIG1        0.0168
     24 O           4.4290    1.5040    0.0000 O.3     1  LIG1       -0.2865
@<TRIPOS>BOND
     1     1     2   ar
     2     1    13   ar
     3     2     3    1
     4     2    11   ar
     5     3     4   ar
     6     3     8   ar
     7     4     5   ar
     8     4    10    1
     9     5     6   ar
    10     6     7   ar
    11     6     9    1
    12     7     8   ar
    13    11    12   ar
    14    12    13   ar
    15    13    14    1
    16    14    15    1
    17    15    16   ar
    18    15    23   ar
    19    16    17   ar
    20    17    18   ar
    21    17    24    1
    22    18    19    1
    23    18    22   ar
    24    19    20   ar
    25    19    21   ar
    26    22    23   ar
