@<TRIPOS>MOLECULE
26015_ChemDiv_7790-0884
 22 24 0 0 0
SMALL
GASTEIGER
Energy = 0

@<TRIPOS>ATOM
      1 C           0.9330   -0.5500    0.0000 C.ar    1  LIG1        0.1832
      2 N           0.2670    0.2040    0.0000 N.ar    1  LIG1       -0.2229
      3 C          -0.6420   -0.2040    0.0000 C.ar    1  LIG1        0.0853
      4 C          -0.5330   -1.2040    0.0000 C.ar    1  LIG1        0.0279
      5 S           0.4330   -1.4130    0.0000 S.2     1  LIG1       -0.0541
      6 C          -1.2880   -1.8710    0.0000 C.3     1  LIG1        0.0398
      7 C          -1.5130    0.2830    0.0000 C.ar    1  LIG1        0.0181
      8 C          -1.5130    1.2960    0.0000 C.ar    1  LIG1        0.0046
      9 C          -2.3920    1.7960    0.0000 C.ar    1  LIG1        0.0369
     10 C          -3.2460    1.2960    0.0000 C.ar    1  LIG1        0.1387
     11 C          -3.2460    0.2830    0.0000 C.ar    1  LIG1        0.0369
     12 C          -2.3790   -0.2040    0.0000 C.ar    1  LIG1        0.0046
     13 O          -4.1080    1.7960    0.0000 O.3     1  LIG1       -0.4714
     14 C          -4.1080    2.7830    0.0000 C.3     1  LIG1        0.2525
     15 N           1.9250   -0.4420    0.0000 N.pl3   1  LIG1       -0.1861
     16 C           2.5170   -1.2330    0.0000 C.ar    1  LIG1        0.1030
     17 C           3.5250   -1.2330    0.0000 C.ar    1  LIG1        0.0973
     18 N           3.8420   -2.2000    0.0000 N.ar    1  LIG1       -0.1513
     19 N           3.0290   -2.7790    0.0000 N.ar    1  LIG1       -0.1513
     20 C           2.2130   -2.2000    0.0000 C.ar    1  LIG1        0.0973
     21 C           1.2710   -2.5080    0.0000 C.3     1  LIG1        0.0554
     22 C           4.1040   -0.4290    0.0000 C.3     1  LIG1        0.0554
@<TRIPOS>BOND
     1     1     2   ar
     2     1     5   ar
     3     1    15    1
     4     2     3   ar
     5     3     4   ar
     6     3     7    1
     7     4     5   ar
     8     4     6    1
     9     7     8   ar
    10     7    12   ar
    11     8     9   ar
    12     9    10   ar
    13    10    11   ar
    14    10    13    1
    15    11    12   ar
    16    13    14    1
    17    15    16    1
    18    16    17   ar
    19    16    20   ar
    20    17    18   ar
    21    17    22    1
    22    18    19   ar
    23    19    20   ar
    24    20    21    1
