@<TRIPOS>MOLECULE
26012_ChemDiv_2141-0313
 26 28 0 0 0
SMALL
GASTEIGER
Energy = 0

@<TRIPOS>ATOM
      1 N           2.4170   -1.1460    0.0000 N.am    1  LIG1       -0.1666
      2 C           2.8380   -2.0130    0.0000 C.2     1  LIG1        0.2907
      3 S           2.1250   -2.7330    0.0000 S.3     1  LIG1       -0.0250
      4 C           1.2290   -2.2750    0.0000 C.2     1  LIG1        0.0877
      5 C           1.4210   -1.2710    0.0000 C.2     1  LIG1        0.2657
      6 O           0.7380   -0.5630    0.0000 O.2     1  LIG1       -0.2688
      7 C           0.3040   -2.5880    0.0000 C.2     1  LIG1        0.0113
      8 C          -0.4540   -1.9500    0.0000 C.ar    1  LIG1        0.0039
      9 C          -1.4250   -2.2960    0.0000 C.ar    1  LIG1        0.0401
     10 C          -2.1540   -1.6250    0.0000 C.ar    1  LIG1        0.1724
     11 C          -1.9670   -0.6500    0.0000 C.ar    1  LIG1        0.1724
     12 C          -0.9960   -0.3250    0.0000 C.ar    1  LIG1        0.0400
     13 C          -0.2580   -0.9750    0.0000 C.ar    1  LIG1        0.0033
     14 O          -2.7290    0.0000    0.0000 O.3     1  LIG1       -0.4684
     15 C          -2.5630    0.9750    0.0000 C.3     1  LIG1        0.2526
     16 O          -3.1040   -1.9210    0.0000 O.3     1  LIG1       -0.4684
     17 C          -3.8330   -1.2670    0.0000 C.3     1  LIG1        0.2526
     18 O           3.8290   -2.1670    0.0000 O.2     1  LIG1       -0.2618
     19 C           2.9460   -0.2710    0.0000 C.3     1  LIG1        0.2521
     20 N           2.4710    0.5960    0.0000 N.4     1  LIG1        0.3938
     21 C           3.0460    1.4080    0.0000 C.3     1  LIG1        0.1410
     22 C           2.7580    2.4080    0.0000 C.3     1  LIG1        0.0628
     23 C           1.8210    2.7380    0.0000 C.3     1  LIG1        0.0063
     24 C           0.9420    2.2750    0.0000 C.3     1  LIG1        0.0063
     25 C           0.7790    1.2750    0.0000 C.3     1  LIG1        0.0628
     26 C           1.4750    0.5420    0.0000 C.3     1  LIG1        0.1410
@<TRIPOS>BOND
     1     1     2   am
     2     1     5   am
     3     1    19    1
     4     2     3    1
     5     2    18    2
     6     3     4    1
     7     4     5    1
     8     4     7    2
     9     5     6    2
    10     7     8    1
    11     8     9   ar
    12     8    13   ar
    13     9    10   ar
    14    10    11   ar
    15    10    16    1
    16    11    12   ar
    17    11    14    1
    18    12    13   ar
    19    14    15    1
    20    16    17    1
    21    19    20    1
    22    20    21    1
    23    20    26    1
    24    21    22    1
    25    22    23    1
    26    23    24    1
    27    24    25    1
    28    25    26    1
