@<TRIPOS>MOLECULE
26011_ChemDiv_7100-0639
 22 24 0 0 0
SMALL
GASTEIGER
Energy = 0

@<TRIPOS>ATOM
      1 C           0.7330   -1.8000    0.0000 C.ar    1  LIG1        0.1860
      2 N           0.4290   -0.8500    0.0000 N.ar    1  LIG1       -0.2225
      3 C          -0.5710   -0.8500    0.0000 C.ar    1  LIG1        0.0899
      4 C          -0.8710   -1.8000    0.0000 C.ar    1  LIG1        0.0573
      5 S          -0.0670   -2.3880    0.0000 S.2     1  LIG1       -0.0492
      6 C          -1.1500   -0.0380    0.0000 C.ar    1  LIG1        0.0214
      7 C          -2.1420   -0.1380    0.0000 C.ar    1  LIG1        0.0416
      8 C          -2.7420    0.6580    0.0000 C.ar    1  LIG1        0.1724
      9 C          -2.3330    1.5830    0.0000 C.ar    1  LIG1        0.1724
     10 C          -1.3330    1.6960    0.0000 C.ar    1  LIG1        0.0401
     11 C          -0.7420    0.8830    0.0000 C.ar    1  LIG1        0.0048
     12 O          -2.9210    2.3920    0.0000 O.3     1  LIG1       -0.4684
     13 C          -3.9170    2.2920    0.0000 C.3     1  LIG1        0.2526
     14 O          -3.7330    0.5540    0.0000 O.3     1  LIG1       -0.4684
     15 C          -4.1330   -0.3580    0.0000 C.3     1  LIG1        0.2526
     16 N           1.6880   -2.1080    0.0000 N.pl3   1  LIG1       -0.1527
     17 C           2.4380   -1.4330    0.0000 C.ar    1  LIG1        0.2426
     18 N           2.2250   -0.4670    0.0000 N.ar    1  LIG1       -0.2106
     19 C           2.9540    0.1960    0.0000 C.ar    1  LIG1        0.1035
     20 C           3.9170   -0.1000    0.0000 C.ar    1  LIG1        0.0414
     21 C           4.1290   -1.0790    0.0000 C.ar    1  LIG1        0.1035
     22 N           3.3880   -1.7580    0.0000 N.ar    1  LIG1       -0.2106
@<TRIPOS>BOND
     1     1     2   ar
     2     1     5   ar
     3     1    16    1
     4     2     3   ar
     5     3     4   ar
     6     3     6    1
     7     4     5   ar
     8     6     7   ar
     9     6    11   ar
    10     7     8   ar
    11     8     9   ar
    12     8    14    1
    13     9    10   ar
    14     9    12    1
    15    10    11   ar
    16    12    13    1
    17    14    15    1
    18    16    17    1
    19    17    18   ar
    20    17    22   ar
    21    18    19   ar
    22    19    20   ar
    23    20    21   ar
    24    21    22   ar
