@<TRIPOS>MOLECULE
26013_ChemDiv_7100-1513
 23 25 0 0 0
SMALL
GASTEIGER
Energy = 0

@<TRIPOS>ATOM
      1 C          -2.2960    0.3670    0.0000 C.ar    1  LIG1        0.0639
      2 C          -1.7130   -0.4880    0.0000 C.ar    1  LIG1        0.0970
      3 N          -0.6830   -0.4880    0.0000 N.ar    1  LIG1       -0.2220
      4 C          -0.3790   -1.3790    0.0000 C.ar    1  LIG1        0.1835
      5 S          -1.1830   -1.9420    0.0000 S.2     1  LIG1       -0.0492
      6 C          -2.0170   -1.3790    0.0000 C.ar    1  LIG1        0.0578
      7 N           0.5880   -1.6790    0.0000 N.pl3   1  LIG1       -0.1885
      8 C           1.3460   -1.0500    0.0000 C.ar    1  LIG1        0.0758
      9 C           2.3290   -1.3330    0.0000 C.ar    1  LIG1        0.0586
     10 C           3.0920   -0.7040    0.0000 C.ar    1  LIG1        0.1980
     11 C           2.8710    0.2330    0.0000 C.ar    1  LIG1        0.0530
     12 C           3.6170    0.8710    0.0000 C.2     1  LIG1        0.0760
     13 O           3.3960    1.8080    0.0000 O.co2   1  LIG1       -0.5445
     14 O           4.5960    0.5830    0.0000 O.co2   1  LIG1       -0.5445
     15 C           1.8920    0.5170    0.0000 C.ar    1  LIG1        0.0057
     16 C           1.1500   -0.1130    0.0000 C.ar    1  LIG1        0.0168
     17 O           4.0500   -1.0040    0.0000 O.3     1  LIG1       -0.2865
     18 C          -1.9710    1.3250    0.0000 C.ar    1  LIG1        0.0689
     19 N          -2.7750    1.9460    0.0000 N.ar    1  LIG1       -0.2258
     20 C          -3.6290    1.3500    0.0000 C.ar    1  LIG1        0.2003
     21 S          -3.3250    0.3670    0.0000 S.2     1  LIG1       -0.0472
     22 N          -4.6000    1.6790    0.0000 N.pl3   1  LIG1       -0.0998
     23 C          -0.9960    1.6170    0.0000 C.3     1  LIG1        0.0527
@<TRIPOS>BOND
     1     1     2    1
     2     1    18   ar
     3     1    21   ar
     4     2     3   ar
     5     2     6   ar
     6     3     4   ar
     7     4     5   ar
     8     4     7    1
     9     5     6   ar
    10     7     8    1
    11     8     9   ar
    12     8    16   ar
    13     9    10   ar
    14    10    11   ar
    15    10    17    1
    16    11    12    1
    17    11    15   ar
    18    12    13   ar
    19    12    14   ar
    20    15    16   ar
    21    18    19   ar
    22    18    23    1
    23    19    20   ar
    24    20    21   ar
    25    20    22    1
