@<TRIPOS>MOLECULE
26019_ChemDiv_1501-1161
 14 15 0 0 0
SMALL
GASTEIGER
Energy = 0

@<TRIPOS>ATOM
      1 C           0.5500    0.0580    0.0000 C.ar    1  LIG1        0.0741
      2 C           1.1170   -0.7420    0.0000 C.ar    1  LIG1        0.1223
      3 S           0.5500   -1.5540    0.0000 S.2     1  LIG1       -0.0736
      4 C          -0.4130   -1.2710    0.0000 C.ar    1  LIG1        0.0047
      5 C          -0.4130   -0.2580    0.0000 C.ar    1  LIG1       -0.0139
      6 C          -1.2670    0.2540    0.0000 C.3     1  LIG1        0.0268
      7 C          -2.1420   -0.2580    0.0000 C.3     1  LIG1        0.0050
      8 C          -2.1420   -1.2710    0.0000 C.3     1  LIG1        0.0055
      9 C          -1.2670   -1.7540    0.0000 C.3     1  LIG1        0.0327
     10 N           2.1380   -0.6790    0.0000 N.pl3   1  LIG1       -0.1208
     11 C           0.8920    0.9880    0.0000 C.2     1  LIG1        0.2663
     12 O           1.8540    1.1920    0.0000 O.2     1  LIG1       -0.2683
     13 N           0.2330    1.7580    0.0000 N.am    1  LIG1       -0.1997
     14 C          -0.7290    1.5630    0.0000 C.3     1  LIG1        0.1388
@<TRIPOS>BOND
     1     1     2   ar
     2     1     5   ar
     3     1    11    1
     4     2     3   ar
     5     2    10    1
     6     3     4   ar
     7     4     5   ar
     8     4     9    1
     9     5     6    1
    10     6     7    1
    11     7     8    1
    12     8     9    1
    13    11    12    2
    14    11    13   am
    15    13    14    1
