@<TRIPOS>MOLECULE
26021_ChemDiv_1991-1123
 34 38 0 0 0
SMALL
GASTEIGER
Energy = 0

@<TRIPOS>ATOM
      1 S           1.0420   -1.5790    0.0000 S.O2    1  LIG1        0.0652
      2 C           1.9170   -2.0710    0.0000 C.ar    1  LIG1        0.1419
      3 C           1.9330   -3.0500    0.0000 C.ar    1  LIG1        0.1273
      4 N           1.1880   -3.7170    0.0000 N.ar    1  LIG1       -0.1888
      5 S           1.6330   -4.6210    0.0000 S.2     1  LIG1        0.1165
      6 N           2.6130   -4.5000    0.0000 N.ar    1  LIG1       -0.1901
      7 C           2.7920   -3.5210    0.0000 C.ar    1  LIG1        0.1102
      8 C           3.6580   -3.0380    0.0000 C.ar    1  LIG1        0.0214
      9 C           3.6250   -2.0540    0.0000 C.ar    1  LIG1        0.0030
     10 C           2.7710   -1.5790    0.0000 C.ar    1  LIG1        0.0216
     11 N           0.1830   -1.0960    0.0000 N.3     1  LIG1       -0.1480
     12 C           0.0630   -0.1170    0.0000 C.3     1  LIG1        0.1575
     13 C           0.7960    0.5580    0.0000 C.2     1  LIG1        0.2622
     14 N           0.5790    1.5630    0.0000 N.am    1  LIG1       -0.1712
     15 C          -0.3830    1.8790    0.0000 C.ar    1  LIG1        0.1084
     16 C          -0.6920    2.8670    0.0000 C.ar    1  LIG1        0.0933
     17 C          -1.7000    2.8420    0.0000 C.ar    1  LIG1       -0.0121
     18 C          -2.0040    1.8790    0.0000 C.ar    1  LIG1        0.0048
     19 S          -1.1710    1.2960    0.0000 S.2     1  LIG1       -0.0749
     20 C          -2.9710    1.6670    0.0000 C.3     1  LIG1        0.0327
     21 C          -3.6630    2.3960    0.0000 C.3     1  LIG1        0.0055
     22 C          -3.3420    3.3460    0.0000 C.3     1  LIG1        0.0050
     23 C          -2.3580    3.5710    0.0000 C.3     1  LIG1        0.0268
     24 C          -0.0790    3.6960    0.0000 C.2     1  LIG1        0.3427
     25 O          -0.5080    4.6210    0.0000 O.2     1  LIG1       -0.2448
     26 O           0.9170    3.5710    0.0000 O.3     1  LIG1       -0.4454
     27 C           1.3290    2.6500    0.0000 C.3     1  LIG1        0.2089
     28 C           2.3460    2.5380    0.0000 C.3     1  LIG1        0.0513
     29 O           1.7540    0.2380    0.0000 O.2     1  LIG1       -0.2715
     30 C          -0.9330    0.0630    0.0000 C.3     1  LIG1        0.0286
     31 C          -1.3880   -0.8290    0.0000 C.3     1  LIG1        0.0211
     32 C          -0.7040   -1.5250    0.0000 C.3     1  LIG1        0.0964
     33 O           1.5380   -0.7170    0.0000 O.2     1  LIG1       -0.1527
     34 O           0.5630   -2.4500    0.0000 O.2     1  LIG1       -0.1527
@<TRIPOS>BOND
     1     1     2    1
     2     1    11    1
     3     1    33    2
     4     1    34    2
     5     2     3   ar
     6     2    10   ar
     7     3     4   ar
     8     3     7   ar
     9     4     5   ar
    10     5     6   ar
    11     6     7   ar
    12     7     8   ar
    13     8     9   ar
    14     9    10   ar
    15    11    12    1
    16    11    32    1
    17    12    13    1
    18    12    30    1
    19    13    14   am
    20    13    29    2
    21    14    15    1
    22    15    16   ar
    23    15    19   ar
    24    16    17   ar
    25    16    24    1
    26    17    18   ar
    27    17    23    1
    28    18    19   ar
    29    18    20    1
    30    20    21    1
    31    21    22    1
    32    22    23    1
    33    24    25    2
    34    24    26    1
    35    26    27    1
    36    27    28    1
    37    30    31    1
    38    31    32    1
