@<TRIPOS>MOLECULE
26027_ChemDiv_4386-4722
 23 24 0 0 0
SMALL
GASTEIGER
Energy = 0

@<TRIPOS>ATOM
      1 C          -0.7130   -0.7420    0.0000 C.ar    1  LIG1        0.1083
      2 C          -1.5040   -0.1330    0.0000 C.ar    1  LIG1        0.0933
      3 C          -2.3290   -0.7250    0.0000 C.ar    1  LIG1       -0.0121
      4 C          -2.0170   -1.6460    0.0000 C.ar    1  LIG1        0.0048
      5 S          -1.0290   -1.6920    0.0000 S.2     1  LIG1       -0.0749
      6 C          -2.6960   -2.3920    0.0000 C.3     1  LIG1        0.0327
      7 C          -3.6670   -2.1750    0.0000 C.3     1  LIG1        0.0052
      8 C          -3.9670   -1.2130    0.0000 C.3     1  LIG1        0.0050
      9 C          -3.3000   -0.4960    0.0000 C.3     1  LIG1        0.0268
     10 C          -4.3380   -2.9080    0.0000 C.3     1  LIG1        0.0004
     11 C          -1.5040    0.8750    0.0000 C.2     1  LIG1        0.3427
     12 O          -0.6210    1.3670    0.0000 O.2     1  LIG1       -0.2448
     13 O          -2.3670    1.3670    0.0000 O.3     1  LIG1       -0.4454
     14 C          -2.3670    2.3880    0.0000 C.3     1  LIG1        0.2089
     15 C          -3.2460    2.9130    0.0000 C.3     1  LIG1        0.0513
     16 N           0.2670   -0.4500    0.0000 N.am    1  LIG1       -0.1724
     17 C           0.9830   -1.1540    0.0000 C.2     1  LIG1        0.2464
     18 O           0.7250   -2.1170    0.0000 O.2     1  LIG1       -0.2730
     19 C           1.9460   -0.8790    0.0000 C.3     1  LIG1        0.0931
     20 C           2.6500   -1.5670    0.0000 C.3     1  LIG1        0.0513
     21 C           3.6040   -1.3210    0.0000 C.2     1  LIG1        0.0508
     22 O           3.8460   -0.3630    0.0000 O.co2   1  LIG1       -0.5492
     23 O           4.3330   -2.0130    0.0000 O.co2   1  LIG1       -0.5492
@<TRIPOS>BOND
     1     1     2   ar
     2     1     5   ar
     3     1    16    1
     4     2     3   ar
     5     2    11    1
     6     3     4   ar
     7     3     9    1
     8     4     5   ar
     9     4     6    1
    10     6     7    1
    11     7     8    1
    12     7    10    1
    13     8     9    1
    14    11    12    2
    15    11    13    1
    16    13    14    1
    17    14    15    1
    18    16    17   am
    19    17    18    2
    20    17    19    1
    21    19    20    1
    22    20    21    1
    23    21    22   ar
    24    21    23   ar
