@<TRIPOS>MOLECULE
26035_ChemDiv_7790-1721
 24 26 0 0 0
SMALL
GASTEIGER
Energy = 0

@<TRIPOS>ATOM
      1 C           0.3330    0.9420    0.0000 C.ar    1  LIG1        0.1832
      2 N          -0.4920    1.5460    0.0000 N.ar    1  LIG1       -0.2229
      3 C          -1.2920    0.9420    0.0000 C.ar    1  LIG1        0.0856
      4 C          -0.9880   -0.0040    0.0000 C.ar    1  LIG1        0.0331
      5 S           0.0170   -0.0040    0.0000 S.2     1  LIG1       -0.0538
      6 C          -1.5750   -0.8130    0.0000 C.3     1  LIG1        0.0762
      7 C          -1.1710   -1.7290    0.0000 C.2     1  LIG1        0.0553
      8 O          -0.1750   -1.8380    0.0000 O.co2   1  LIG1       -0.5488
      9 O          -1.7580   -2.5420    0.0000 O.co2   1  LIG1       -0.5488
     10 C          -2.2420    1.2580    0.0000 C.ar    1  LIG1        0.0179
     11 C          -2.9670    0.5920    0.0000 C.ar    1  LIG1        0.0015
     12 C          -3.9170    0.8960    0.0000 C.ar    1  LIG1        0.0000
     13 C          -4.1290    1.8670    0.0000 C.ar    1  LIG1        0.0000
     14 C          -3.3880    2.5460    0.0000 C.ar    1  LIG1        0.0000
     15 C          -2.4420    2.2290    0.0000 C.ar    1  LIG1        0.0015
     16 N           1.2880    1.2580    0.0000 N.pl3   1  LIG1       -0.1855
     17 C           2.0250    0.5920    0.0000 C.ar    1  LIG1        0.1064
     18 C           2.9750    0.8960    0.0000 C.ar    1  LIG1        0.1539
     19 O           3.1790    1.8670    0.0000 O.3     1  LIG1       -0.4701
     20 C           4.1250    2.1830    0.0000 C.3     1  LIG1        0.2525
     21 C           3.7210    0.2290    0.0000 C.ar    1  LIG1        0.0383
     22 C           3.5080   -0.7670    0.0000 C.ar    1  LIG1        0.0032
     23 C           2.5540   -1.0670    0.0000 C.ar    1  LIG1        0.0015
     24 C           1.8210   -0.3880    0.0000 C.ar    1  LIG1        0.0197
@<TRIPOS>BOND
     1     1     2   ar
     2     1     5   ar
     3     1    16    1
     4     2     3   ar
     5     3     4   ar
     6     3    10    1
     7     4     5   ar
     8     4     6    1
     9     6     7    1
    10     7     8   ar
    11     7     9   ar
    12    10    11   ar
    13    10    15   ar
    14    11    12   ar
    15    12    13   ar
    16    13    14   ar
    17    14    15   ar
    18    16    17    1
    19    17    18   ar
    20    17    24   ar
    21    18    19    1
    22    18    21   ar
    23    19    20    1
    24    21    22   ar
    25    22    23   ar
    26    23    24   ar
