@<TRIPOS>MOLECULE
26034_ChemDiv_3229-2397
 25 26 0 0 0
SMALL
GASTEIGER
Energy = 0

@<TRIPOS>ATOM
      1 N          -3.0290    0.7500    0.0000 N.am    1  LIG1       -0.2386
      2 C          -3.3380   -0.1960    0.0000 C.2     1  LIG1        0.1215
      3 S          -2.5290   -0.7790    0.0000 S.3     1  LIG1       -0.0604
      4 C          -1.7290   -0.1960    0.0000 C.2     1  LIG1        0.0849
      5 C          -2.0290    0.7500    0.0000 C.2     1  LIG1        0.2598
      6 O          -1.5290    1.6290    0.0000 O.2     1  LIG1       -0.2690
      7 C          -0.8540   -0.6960    0.0000 C.2     1  LIG1        0.0112
      8 C           0.1460   -0.6960    0.0000 C.ar    1  LIG1        0.0039
      9 C           0.6330    0.1750    0.0000 C.ar    1  LIG1        0.0401
     10 C           1.6420    0.1670    0.0000 C.ar    1  LIG1        0.1724
     11 C           2.1330   -0.7000    0.0000 C.ar    1  LIG1        0.1728
     12 O           3.1290   -0.7000    0.0000 O.3     1  LIG1       -0.4663
     13 C           3.6290   -1.5630    0.0000 C.3     1  LIG1        0.2470
     14 C           4.6290   -1.5750    0.0000 C.2     1  LIG1        0.0940
     15 O           5.1290   -2.4420    0.0000 O.co2   1  LIG1       -0.5454
     16 O           5.1290   -0.7130    0.0000 O.co2   1  LIG1       -0.5454
     17 C           1.6330   -1.5630    0.0000 C.ar    1  LIG1        0.0401
     18 C           0.6330   -1.5580    0.0000 C.ar    1  LIG1        0.0033
     19 O           2.1460    1.0290    0.0000 O.3     1  LIG1       -0.4684
     20 C           1.6460    1.9000    0.0000 C.3     1  LIG1        0.2526
     21 S          -4.2080   -0.6880    0.0000 S.2     1  LIG1       -0.0272
     22 C          -3.6170    1.5670    0.0000 C.3     1  LIG1        0.1410
     23 C          -4.6170    1.5670    0.0000 C.2     1  LIG1        0.0708
     24 O          -5.1330    0.7040    0.0000 O.co2   1  LIG1       -0.5474
     25 O          -5.1170    2.4460    0.0000 O.co2   1  LIG1       -0.5474
@<TRIPOS>BOND
     1     1     2    1
     2     1     5   am
     3     1    22    1
     4     2     3    1
     5     2    21    2
     6     3     4    1
     7     4     5    1
     8     4     7    2
     9     5     6    2
    10     7     8    1
    11     8     9   ar
    12     8    18   ar
    13     9    10   ar
    14    10    11   ar
    15    10    19    1
    16    11    12    1
    17    11    17   ar
    18    12    13    1
    19    13    14    1
    20    14    15   ar
    21    14    16   ar
    22    17    18   ar
    23    19    20    1
    24    22    23    1
    25    23    24   ar
    26    23    25   ar
