@<TRIPOS>MOLECULE
26033_ChemDiv_7790-1712
 23 25 0 0 0
SMALL
GASTEIGER
Energy = 0

@<TRIPOS>ATOM
      1 C          -1.0460    0.0040    0.0000 C.ar    1  LIG1        0.0331
      2 C          -1.3500    0.9460    0.0000 C.ar    1  LIG1        0.0856
      3 N          -0.5420    1.5380    0.0000 N.ar    1  LIG1       -0.2229
      4 C           0.2750    0.9460    0.0000 C.ar    1  LIG1        0.1831
      5 S          -0.0420    0.0040    0.0000 S.2     1  LIG1       -0.0538
      6 N           1.2210    1.2500    0.0000 N.pl3   1  LIG1       -0.1886
      7 C           1.9630    0.5830    0.0000 C.ar    1  LIG1        0.0726
      8 C           2.9040    0.8960    0.0000 C.ar    1  LIG1        0.0171
      9 C           3.6630    0.2290    0.0000 C.ar    1  LIG1        0.0080
     10 C           3.4460   -0.7500    0.0000 C.ar    1  LIG1        0.0347
     11 BR          4.1920   -1.4330    0.0000 Br      1  LIG1       -0.0490
     12 C           2.4920   -1.0710    0.0000 C.ar    1  LIG1        0.0080
     13 C           1.7500   -0.3880    0.0000 C.ar    1  LIG1        0.0171
     14 C          -2.3000    1.2500    0.0000 C.ar    1  LIG1        0.0179
     15 C          -2.5040    2.2330    0.0000 C.ar    1  LIG1        0.0015
     16 C          -3.4540    2.5330    0.0000 C.ar    1  LIG1        0.0000
     17 C          -4.1960    1.8670    0.0000 C.ar    1  LIG1        0.0000
     18 C          -3.9750    0.8880    0.0000 C.ar    1  LIG1        0.0000
     19 C          -3.0290    0.5830    0.0000 C.ar    1  LIG1        0.0015
     20 C          -1.6330   -0.8130    0.0000 C.3     1  LIG1        0.0762
     21 C          -1.2290   -1.7380    0.0000 C.2     1  LIG1        0.0553
     22 O          -0.2380   -1.8330    0.0000 O.co2   1  LIG1       -0.5488
     23 O          -1.8170   -2.5290    0.0000 O.co2   1  LIG1       -0.5488
@<TRIPOS>BOND
     1     1     2   ar
     2     1     5   ar
     3     1    20    1
     4     2     3   ar
     5     2    14    1
     6     3     4   ar
     7     4     5   ar
     8     4     6    1
     9     6     7    1
    10     7     8   ar
    11     7    13   ar
    12     8     9   ar
    13     9    10   ar
    14    10    11    1
    15    10    12   ar
    16    12    13   ar
    17    14    15   ar
    18    14    19   ar
    19    15    16   ar
    20    16    17   ar
    21    17    18   ar
    22    18    19   ar
    23    20    21    1
    24    21    22   ar
    25    21    23   ar
