@<TRIPOS>MOLECULE
26039_ChemDiv_8007-7823
 21 24 0 0 0
SMALL
GASTEIGER
Energy = 0

@<TRIPOS>ATOM
      1 N           0.7670    0.0960    0.0000 N.ar    1  LIG1       -0.2226
      2 C           0.2170    0.9460    0.0000 C.ar    1  LIG1        0.1834
      3 S           0.8580    1.7080    0.0000 S.2     1  LIG1       -0.0492
      4 C           1.7830    1.3250    0.0000 C.ar    1  LIG1        0.0573
      5 C           1.7380    0.3540    0.0000 C.ar    1  LIG1        0.0898
      6 C           2.6130   -0.1670    0.0000 C.ar    1  LIG1        0.0182
      7 C           3.4880    0.3290    0.0000 C.ar    1  LIG1        0.0015
      8 C           4.3460   -0.2130    0.0000 C.ar    1  LIG1        0.0000
      9 C           4.3210   -1.2130    0.0000 C.ar    1  LIG1        0.0000
     10 C           3.4460   -1.6830    0.0000 C.ar    1  LIG1        0.0000
     11 C           2.5880   -1.1880    0.0000 C.ar    1  LIG1        0.0015
     12 N          -0.7420    1.1130    0.0000 N.pl3   1  LIG1       -0.1885
     13 C          -1.3880    0.3540    0.0000 C.ar    1  LIG1        0.0758
     14 C          -2.3580    0.5670    0.0000 C.ar    1  LIG1        0.0567
     15 C          -3.0250   -0.1670    0.0000 C.ar    1  LIG1        0.1777
     16 C          -2.7130   -1.1130    0.0000 C.ar    1  LIG1        0.1765
     17 O          -3.5420   -1.7040    0.0000 O.3     1  LIG1       -0.4346
     18 C          -4.3500   -1.1130    0.0000 C.3     1  LIG1        0.4294
     19 O          -4.0420   -0.1670    0.0000 O.3     1  LIG1       -0.4346
     20 C          -1.7420   -1.3290    0.0000 C.ar    1  LIG1        0.0415
     21 C          -1.0790   -0.5960    0.0000 C.ar    1  LIG1        0.0199
@<TRIPOS>BOND
     1     1     2   ar
     2     1     5   ar
     3     2     3   ar
     4     2    12    1
     5     3     4   ar
     6     4     5   ar
     7     5     6    1
     8     6     7   ar
     9     6    11   ar
    10     7     8   ar
    11     8     9   ar
    12     9    10   ar
    13    10    11   ar
    14    12    13    1
    15    13    14   ar
    16    13    21   ar
    17    14    15   ar
    18    15    16   ar
    19    15    19    1
    20    16    17    1
    21    16    20   ar
    22    17    18    1
    23    18    19    1
    24    20    21   ar
