@<TRIPOS>MOLECULE
26031_ChemDiv_5774-0076
 28 30 0 0 0
SMALL
GASTEIGER
Energy = 0

@<TRIPOS>ATOM
      1 C          -1.9210    0.1580    0.0000 C.ar    1  LIG1        0.1084
      2 C          -2.0080   -0.8380    0.0000 C.ar    1  LIG1        0.0933
      3 C          -2.9790   -1.0670    0.0000 C.ar    1  LIG1       -0.0121
      4 C          -3.5080   -0.2040    0.0000 C.ar    1  LIG1        0.0048
      5 S          -2.8580    0.5580    0.0000 S.2     1  LIG1       -0.0749
      6 C          -4.3290   -0.0080    0.0000 C.3     1  LIG1        0.0327
      7 C          -5.0830   -0.6540    0.0000 C.3     1  LIG1        0.0052
      8 C          -5.0080   -1.6830    0.0000 C.3     1  LIG1        0.0007
      9 C          -4.1330   -2.2750    0.0000 C.3     1  LIG1        0.0047
     10 C          -3.2040   -1.9170    0.0000 C.3     1  LIG1        0.0268
     11 C          -1.5130   -1.7000    0.0000 C.2     1  LIG1        0.3427
     12 O          -0.5250   -1.7000    0.0000 O.2     1  LIG1       -0.2448
     13 O          -2.0130   -2.5540    0.0000 O.3     1  LIG1       -0.4454
     14 C          -3.0130   -2.5540    0.0000 C.3     1  LIG1        0.2089
     15 C          -3.7250   -3.2630    0.0000 C.3     1  LIG1        0.0513
     16 N          -1.0710    0.6750    0.0000 N.am    1  LIG1       -0.1717
     17 C          -0.1830    0.1880    0.0000 C.2     1  LIG1        0.2575
     18 O          -0.1670   -0.8210    0.0000 O.2     1  LIG1       -0.2720
     19 C           0.6880    0.7040    0.0000 C.3     1  LIG1        0.1520
     20 S           1.5670    0.2040    0.0000 S.3     1  LIG1       -0.0657
     21 C           2.4460    0.7210    0.0000 C.ar    1  LIG1        0.1945
     22 N           3.3210    0.2210    0.0000 N.ar    1  LIG1       -0.2027
     23 C           4.2170    0.7330    0.0000 C.ar    1  LIG1        0.1766
     24 C           4.2130    1.7540    0.0000 C.ar    1  LIG1        0.1001
     25 C           3.3170    2.2630    0.0000 C.ar    1  LIG1        0.2840
     26 N           2.4380    1.7500    0.0000 N.ar    1  LIG1       -0.1827
     27 O           3.3080    3.2670    0.0000 O.2     1  LIG1       -0.2650
     28 N           5.0790    0.2330    0.0000 N.pl3   1  LIG1       -0.1070
@<TRIPOS>BOND
     1     1     2   ar
     2     1     5   ar
     3     1    16    1
     4     2     3   ar
     5     2    11    1
     6     3     4   ar
     7     3    10    1
     8     4     5   ar
     9     4     6    1
    10     6     7    1
    11     7     8    1
    12     8     9    1
    13     9    10    1
    14    11    12    2
    15    11    13    1
    16    13    14    1
    17    14    15    1
    18    16    17   am
    19    17    18    2
    20    17    19    1
    21    19    20    1
    22    20    21    1
    23    21    22   ar
    24    21    26   ar
    25    22    23   ar
    26    23    24   ar
    27    23    28    1
    28    24    25   ar
    29    25    26   ar
    30    25    27    2
