@<TRIPOS>MOLECULE
26037_ChemDiv_8007-7819
 24 27 0 0 0
SMALL
GASTEIGER
Energy = 0

@<TRIPOS>ATOM
      1 N          -1.2920    1.2710    0.0000 N.ar    1  LIG1       -0.2226
      2 C          -2.2330    1.5540    0.0000 C.ar    1  LIG1        0.1834
      3 S          -2.2920    2.5290    0.0000 S.2     1  LIG1       -0.0492
      4 C          -1.3670    2.8830    0.0000 C.ar    1  LIG1        0.0573
      5 C          -0.7420    2.1210    0.0000 C.ar    1  LIG1        0.0899
      6 C           0.2460    2.1210    0.0000 C.ar    1  LIG1        0.0207
      7 C           0.7580    1.2460    0.0000 C.ar    1  LIG1        0.0343
      8 C           1.7790    1.2460    0.0000 C.ar    1  LIG1        0.1739
      9 C           2.2540    2.1210    0.0000 C.ar    1  LIG1        0.1660
     10 C           1.7420    2.9790    0.0000 C.ar    1  LIG1        0.0393
     11 C           0.7580    2.9790    0.0000 C.ar    1  LIG1        0.0048
     12 O           3.2540    2.1250    0.0000 O.3     1  LIG1       -0.4692
     13 C           3.7040    2.9960    0.0000 C.3     1  LIG1        0.2526
     14 F           2.2250    0.3880    0.0000 F       1  LIG1       -0.2010
     15 N          -3.0500    0.9420    0.0000 N.pl3   1  LIG1       -0.1885
     16 C          -2.9080   -0.0580    0.0000 C.ar    1  LIG1        0.0758
     17 C          -1.9960   -0.4420    0.0000 C.ar    1  LIG1        0.0567
     18 C          -1.8630   -1.4420    0.0000 C.ar    1  LIG1        0.1777
     19 C          -2.6750   -2.0170    0.0000 C.ar    1  LIG1        0.1765
     20 O          -2.3540   -2.9920    0.0000 O.3     1  LIG1       -0.4346
     21 C          -1.3250   -2.9790    0.0000 C.3     1  LIG1        0.4294
     22 O          -1.0250   -1.9830    0.0000 O.3     1  LIG1       -0.4346
     23 C          -3.5750   -1.6540    0.0000 C.ar    1  LIG1        0.0415
     24 C          -3.7080   -0.6580    0.0000 C.ar    1  LIG1        0.0199
@<TRIPOS>BOND
     1     1     2   ar
     2     1     5   ar
     3     2     3   ar
     4     2    15    1
     5     3     4   ar
     6     4     5   ar
     7     5     6    1
     8     6     7   ar
     9     6    11   ar
    10     7     8   ar
    11     8     9   ar
    12     8    14    1
    13     9    10   ar
    14     9    12    1
    15    10    11   ar
    16    12    13    1
    17    15    16    1
    18    16    17   ar
    19    16    24   ar
    20    17    18   ar
    21    18    19   ar
    22    18    22    1
    23    19    20    1
    24    19    23   ar
    25    20    21    1
    26    21    22    1
    27    23    24   ar
