@<TRIPOS>MOLECULE
26041_ChemDiv_8008-1891
 23 26 0 0 0
SMALL
GASTEIGER
Energy = 0

@<TRIPOS>ATOM
      1 N           0.0710    0.4420    0.0000 N.ar    1  LIG1       -0.2226
      2 C          -0.4380    1.3080    0.0000 C.ar    1  LIG1        0.1834
      3 S           0.2500    2.0460    0.0000 S.2     1  LIG1       -0.0492
      4 C           1.1710    1.6290    0.0000 C.ar    1  LIG1        0.0573
      5 C           1.0330    0.6580    0.0000 C.ar    1  LIG1        0.0898
      6 C           1.8040    0.0330    0.0000 C.ar    1  LIG1        0.0179
      7 C           2.7710    0.3920    0.0000 C.ar    1  LIG1       -0.0031
      8 C           3.5460   -0.2380    0.0000 C.ar    1  LIG1       -0.0257
      9 C           3.3670   -1.2130    0.0000 C.ar    1  LIG1       -0.0258
     10 C           2.4330   -1.5830    0.0000 C.ar    1  LIG1       -0.0045
     11 C           1.6500   -0.9500    0.0000 C.ar    1  LIG1        0.0012
     12 C           4.1380   -1.8500    0.0000 C.3     1  LIG1        0.0307
     13 C           4.4710    0.1330    0.0000 C.3     1  LIG1        0.0307
     14 N          -1.4290    1.3080    0.0000 N.pl3   1  LIG1       -0.1885
     15 C          -1.9380    0.4500    0.0000 C.ar    1  LIG1        0.0758
     16 C          -2.9330    0.4290    0.0000 C.ar    1  LIG1        0.0567
     17 C          -3.4330   -0.4210    0.0000 C.ar    1  LIG1        0.1777
     18 C          -2.9130   -1.2670    0.0000 C.ar    1  LIG1        0.1765
     19 O          -3.5130   -2.0420    0.0000 O.3     1  LIG1       -0.4346
     20 C          -4.4750   -1.6750    0.0000 C.3     1  LIG1        0.4294
     21 O          -4.4130   -0.6710    0.0000 O.3     1  LIG1       -0.4346
     22 C          -1.9080   -1.2750    0.0000 C.ar    1  LIG1        0.0415
     23 C          -1.4210   -0.4130    0.0000 C.ar    1  LIG1        0.0199
@<TRIPOS>BOND
     1     1     2   ar
     2     1     5   ar
     3     2     3   ar
     4     2    14    1
     5     3     4   ar
     6     4     5   ar
     7     5     6    1
     8     6     7   ar
     9     6    11   ar
    10     7     8   ar
    11     8     9   ar
    12     8    13    1
    13     9    10   ar
    14     9    12    1
    15    10    11   ar
    16    14    15    1
    17    15    16   ar
    18    15    23   ar
    19    16    17   ar
    20    17    18   ar
    21    17    21    1
    22    18    19    1
    23    18    22   ar
    24    19    20    1
    25    20    21    1
    26    22    23   ar
