@<TRIPOS>MOLECULE
26043_ChemDiv_D041-0027
 19 21 0 0 0
SMALL
GASTEIGER
Energy = 0

@<TRIPOS>ATOM
      1 C           1.0170    0.2040    0.0000 C.ar    1  LIG1        0.1848
      2 N           0.2000    0.7960    0.0000 N.ar    1  LIG1       -0.2225
      3 C          -0.6040    0.2040    0.0000 C.ar    1  LIG1        0.0898
      4 C          -0.3000   -0.7460    0.0000 C.ar    1  LIG1        0.0573
      5 S           0.7130   -0.7460    0.0000 S.2     1  LIG1       -0.0492
      6 C          -1.5580    0.5130    0.0000 C.ar    1  LIG1        0.0182
      7 C          -2.2880   -0.1580    0.0000 C.ar    1  LIG1        0.0012
      8 C          -3.2500    0.1500    0.0000 C.ar    1  LIG1       -0.0042
      9 C          -3.4580    1.1330    0.0000 C.ar    1  LIG1       -0.0218
     10 C          -2.7130    1.8040    0.0000 C.ar    1  LIG1       -0.0042
     11 C          -1.7710    1.4830    0.0000 C.ar    1  LIG1        0.0012
     12 C          -4.4040    1.4380    0.0000 C.3     1  LIG1        0.0310
     13 N           1.9710    0.5130    0.0000 N.pl3   1  LIG1       -0.1697
     14 C           2.7130   -0.1580    0.0000 C.ar    1  LIG1        0.1537
     15 N           3.6580    0.1500    0.0000 N.ar    1  LIG1       -0.2273
     16 C           4.4000   -0.5210    0.0000 C.ar    1  LIG1        0.1004
     17 C           4.1920   -1.4960    0.0000 C.ar    1  LIG1        0.0208
     18 C           3.2460   -1.8000    0.0000 C.ar    1  LIG1        0.0045
     19 C           2.4920   -1.1290    0.0000 C.ar    1  LIG1        0.0362
@<TRIPOS>BOND
     1     1     2   ar
     2     1     5   ar
     3     1    13    1
     4     2     3   ar
     5     3     4   ar
     6     3     6    1
     7     4     5   ar
     8     6     7   ar
     9     6    11   ar
    10     7     8   ar
    11     8     9   ar
    12     9    10   ar
    13     9    12    1
    14    10    11   ar
    15    13    14    1
    16    14    15   ar
    17    14    19   ar
    18    15    16   ar
    19    16    17   ar
    20    17    18   ar
    21    18    19   ar
