@<TRIPOS>MOLECULE
26049_ChemDiv_6961-0073
 30 33 0 0 0
SMALL
GASTEIGER
Energy = 0

@<TRIPOS>ATOM
      1 C           0.4670    1.0460    0.0000 C.ar    1  LIG1        0.1084
      2 C           1.4670    1.1040    0.0000 C.ar    1  LIG1        0.0933
      3 C           1.8330    0.1630    0.0000 C.ar    1  LIG1       -0.0121
      4 C           1.0580   -0.4540    0.0000 C.ar    1  LIG1        0.0048
      5 S           0.2210    0.0750    0.0000 S.2     1  LIG1       -0.0749
      6 C           1.2080   -1.4420    0.0000 C.3     1  LIG1        0.0327
      7 C           2.1540   -1.8040    0.0000 C.3     1  LIG1        0.0055
      8 C           2.9250   -1.1670    0.0000 C.3     1  LIG1        0.0050
      9 C           2.7670   -0.1790    0.0000 C.3     1  LIG1        0.0268
     10 C           2.0170    1.9420    0.0000 C.2     1  LIG1        0.3427
     11 O           1.5540    2.8330    0.0000 O.2     1  LIG1       -0.2448
     12 O           3.0170    1.8960    0.0000 O.3     1  LIG1       -0.4454
     13 C           3.4710    1.0080    0.0000 C.3     1  LIG1        0.2089
     14 C           4.4750    0.9630    0.0000 C.3     1  LIG1        0.0513
     15 N          -0.1630    1.8210    0.0000 N.am    1  LIG1       -0.1710
     16 C          -1.1420    1.6540    0.0000 C.2     1  LIG1        0.2666
     17 C          -1.5040    0.7290    0.0000 C.3     1  LIG1        0.1855
     18 N          -2.4880    0.5920    0.0000 N.am    1  LIG1       -0.2438
     19 C          -2.8500   -0.3460    0.0000 C.ar    1  LIG1        0.0894
     20 C          -3.8380   -0.4960    0.0000 C.ar    1  LIG1        0.1529
     21 O          -4.4790    0.2750    0.0000 O.3     1  LIG1       -0.4643
     22 C          -4.1130    1.2210    0.0000 C.3     1  LIG1        0.2900
     23 C          -3.1170    1.3790    0.0000 C.2     1  LIG1        0.2744
     24 O          -2.7500    2.3040    0.0000 O.2     1  LIG1       -0.2705
     25 C          -4.2000   -1.4250    0.0000 C.ar    1  LIG1        0.0391
     26 C          -3.5790   -2.1960    0.0000 C.ar    1  LIG1        0.0146
     27 C          -2.5920   -2.0460    0.0000 C.ar    1  LIG1        0.0591
     28 C          -2.2290   -1.1210    0.0000 C.ar    1  LIG1        0.0294
     29 CL         -1.9630   -2.8290    0.0000 Cl      1  LIG1       -0.0822
     30 O          -1.7630    2.4380    0.0000 O.2     1  LIG1       -0.2711
@<TRIPOS>BOND
     1     1     2   ar
     2     1     5   ar
     3     1    15    1
     4     2     3   ar
     5     2    10    1
     6     3     4   ar
     7     3     9    1
     8     4     5   ar
     9     4     6    1
    10     6     7    1
    11     7     8    1
    12     8     9    1
    13    10    11    2
    14    10    12    1
    15    12    13    1
    16    13    14    1
    17    15    16   am
    18    16    17    1
    19    16    30    2
    20    17    18    1
    21    18    19    1
    22    18    23   am
    23    19    20   ar
    24    19    28   ar
    25    20    21    1
    26    20    25   ar
    27    21    22    1
    28    22    23    1
    29    23    24    2
    30    25    26   ar
    31    26    27   ar
    32    27    28   ar
    33    27    29    1
