@<TRIPOS>MOLECULE
26055_ChemDiv_8009-9053
 26 28 0 0 0
SMALL
GASTEIGER
Energy = 0

@<TRIPOS>ATOM
      1 C          -0.7380    0.3380    0.0000 C.ar    1  LIG1        0.1084
      2 C          -1.3080    1.1580    0.0000 C.ar    1  LIG1        0.0933
      3 C          -2.2630    0.8540    0.0000 C.ar    1  LIG1       -0.0121
      4 C          -2.2630   -0.1630    0.0000 C.ar    1  LIG1        0.0048
      5 S          -1.3080   -0.4790    0.0000 S.2     1  LIG1       -0.0749
      6 C          -3.1290   -0.6630    0.0000 C.3     1  LIG1        0.0327
      7 C          -3.9960   -0.1630    0.0000 C.3     1  LIG1        0.0052
      8 C          -3.9960    0.8540    0.0000 C.3     1  LIG1        0.0050
      9 C          -3.1290    1.3500    0.0000 C.3     1  LIG1        0.0268
     10 C          -4.8380   -0.6960    0.0000 C.3     1  LIG1        0.0004
     11 C          -0.9790    2.0920    0.0000 C.2     1  LIG1        0.3427
     12 O          -1.6170    2.8670    0.0000 O.2     1  LIG1       -0.2448
     13 O          -0.0210    2.1670    0.0000 O.3     1  LIG1       -0.4454
     14 C           0.3830    3.0710    0.0000 C.3     1  LIG1        0.2089
     15 C           1.3750    3.1580    0.0000 C.3     1  LIG1        0.0513
     16 N           0.2710    0.3380    0.0000 N.am    1  LIG1       -0.1717
     17 C           0.7710   -0.5210    0.0000 C.2     1  LIG1        0.2575
     18 O           0.2710   -1.3750    0.0000 O.2     1  LIG1       -0.2720
     19 C           1.7880   -0.5210    0.0000 C.3     1  LIG1        0.1519
     20 S           2.2750   -1.3750    0.0000 S.3     1  LIG1       -0.0674
     21 C           3.2630   -1.3750    0.0000 C.ar    1  LIG1        0.1718
     22 N           3.8710   -2.2040    0.0000 N.ar    1  LIG1       -0.3033
     23 C           4.8330   -1.8210    0.0000 C.ar    1  LIG1        0.0984
     24 C           4.8210   -0.8630    0.0000 C.ar    1  LIG1        0.1197
     25 N           3.8170   -0.5500    0.0000 N.ar    1  LIG1       -0.2195
     26 C           3.5960   -3.1540    0.0000 C.3     1  LIG1        0.1325
@<TRIPOS>BOND
     1     1     2   ar
     2     1     5   ar
     3     1    16    1
     4     2     3   ar
     5     2    11    1
     6     3     4   ar
     7     3     9    1
     8     4     5   ar
     9     4     6    1
    10     6     7    1
    11     7     8    1
    12     7    10    1
    13     8     9    1
    14    11    12    2
    15    11    13    1
    16    13    14    1
    17    14    15    1
    18    16    17   am
    19    17    18    2
    20    17    19    1
    21    19    20    1
    22    20    21    1
    23    21    22   ar
    24    21    25   ar
    25    22    23   ar
    26    22    26    1
    27    23    24   ar
    28    24    25   ar
