@<TRIPOS>MOLECULE
26059_ChemDiv_C760-0476
 24 25 0 0 0
SMALL
GASTEIGER
Energy = 0

@<TRIPOS>ATOM
      1 C          -1.7500    0.7170    0.0000 C.ar    1  LIG1        0.0577
      2 C          -2.7380    0.7080    0.0000 C.ar    1  LIG1       -0.0153
      3 C          -3.0380   -0.2380    0.0000 C.ar    1  LIG1        0.0035
      4 S          -2.2330   -0.8210    0.0000 S.2     1  LIG1       -0.0910
      5 C          -1.4330   -0.2210    0.0000 C.ar    1  LIG1        0.0393
      6 C          -4.0130   -0.4540    0.0000 C.3     1  LIG1        0.0326
      7 C          -4.6960    0.2830    0.0000 C.3     1  LIG1        0.0055
      8 C          -4.3790    1.2420    0.0000 C.3     1  LIG1        0.0050
      9 C          -3.4130    1.4460    0.0000 C.3     1  LIG1        0.0267
     10 C          -1.1670    1.5420    0.0000 C.2     1  LIG1        0.2650
     11 O          -1.5880    2.4420    0.0000 O.2     1  LIG1       -0.2684
     12 N          -0.1670    1.4460    0.0000 N.am    1  LIG1       -0.2014
     13 C           0.2630    0.5420    0.0000 C.3     1  LIG1        0.1216
     14 C           1.2630    0.4580    0.0000 C.3     1  LIG1        0.0861
     15 C           1.6920   -0.4500    0.0000 C.3     1  LIG1        0.1404
     16 N           2.6880   -0.5380    0.0000 N.4     1  LIG1        0.3773
     17 C           3.2580    0.2830    0.0000 C.3     1  LIG1        0.1383
     18 C           2.8460    1.1920    0.0000 C.3     1  LIG1        0.0570
     19 C           3.4210    2.0080    0.0000 C.3     1  LIG1        0.0061
     20 C           1.8460    1.2790    0.0000 C.3     1  LIG1        0.0061
     21 C           3.1080   -1.4380    0.0000 C.3     1  LIG1        0.1383
     22 C           4.1080   -1.5330    0.0000 C.3     1  LIG1        0.0570
     23 C           4.6920   -0.7040    0.0000 C.3     1  LIG1        0.0061
     24 C           4.5420   -2.4380    0.0000 C.3     1  LIG1        0.0061
@<TRIPOS>BOND
     1     1     2   ar
     2     1     5   ar
     3     1    10    1
     4     2     3   ar
     5     2     9    1
     6     3     4   ar
     7     3     6    1
     8     4     5   ar
     9     6     7    1
    10     7     8    1
    11     8     9    1
    12    10    11    2
    13    10    12   am
    14    12    13    1
    15    13    14    1
    16    14    15    1
    17    15    16    1
    18    16    17    1
    19    16    21    1
    20    17    18    1
    21    18    19    1
    22    18    20    1
    23    21    22    1
    24    22    23    1
    25    22    24    1
