@<TRIPOS>MOLECULE
26054_ChemDiv_1080-0622
 24 25 0 0 0
SMALL
GASTEIGER
Energy = 0

@<TRIPOS>ATOM
      1 S          -3.8880   -0.7210    0.0000 S.O2    1  LIG1        0.0935
      2 C          -2.9420   -0.3330    0.0000 C.ar    1  LIG1        0.1251
      3 C          -2.1000   -0.9420    0.0000 C.ar    1  LIG1        0.0213
      4 C          -1.1960   -0.5460    0.0000 C.ar    1  LIG1        0.0180
      5 C          -1.0920    0.4630    0.0000 C.ar    1  LIG1        0.0734
      6 N          -0.1630    0.8790    0.0000 N.am    1  LIG1       -0.1792
      7 C           0.6380    0.2960    0.0000 C.2     1  LIG1        0.2451
      8 C           1.5540    0.7210    0.0000 C.3     1  LIG1        0.0789
      9 C           2.3750    0.1330    0.0000 C.3     1  LIG1        0.0128
     10 C           3.1710    0.7290    0.0000 C.3     1  LIG1        0.0325
     11 C           4.1630    0.4750    0.0000 C.2     1  LIG1        0.0497
     12 O           4.8330    1.2000    0.0000 O.co2   1  LIG1       -0.5492
     13 O           4.3880   -0.4960    0.0000 O.co2   1  LIG1       -0.5492
     14 C           2.8460    1.6750    0.0000 C.3     1  LIG1        0.0057
     15 C           1.8580    1.6750    0.0000 C.3     1  LIG1        0.0095
     16 C           3.7880    1.2080    0.0000 C.3     1  LIG1        0.0056
     17 C           3.0250   -0.6540    0.0000 C.3     1  LIG1        0.0008
     18 C           1.7920   -0.7460    0.0000 C.3     1  LIG1        0.0008
     19 O           0.5580   -0.6920    0.0000 O.2     1  LIG1       -0.2730
     20 C          -1.8880    1.0460    0.0000 C.ar    1  LIG1        0.0180
     21 C          -2.8170    0.6540    0.0000 C.ar    1  LIG1        0.0213
     22 O          -4.2790    0.2080    0.0000 O.2     1  LIG1       -0.1503
     23 O          -4.8380   -1.1210    0.0000 O.2     1  LIG1       -0.1503
     24 N          -3.4960   -1.6750    0.0000 N.3     1  LIG1        0.0392
@<TRIPOS>BOND
     1     1     2    1
     2     1    22    2
     3     1    23    2
     4     1    24    1
     5     2     3   ar
     6     2    21   ar
     7     3     4   ar
     8     4     5   ar
     9     5     6    1
    10     5    20   ar
    11     6     7   am
    12     7     8    1
    13     7    19    2
    14     8     9    1
    15     8    15    1
    16     9    10    1
    17     9    17    1
    18     9    18    1
    19    10    11    1
    20    10    14    1
    21    10    16    1
    22    11    12   ar
    23    11    13   ar
    24    14    15    1
    25    20    21   ar
