@<TRIPOS>MOLECULE
26053_ChemDiv_8009-3051
 21 23 0 0 0
SMALL
GASTEIGER
Energy = 0

@<TRIPOS>ATOM
      1 C          -1.4290   -0.2540    0.0000 C.ar    1  LIG1        0.0741
      2 C          -1.4290   -1.1710    0.0000 C.ar    1  LIG1        0.1223
      3 S          -2.2290   -1.6330    0.0000 S.2     1  LIG1       -0.0736
      4 C          -3.0420   -1.1710    0.0000 C.ar    1  LIG1        0.0047
      5 C          -3.0420   -0.2540    0.0000 C.ar    1  LIG1       -0.0139
      6 C          -3.8580    0.2170    0.0000 C.3     1  LIG1        0.0268
      7 C          -4.6710   -0.2540    0.0000 C.3     1  LIG1        0.0050
      8 C          -4.6710   -1.1710    0.0000 C.3     1  LIG1        0.0055
      9 C          -3.8580   -1.6330    0.0000 C.3     1  LIG1        0.0327
     10 N          -0.5750   -1.6580    0.0000 N.pl3   1  LIG1       -0.1208
     11 C          -0.5630    0.2170    0.0000 C.2     1  LIG1        0.2663
     12 O          -0.5630    1.1830    0.0000 O.2     1  LIG1       -0.2683
     13 N           0.3000   -0.3080    0.0000 N.am    1  LIG1       -0.2013
     14 C           1.1710    0.2170    0.0000 C.3     1  LIG1        0.1201
     15 C           2.0790   -0.3420    0.0000 C.3     1  LIG1        0.0498
     16 C           2.9290    0.1460    0.0000 C.ar    1  LIG1       -0.0204
     17 C           2.9290    1.1460    0.0000 C.ar    1  LIG1       -0.0042
     18 C           3.7880    1.6630    0.0000 C.ar    1  LIG1       -0.0003
     19 C           4.6670    1.1460    0.0000 C.ar    1  LIG1       -0.0000
     20 C           4.6670    0.1460    0.0000 C.ar    1  LIG1       -0.0003
     21 C           3.7880   -0.3420    0.0000 C.ar    1  LIG1       -0.0042
@<TRIPOS>BOND
     1     1     2   ar
     2     1     5   ar
     3     1    11    1
     4     2     3   ar
     5     2    10    1
     6     3     4   ar
     7     4     5   ar
     8     4     9    1
     9     5     6    1
    10     6     7    1
    11     7     8    1
    12     8     9    1
    13    11    12    2
    14    11    13   am
    15    13    14    1
    16    14    15    1
    17    15    16    1
    18    16    17   ar
    19    16    21   ar
    20    17    18   ar
    21    18    19   ar
    22    19    20   ar
    23    20    21   ar
