@<TRIPOS>MOLECULE
26056_ChemDiv_8008-9199
 28 29 0 0 0
SMALL
GASTEIGER
Energy = 0

@<TRIPOS>ATOM
      1 C           1.0170   -0.9130    0.0000 C.ar    1  LIG1        0.0734
      2 C           0.5170   -0.0580    0.0000 C.ar    1  LIG1        0.0166
      3 C          -0.4710   -0.0580    0.0000 C.ar    1  LIG1        0.0166
      4 C          -0.9830    0.7960    0.0000 C.ar    1  LIG1        0.0734
      5 N          -1.9670    0.7960    0.0000 N.am    1  LIG1       -0.1792
      6 C          -2.4830    1.6880    0.0000 C.2     1  LIG1        0.2456
      7 O          -1.9670    2.5290    0.0000 O.2     1  LIG1       -0.2730
      8 C          -3.5130    1.6880    0.0000 C.3     1  LIG1        0.0876
      9 C          -4.0000    2.5630    0.0000 C.3     1  LIG1        0.0155
     10 C          -5.0290    2.5630    0.0000 C.3     1  LIG1        0.0422
     11 C          -5.5210    3.4170    0.0000 C.2     1  LIG1        0.0503
     12 O          -5.0290    4.2960    0.0000 O.co2   1  LIG1       -0.5492
     13 O          -6.5210    3.4170    0.0000 O.co2   1  LIG1       -0.5492
     14 C          -0.5000    1.6880    0.0000 C.ar    1  LIG1        0.0166
     15 C           0.4750    1.6960    0.0000 C.ar    1  LIG1        0.0014
     16 C           0.9880    0.8380    0.0000 C.ar    1  LIG1        0.0014
     17 C          -0.9500   -0.9290    0.0000 C.ar    1  LIG1        0.0014
     18 C          -0.4540   -1.7750    0.0000 C.ar    1  LIG1        0.0014
     19 C           0.5330   -1.7460    0.0000 C.ar    1  LIG1        0.0166
     20 N           2.0500   -0.9130    0.0000 N.am    1  LIG1       -0.1792
     21 C           2.5630   -1.7880    0.0000 C.2     1  LIG1        0.2456
     22 O           2.0500   -2.6710    0.0000 O.2     1  LIG1       -0.2730
     23 C           3.5880   -1.7750    0.0000 C.3     1  LIG1        0.0876
     24 C           4.0670   -2.6170    0.0000 C.3     1  LIG1        0.0155
     25 C           5.0540   -2.6170    0.0000 C.3     1  LIG1        0.0422
     26 C           5.5170   -3.4920    0.0000 C.2     1  LIG1        0.0503
     27 O           6.5210   -3.5000    0.0000 O.co2   1  LIG1       -0.5492
     28 O           4.9500   -4.2960    0.0000 O.co2   1  LIG1       -0.5492
@<TRIPOS>BOND
     1     1     2   ar
     2     1    19   ar
     3     1    20    1
     4     2     3   ar
     5     2    16   ar
     6     3     4   ar
     7     3    17   ar
     8     4     5    1
     9     4    14   ar
    10     5     6   am
    11     6     7    2
    12     6     8    1
    13     8     9    1
    14     9    10    1
    15    10    11    1
    16    11    12   ar
    17    11    13   ar
    18    14    15   ar
    19    15    16   ar
    20    17    18   ar
    21    18    19   ar
    22    20    21   am
    23    21    22    2
    24    21    23    1
    25    23    24    1
    26    24    25    1
    27    25    26    1
    28    26    27   ar
    29    26    28   ar
