@<TRIPOS>MOLECULE
26060_ChemDiv_6013-1758
 26 28 0 0 0
SMALL
GASTEIGER
Energy = 0

@<TRIPOS>ATOM
      1 C          -3.4710   -0.2790    0.0000 C.2     1  LIG1        0.3278
      2 N          -2.4040   -0.3000    0.0000 N.am    1  LIG1       -0.2506
      3 C          -1.8710    0.5500    0.0000 C.3     1  LIG1        0.1578
      4 C          -0.8920    0.5170    0.0000 C.3     1  LIG1        0.1610
      5 N          -0.4080   -0.3670    0.0000 N.4     1  LIG1        0.3834
      6 C          -0.9330   -1.2130    0.0000 C.3     1  LIG1        0.1610
      7 C          -1.9330   -1.1830    0.0000 C.3     1  LIG1        0.1578
      8 C           0.5750   -0.3960    0.0000 C.3     1  LIG1        0.1662
      9 C           1.0580   -1.2790    0.0000 C.2     1  LIG1        0.0359
     10 C           2.0580   -1.3000    0.0000 C.2     1  LIG1        0.0013
     11 C           2.5250   -2.1830    0.0000 C.ar    1  LIG1       -0.0001
     12 C           3.5210   -2.2080    0.0000 C.ar    1  LIG1       -0.0000
     13 C           3.9960   -3.0790    0.0000 C.ar    1  LIG1       -0.0000
     14 C           3.4630   -3.9420    0.0000 C.ar    1  LIG1       -0.0000
     15 C           2.4630   -3.9130    0.0000 C.ar    1  LIG1       -0.0000
     16 C           1.9960   -3.0290    0.0000 C.ar    1  LIG1       -0.0000
     17 N          -3.9380    0.5670    0.0000 N.am    1  LIG1       -0.1622
     18 C          -3.4210    1.4130    0.0000 C.ar    1  LIG1        0.0751
     19 C          -2.4210    1.3880    0.0000 C.ar    1  LIG1        0.0198
     20 C          -1.9000    2.2460    0.0000 C.ar    1  LIG1        0.0382
     21 C          -2.3670    3.1170    0.0000 C.ar    1  LIG1        0.1388
     22 C          -3.3670    3.1460    0.0000 C.ar    1  LIG1        0.0382
     23 C          -3.9000    2.2960    0.0000 C.ar    1  LIG1        0.0198
     24 O          -1.8500    3.9460    0.0000 O.3     1  LIG1       -0.4714
     25 C          -0.8500    3.9170    0.0000 C.3     1  LIG1        0.2525
     26 O          -4.0000   -1.1670    0.0000 O.2     1  LIG1       -0.2504
@<TRIPOS>BOND
     1     1     2   am
     2     1    17   am
     3     1    26    2
     4     2     3    1
     5     2     7    1
     6     3     4    1
     7     4     5    1
     8     5     6    1
     9     5     8    1
    10     6     7    1
    11     8     9    1
    12     9    10    2
    13    10    11    1
    14    11    12   ar
    15    11    16   ar
    16    12    13   ar
    17    13    14   ar
    18    14    15   ar
    19    15    16   ar
    20    17    18    1
    21    18    19   ar
    22    18    23   ar
    23    19    20   ar
    24    20    21   ar
    25    21    22   ar
    26    21    24    1
    27    22    23   ar
    28    24    25    1
