@<TRIPOS>MOLECULE
26063_ChemDiv_C760-0774
 24 25 0 0 0
SMALL
GASTEIGER
Energy = 0

@<TRIPOS>ATOM
      1 C           0.3040   -2.6750    0.0000 C.ar    1  LIG1        0.0577
      2 C          -0.6920   -2.6830    0.0000 C.ar    1  LIG1       -0.0153
      3 C          -0.9920   -3.6290    0.0000 C.ar    1  LIG1        0.0035
      4 S          -0.1750   -4.2130    0.0000 S.2     1  LIG1       -0.0910
      5 C           0.6210   -3.6130    0.0000 C.ar    1  LIG1        0.0393
      6 C          -1.9630   -3.8460    0.0000 C.3     1  LIG1        0.0326
      7 C          -2.6380   -3.1080    0.0000 C.3     1  LIG1        0.0052
      8 C          -2.3290   -2.1500    0.0000 C.3     1  LIG1        0.0050
      9 C          -1.3580   -1.9460    0.0000 C.3     1  LIG1        0.0267
     10 C          -3.6210   -3.3250    0.0000 C.3     1  LIG1        0.0004
     11 C           0.8880   -1.8500    0.0000 C.2     1  LIG1        0.2652
     12 O           1.8880   -1.9460    0.0000 O.2     1  LIG1       -0.2684
     13 N           0.4540   -0.9500    0.0000 N.am    1  LIG1       -0.1953
     14 C           1.0380   -0.1250    0.0000 C.3     1  LIG1        0.1778
     15 C           0.6170    0.7750    0.0000 C.3     1  LIG1        0.1624
     16 N           1.1880    1.5880    0.0000 N.4     1  LIG1        0.3786
     17 C           0.7670    2.4960    0.0000 C.3     1  LIG1        0.1384
     18 C           1.3380    3.3170    0.0000 C.3     1  LIG1        0.0570
     19 C           0.9170    4.2130    0.0000 C.3     1  LIG1        0.0061
     20 C           2.3330    3.2290    0.0000 C.3     1  LIG1        0.0061
     21 C           2.1880    1.5040    0.0000 C.3     1  LIG1        0.1384
     22 C           2.6170    0.6000    0.0000 C.3     1  LIG1        0.0570
     23 C           2.0380   -0.2250    0.0000 C.3     1  LIG1        0.0061
     24 C           3.6170    0.5170    0.0000 C.3     1  LIG1        0.0061
@<TRIPOS>BOND
     1     1     2   ar
     2     1     5   ar
     3     1    11    1
     4     2     3   ar
     5     2     9    1
     6     3     4   ar
     7     3     6    1
     8     4     5   ar
     9     6     7    1
    10     7     8    1
    11     7    10    1
    12     8     9    1
    13    11    12    2
    14    11    13   am
    15    13    14    1
    16    14    15    1
    17    15    16    1
    18    16    17    1
    19    16    21    1
    20    17    18    1
    21    18    19    1
    22    18    20    1
    23    21    22    1
    24    22    23    1
    25    22    24    1
