@<TRIPOS>MOLECULE
26072_ChemDiv_5585-0173
 17 19 0 0 0
SMALL
GASTEIGER
Energy = 0

@<TRIPOS>ATOM
      1 C           1.0080    0.5920    0.0000 C.2     1  LIG1        0.0783
      2 C           0.7040   -0.3750    0.0000 C.2     1  LIG1        0.1559
      3 O           1.2960   -1.1830    0.0000 O.3     1  LIG1       -0.4205
      4 C           0.7130   -2.0130    0.0000 C.2     1  LIG1        0.3458
      5 C          -0.2420   -1.7080    0.0000 C.ar    1  LIG1        0.0790
      6 C          -0.2420   -0.6830    0.0000 C.ar    1  LIG1        0.0415
      7 C          -1.1170   -0.1920    0.0000 C.ar    1  LIG1        0.0033
      8 C          -1.9830   -0.7000    0.0000 C.ar    1  LIG1        0.0001
      9 C          -1.9830   -1.7080    0.0000 C.ar    1  LIG1        0.0002
     10 C          -1.1170   -2.2000    0.0000 C.ar    1  LIG1        0.0066
     11 O           1.0330   -2.9580    0.0000 O.2     1  LIG1       -0.2445
     12 C           0.1830    1.1380    0.0000 C.2     1  LIG1        0.0910
     13 N           0.4290    2.0790    0.0000 N.am    1  LIG1       -0.5995
     14 C           1.4290    2.1380    0.0000 C.2     1  LIG1       -0.0538
     15 S           1.7790    1.2040    0.0000 S.3     1  LIG1       -0.1006
     16 S           1.9790    2.9630    0.0000 S.2     1  LIG1       -0.0704
     17 O          -0.7540    0.7750    0.0000 O.2     1  LIG1       -0.3123
@<TRIPOS>BOND
     1     1     2    2
     2     1    12    1
     3     1    15    1
     4     2     3    1
     5     2     6    1
     6     3     4    1
     7     4     5    1
     8     4    11    2
     9     5     6   ar
    10     5    10   ar
    11     6     7   ar
    12     7     8   ar
    13     8     9   ar
    14     9    10   ar
    15    12    13   am
    16    12    17    2
    17    13    14    1
    18    14    15    1
    19    14    16    2
