@<TRIPOS>MOLECULE
26076_ChemDiv_8009-5677
 24 26 0 0 0
SMALL
GASTEIGER
Energy = 0

@<TRIPOS>ATOM
      1 N           0.8420    0.0670    0.0000 N.am    1  LIG1       -0.1942
      2 C           1.1500   -0.9040    0.0000 C.2     1  LIG1        0.1256
      3 S           0.3250   -1.4920    0.0000 S.3     1  LIG1       -0.0602
      4 C          -0.4880   -0.9170    0.0000 C.2     1  LIG1        0.0851
      5 C          -0.1830    0.0670    0.0000 C.2     1  LIG1        0.2637
      6 O          -0.7710    0.8540    0.0000 O.2     1  LIG1       -0.2688
      7 C          -1.4250   -1.2420    0.0000 C.2     1  LIG1        0.0111
      8 C          -2.1880   -0.6080    0.0000 C.ar    1  LIG1        0.0008
      9 C          -3.1330   -0.9380    0.0000 C.ar    1  LIG1        0.0031
     10 C          -3.9130   -0.2830    0.0000 C.ar    1  LIG1        0.0369
     11 C          -3.7460    0.7130    0.0000 C.ar    1  LIG1        0.1387
     12 C          -2.7630    1.0290    0.0000 C.ar    1  LIG1        0.0369
     13 C          -2.0210    0.3830    0.0000 C.ar    1  LIG1        0.0031
     14 O          -4.4880    1.3460    0.0000 O.3     1  LIG1       -0.4714
     15 C          -5.4250    1.0290    0.0000 C.3     1  LIG1        0.2525
     16 S           2.0710   -1.2290    0.0000 S.2     1  LIG1       -0.0270
     17 C           1.4290    0.8500    0.0000 C.3     1  LIG1        0.2501
     18 N           2.4250    0.7330    0.0000 N.4     1  LIG1        0.3937
     19 C           3.0580    1.4960    0.0000 C.3     1  LIG1        0.1410
     20 C           4.0370    1.3630    0.0000 C.3     1  LIG1        0.0630
     21 C           4.4330    0.4500    0.0000 C.3     1  LIG1        0.0119
     22 C           3.7750   -0.3380    0.0000 C.3     1  LIG1        0.0630
     23 C           2.7920   -0.1790    0.0000 C.3     1  LIG1        0.1410
     24 C           5.4210    0.3250    0.0000 C.3     1  LIG1        0.0004
@<TRIPOS>BOND
     1     1     2    1
     2     1     5   am
     3     1    17    1
     4     2     3    1
     5     2    16    2
     6     3     4    1
     7     4     5    1
     8     4     7    2
     9     5     6    2
    10     7     8    1
    11     8     9   ar
    12     8    13   ar
    13     9    10   ar
    14    10    11   ar
    15    11    12   ar
    16    11    14    1
    17    12    13   ar
    18    14    15    1
    19    17    18    1
    20    18    19    1
    21    18    23    1
    22    19    20    1
    23    20    21    1
    24    21    22    1
    25    21    24    1
    26    22    23    1
