@<TRIPOS>MOLECULE
26070_ChemDiv_5553-0216
 28 29 0 0 0
SMALL
GASTEIGER
Energy = 0

@<TRIPOS>ATOM
      1 N          -2.8500    0.6380    0.0000 N.am    1  LIG1       -0.2081
      2 C          -3.1500    1.5920    0.0000 C.2     1  LIG1        0.2869
      3 S          -2.3420    2.1790    0.0000 S.3     1  LIG1       -0.0252
      4 C          -1.5380    1.5880    0.0000 C.2     1  LIG1        0.0876
      5 C          -1.8580    0.6380    0.0000 C.2     1  LIG1        0.2619
      6 O          -1.2710   -0.1710    0.0000 O.2     1  LIG1       -0.2689
      7 C          -0.5830    1.8750    0.0000 C.2     1  LIG1        0.0112
      8 C           0.1460    1.2080    0.0000 C.ar    1  LIG1        0.0022
      9 C          -0.0670    0.2380    0.0000 C.ar    1  LIG1        0.0098
     10 C           0.6710   -0.4460    0.0000 C.ar    1  LIG1        0.0693
     11 C           1.6290   -0.1540    0.0000 C.ar    1  LIG1        0.1556
     12 C           1.8420    0.8460    0.0000 C.ar    1  LIG1        0.0920
     13 C           1.1130    1.5130    0.0000 C.ar    1  LIG1        0.0145
     14 CL          2.7960    1.1330    0.0000 Cl      1  LIG1       -0.0791
     15 O           2.3580   -0.8210    0.0000 O.3     1  LIG1       -0.4680
     16 C           3.3170   -0.5170    0.0000 C.3     1  LIG1        0.2469
     17 C           4.0580   -1.2000    0.0000 C.2     1  LIG1        0.0940
     18 O           5.0130   -0.8960    0.0000 O.co2   1  LIG1       -0.5454
     19 O           3.8420   -2.1750    0.0000 O.co2   1  LIG1       -0.5454
     20 BR          0.4420   -1.4250    0.0000 Br      1  LIG1       -0.0458
     21 O          -4.1040    1.9130    0.0000 O.2     1  LIG1       -0.2619
     22 C          -3.4330   -0.1710    0.0000 C.3     1  LIG1        0.1820
     23 C          -3.0290   -1.0830    0.0000 C.2     1  LIG1        0.3357
     24 O          -2.0380   -1.2000    0.0000 O.2     1  LIG1       -0.2482
     25 O          -3.6170   -1.9000    0.0000 O.3     1  LIG1       -0.4474
     26 C          -4.6080   -1.8040    0.0000 C.3     1  LIG1        0.2086
     27 C          -5.0170   -0.8960    0.0000 C.3     1  LIG1        0.0513
     28 C          -4.4250   -0.0670    0.0000 C.3     1  LIG1        0.0341
@<TRIPOS>BOND
     1     1     2   am
     2     1     5   am
     3     1    22    1
     4     2     3    1
     5     2    21    2
     6     3     4    1
     7     4     5    1
     8     4     7    2
     9     5     6    2
    10     7     8    1
    11     8     9   ar
    12     8    13   ar
    13     9    10   ar
    14    10    11   ar
    15    10    20    1
    16    11    12   ar
    17    11    15    1
    18    12    13   ar
    19    12    14    1
    20    15    16    1
    21    16    17    1
    22    17    18   ar
    23    17    19   ar
    24    22    23    1
    25    22    28    1
    26    23    24    2
    27    23    25    1
    28    25    26    1
    29    26    27    1
