@<TRIPOS>MOLECULE
26089_ChemDiv_E613-0049
 34 38 0 0 0
SMALL
GASTEIGER
Energy = 0

@<TRIPOS>ATOM
      1 C           3.2630    0.8420    0.0000 C.ar    1  LIG1        0.1084
      2 C           3.1540   -0.1500    0.0000 C.ar    1  LIG1        0.0933
      3 C           2.1750   -0.3580    0.0000 C.ar    1  LIG1       -0.0121
      4 C           1.6790    0.5080    0.0000 C.ar    1  LIG1        0.0048
      5 S           2.3460    1.2500    0.0000 S.2     1  LIG1       -0.0749
      6 C           0.6790    0.5080    0.0000 C.3     1  LIG1        0.0327
      7 C           0.1790   -0.3580    0.0000 C.3     1  LIG1        0.0055
      8 C           0.6790   -1.2250    0.0000 C.3     1  LIG1        0.0050
      9 C           1.6790   -1.2250    0.0000 C.3     1  LIG1        0.0268
     10 C           3.8960   -0.8210    0.0000 C.2     1  LIG1        0.3427
     11 O           4.8500   -0.5130    0.0000 O.2     1  LIG1       -0.2448
     12 O           3.6920   -1.8000    0.0000 O.3     1  LIG1       -0.4454
     13 C           2.7420   -2.1080    0.0000 C.3     1  LIG1        0.2089
     14 C           2.5290   -3.0880    0.0000 C.3     1  LIG1        0.0513
     15 N           4.1250    1.3420    0.0000 N.am    1  LIG1       -0.1703
     16 C           4.1250    2.3460    0.0000 C.2     1  LIG1        0.2762
     17 O           4.9380    2.9330    0.0000 O.2     1  LIG1       -0.2702
     18 C           3.2170    2.7500    0.0000 C.3     1  LIG1        0.2294
     19 O           2.4040    2.1630    0.0000 O.3     1  LIG1       -0.3377
     20 C           1.4920    2.5710    0.0000 C.3     1  LIG1        0.1915
     21 C           0.6790    1.9830    0.0000 C.ar    1  LIG1        0.1305
     22 N           0.6790    0.9790    0.0000 N.ar    1  LIG1       -0.0788
     23 O          -0.2750    0.6710    0.0000 O.2     1  LIG1       -0.3536
     24 C          -0.8580    1.4830    0.0000 C.ar    1  LIG1        0.1767
     25 C          -0.2750    2.2920    0.0000 C.ar    1  LIG1        0.0607
     26 C          -1.8580    1.4830    0.0000 C.ar    1  LIG1        0.0404
     27 C          -2.3580    2.3500    0.0000 C.ar    1  LIG1        0.0433
     28 C          -3.3580    2.3500    0.0000 C.ar    1  LIG1        0.1765
     29 C          -3.8580    1.4830    0.0000 C.ar    1  LIG1        0.1764
     30 O          -4.8380    1.6920    0.0000 O.3     1  LIG1       -0.4346
     31 C          -4.9420    2.6830    0.0000 C.3     1  LIG1        0.4294
     32 O          -4.0290    3.0920    0.0000 O.3     1  LIG1       -0.4346
     33 C          -3.3580    0.6170    0.0000 C.ar    1  LIG1        0.0403
     34 C          -2.3580    0.6170    0.0000 C.ar    1  LIG1        0.0064
@<TRIPOS>BOND
     1     1     2   ar
     2     1     5   ar
     3     1    15    1
     4     2     3   ar
     5     2    10    1
     6     3     4   ar
     7     3     9    1
     8     4     5   ar
     9     4     6    1
    10     6     7    1
    11     7     8    1
    12     8     9    1
    13    10    11    2
    14    10    12    1
    15    12    13    1
    16    13    14    1
    17    15    16   am
    18    16    17    2
    19    16    18    1
    20    18    19    1
    21    19    20    1
    22    20    21    1
    23    21    22   ar
    24    21    25   ar
    25    22    23   ar
    26    23    24   ar
    27    24    25   ar
    28    24    26    1
    29    26    27   ar
    30    26    34   ar
    31    27    28   ar
    32    28    29   ar
    33    28    32    1
    34    29    30    1
    35    29    33   ar
    36    30    31    1
    37    31    32    1
    38    33    34   ar
