@<TRIPOS>MOLECULE
26088_ChemDiv_1106-1161
 18 19 0 0 0
SMALL
GASTEIGER
Energy = 0

@<TRIPOS>ATOM
      1 N          -0.1290   -0.6670    0.0000 N.ar    1  LIG1       -0.2530
      2 C           0.4540   -1.4920    0.0000 C.ar    1  LIG1        0.4224
      3 O          -0.1290   -2.3080    0.0000 O.2     1  LIG1       -0.4068
      4 C          -1.0960   -1.9920    0.0000 C.ar    1  LIG1        0.1660
      5 C          -1.0960   -0.9830    0.0000 C.ar    1  LIG1        0.1005
      6 C          -1.9460   -0.4750    0.0000 C.ar    1  LIG1        0.0205
      7 C          -2.8080   -0.9500    0.0000 C.ar    1  LIG1        0.0017
      8 C          -2.8080   -1.9920    0.0000 C.ar    1  LIG1        0.0032
      9 C          -1.9460   -2.5000    0.0000 C.ar    1  LIG1        0.0392
     10 O           1.4460   -1.4920    0.0000 O.2     1  LIG1       -0.2226
     11 C           0.1880    0.2540    0.0000 C.3     1  LIG1        0.1972
     12 C           1.1670    0.4460    0.0000 C.2     1  LIG1        0.2489
     13 N           1.5040    1.4000    0.0000 N.am    1  LIG1       -0.2780
     14 C           2.4710    1.5830    0.0000 C.3     1  LIG1        0.0935
     15 C           2.8040    2.5040    0.0000 C.3     1  LIG1        0.0233
     16 C           0.8670    2.1420    0.0000 C.3     1  LIG1        0.0935
     17 C          -0.1290    1.9580    0.0000 C.3     1  LIG1        0.0233
     18 O           1.8330   -0.3040    0.0000 O.2     1  LIG1       -0.2728
@<TRIPOS>BOND
     1     1     2   ar
     2     1     5   ar
     3     1    11    1
     4     2     3   ar
     5     2    10    2
     6     3     4   ar
     7     4     5   ar
     8     4     9   ar
     9     5     6   ar
    10     6     7   ar
    11     7     8   ar
    12     8     9   ar
    13    11    12    1
    14    12    13   am
    15    12    18    2
    16    13    14    1
    17    13    16    1
    18    14    15    1
    19    16    17    1
