@<TRIPOS>MOLECULE
26083_ChemDiv_D001-0061
 29 32 0 0 0
SMALL
GASTEIGER
Energy = 0

@<TRIPOS>ATOM
      1 C           0.4960    0.1250    0.0000 C.ar    1  LIG1        0.1084
      2 C           1.3040    0.7080    0.0000 C.ar    1  LIG1        0.0933
      3 C           1.0000    1.6580    0.0000 C.ar    1  LIG1       -0.0121
      4 C          -0.0040    1.6580    0.0000 C.ar    1  LIG1        0.0048
      5 S          -0.3130    0.7080    0.0000 S.2     1  LIG1       -0.0749
      6 C          -0.5000    2.5170    0.0000 C.3     1  LIG1        0.0327
      7 C           0.0080    3.3830    0.0000 C.3     1  LIG1        0.0055
      8 C           1.0080    3.3790    0.0000 C.3     1  LIG1        0.0050
      9 C           1.5000    2.5130    0.0000 C.3     1  LIG1        0.0268
     10 C           2.2540    0.3960    0.0000 C.2     1  LIG1        0.3427
     11 O           2.4580   -0.5830    0.0000 O.2     1  LIG1       -0.2448
     12 O           3.0000    1.0630    0.0000 O.3     1  LIG1       -0.4454
     13 C           3.9460    0.7500    0.0000 C.3     1  LIG1        0.2089
     14 C           4.6960    1.4170    0.0000 C.3     1  LIG1        0.0513
     15 N           0.4960   -0.8750    0.0000 N.am    1  LIG1       -0.1695
     16 C          -0.3670   -1.3710    0.0000 C.2     1  LIG1        0.2827
     17 C          -1.2290   -0.8750    0.0000 C.3     1  LIG1        0.2097
     18 O          -1.2290   -1.8830    0.0000 O.3     1  LIG1       -0.4434
     19 C          -2.1080   -2.3830    0.0000 C.2     1  LIG1        0.3411
     20 C          -2.9750   -1.8830    0.0000 C.ar    1  LIG1        0.0718
     21 C          -2.9710   -0.8750    0.0000 C.ar    1  LIG1       -0.0119
     22 C          -2.1000   -0.3630    0.0000 C.3     1  LIG1        0.0757
     23 C          -3.8330   -0.3750    0.0000 C.ar    1  LIG1       -0.0039
     24 C          -4.7000   -0.8750    0.0000 C.ar    1  LIG1       -0.0003
     25 C          -4.7000   -1.8790    0.0000 C.ar    1  LIG1        0.0002
     26 C          -3.8330   -2.3750    0.0000 C.ar    1  LIG1        0.0061
     27 O          -2.1080   -3.3790    0.0000 O.2     1  LIG1       -0.2449
     28 C          -0.7330    0.0000    0.0000 C.3     1  LIG1        0.0537
     29 O          -0.3710   -2.3710    0.0000 O.2     1  LIG1       -0.2692
@<TRIPOS>BOND
     1     1     2   ar
     2     1     5   ar
     3     1    15    1
     4     2     3   ar
     5     2    10    1
     6     3     4   ar
     7     3     9    1
     8     4     5   ar
     9     4     6    1
    10     6     7    1
    11     7     8    1
    12     8     9    1
    13    10    11    2
    14    10    12    1
    15    12    13    1
    16    13    14    1
    17    15    16   am
    18    16    17    1
    19    16    29    2
    20    17    18    1
    21    17    22    1
    22    17    28    1
    23    18    19    1
    24    19    20    1
    25    19    27    2
    26    20    21   ar
    27    20    26   ar
    28    21    22    1
    29    21    23   ar
    30    23    24   ar
    31    24    25   ar
    32    25    26   ar
