@<TRIPOS>MOLECULE
26085_ChemDiv_D133-0050
 31 33 0 0 0
SMALL
GASTEIGER
Energy = 0

@<TRIPOS>ATOM
      1 C           1.4960   -2.4380    0.0000 C.ar    1  LIG1        0.1084
      2 C           1.6000   -3.4170    0.0000 C.ar    1  LIG1        0.0933
      3 C           2.5790   -3.6290    0.0000 C.ar    1  LIG1       -0.0121
      4 C           3.0750   -2.7630    0.0000 C.ar    1  LIG1        0.0048
      5 S           2.3960   -2.0210    0.0000 S.2     1  LIG1       -0.0749
      6 C           4.0630   -2.7500    0.0000 C.3     1  LIG1        0.0327
      7 C           4.5670   -3.6000    0.0000 C.3     1  LIG1        0.0055
      8 C           4.0790   -4.4790    0.0000 C.3     1  LIG1        0.0050
      9 C           3.0790   -4.4880    0.0000 C.3     1  LIG1        0.0268
     10 C           0.8580   -4.0960    0.0000 C.2     1  LIG1        0.3427
     11 O           1.0580   -5.0710    0.0000 O.2     1  LIG1       -0.2448
     12 O          -0.1000   -3.7790    0.0000 O.3     1  LIG1       -0.4454
     13 C          -0.8420   -4.4580    0.0000 C.3     1  LIG1        0.2089
     14 C          -1.7920   -4.1460    0.0000 C.3     1  LIG1        0.0513
     15 N           0.6290   -1.9380    0.0000 N.am    1  LIG1       -0.1717
     16 C           0.6290   -0.9420    0.0000 C.2     1  LIG1        0.2575
     17 O           1.4960   -0.4420    0.0000 O.2     1  LIG1       -0.2720
     18 C          -0.2330   -0.4420    0.0000 C.3     1  LIG1        0.1520
     19 S          -0.2330    0.5630    0.0000 S.3     1  LIG1       -0.0658
     20 C          -1.1080    1.0630    0.0000 C.ar    1  LIG1        0.1917
     21 N          -1.1080    2.0710    0.0000 N.ar    1  LIG1       -0.2027
     22 C          -1.9750    2.5710    0.0000 C.ar    1  LIG1        0.1795
     23 C          -2.8420    2.0630    0.0000 C.ar    1  LIG1        0.1295
     24 C          -3.7040    2.5710    0.0000 C.2     1  LIG1        0.3456
     25 O          -4.5710    2.0710    0.0000 O.2     1  LIG1       -0.2447
     26 O          -3.7040    3.5710    0.0000 O.3     1  LIG1       -0.4453
     27 C          -4.5710    4.0670    0.0000 C.3     1  LIG1        0.2089
     28 C          -4.5710    5.0710    0.0000 C.3     1  LIG1        0.0513
     29 C          -2.8420    1.0630    0.0000 C.ar    1  LIG1        0.1104
     30 N          -1.9750    0.5630    0.0000 N.ar    1  LIG1       -0.2193
     31 N          -1.9790    3.5710    0.0000 N.pl3   1  LIG1       -0.1069
@<TRIPOS>BOND
     1     1     2   ar
     2     1     5   ar
     3     1    15    1
     4     2     3   ar
     5     2    10    1
     6     3     4   ar
     7     3     9    1
     8     4     5   ar
     9     4     6    1
    10     6     7    1
    11     7     8    1
    12     8     9    1
    13    10    11    2
    14    10    12    1
    15    12    13    1
    16    13    14    1
    17    15    16   am
    18    16    17    2
    19    16    18    1
    20    18    19    1
    21    19    20    1
    22    20    21   ar
    23    20    30   ar
    24    21    22   ar
    25    22    23   ar
    26    22    31    1
    27    23    24    1
    28    23    29   ar
    29    24    25    2
    30    24    26    1
    31    26    27    1
    32    27    28    1
    33    29    30   ar
