@<TRIPOS>MOLECULE
26087_ChemDiv_E540-0496
 28 31 0 0 0
SMALL
GASTEIGER
Energy = 0

@<TRIPOS>ATOM
      1 C          -3.7170   -1.1250    0.0000 C.ar    1  LIG1        0.0370
      2 C          -4.6710   -1.4380    0.0000 C.ar    1  LIG1       -0.0181
      3 C          -4.6710   -2.4330    0.0000 C.ar    1  LIG1        0.0032
      4 S          -3.7170   -2.7420    0.0000 S.2     1  LIG1       -0.0912
      5 C          -3.1290   -1.9380    0.0000 C.ar    1  LIG1        0.0362
      6 C          -5.5290   -2.9380    0.0000 C.3     1  LIG1        0.0326
      7 C          -6.3880   -2.4380    0.0000 C.3     1  LIG1        0.0055
      8 C          -6.3880   -1.4380    0.0000 C.3     1  LIG1        0.0050
      9 C          -5.5290   -0.9290    0.0000 C.3     1  LIG1        0.0264
     10 C          -3.4000   -0.1710    0.0000 C.3     1  LIG1        0.1664
     11 N          -2.4210    0.0250    0.0000 N.4     1  LIG1        0.3807
     12 C          -1.7540   -0.7250    0.0000 C.3     1  LIG1        0.1395
     13 C          -0.7790   -0.5210    0.0000 C.3     1  LIG1        0.0721
     14 C          -0.4580    0.4330    0.0000 C.3     1  LIG1        0.0904
     15 C           0.5210    0.6330    0.0000 C.2     1  LIG1        0.2455
     16 N           0.8380    1.5880    0.0000 N.am    1  LIG1       -0.1792
     17 C           1.8210    1.7830    0.0000 C.ar    1  LIG1        0.0736
     18 C           2.4880    1.0380    0.0000 C.ar    1  LIG1        0.0197
     19 C           3.4580    1.2330    0.0000 C.ar    1  LIG1        0.0382
     20 C           3.7750    2.1830    0.0000 C.ar    1  LIG1        0.1386
     21 C           3.1080    2.9420    0.0000 C.ar    1  LIG1        0.0382
     22 C           2.1290    2.7290    0.0000 C.ar    1  LIG1        0.0197
     23 O           4.7580    2.3790    0.0000 O.3     1  LIG1       -0.4755
     24 C           5.4170    1.6420    0.0000 C.3     1  LIG1        0.2055
     25 C           6.3880    1.8380    0.0000 C.3     1  LIG1        0.0512
     26 O           1.1920   -0.1130    0.0000 O.2     1  LIG1       -0.2730
     27 C          -1.1330    1.1790    0.0000 C.3     1  LIG1        0.0721
     28 C          -2.1170    0.9750    0.0000 C.3     1  LIG1        0.1395
@<TRIPOS>BOND
     1     1     2   ar
     2     1     5   ar
     3     1    10    1
     4     2     3   ar
     5     2     9    1
     6     3     4   ar
     7     3     6    1
     8     4     5   ar
     9     6     7    1
    10     7     8    1
    11     8     9    1
    12    10    11    1
    13    11    12    1
    14    11    28    1
    15    12    13    1
    16    13    14    1
    17    14    15    1
    18    14    27    1
    19    15    16   am
    20    15    26    2
    21    16    17    1
    22    17    18   ar
    23    17    22   ar
    24    18    19   ar
    25    19    20   ar
    26    20    21   ar
    27    20    23    1
    28    21    22   ar
    29    23    24    1
    30    24    25    1
    31    27    28    1
