@<TRIPOS>MOLECULE
26081_ChemDiv_C794-0396
 20 21 0 0 0
SMALL
GASTEIGER
Energy = 0

@<TRIPOS>ATOM
      1 C          -0.3710   -0.4830    0.0000 C.ar    1  LIG1        0.0935
      2 C          -0.9630    0.3080    0.0000 C.ar    1  LIG1        0.0845
      3 C          -1.9170    0.0040    0.0000 C.ar    1  LIG1       -0.0088
      4 C          -1.9040   -0.9960    0.0000 C.ar    1  LIG1        0.0052
      5 S          -0.9500   -1.3000    0.0000 S.2     1  LIG1       -0.0760
      6 C          -2.7750   -1.4960    0.0000 C.3     1  LIG1        0.0327
      7 C          -3.6380   -1.0080    0.0000 C.3     1  LIG1        0.0055
      8 C          -3.6380    0.0040    0.0000 C.3     1  LIG1        0.0051
      9 C          -2.7750    0.5080    0.0000 C.3     1  LIG1        0.0273
     10 C          -0.6580    1.2710    0.0000 C.1     1  LIG1        0.1019
     11 N          -0.3540    2.2210    0.0000 N.1     1  LIG1       -0.1908
     12 N           0.6250   -0.4830    0.0000 N.am    1  LIG1       -0.2421
     13 C           1.1420   -1.3460    0.0000 C.2     1  LIG1        0.2306
     14 O           2.1380   -1.3420    0.0000 O.2     1  LIG1       -0.2745
     15 C           0.6420   -2.2170    0.0000 C.3     1  LIG1        0.0952
     16 C           1.1250    0.3830    0.0000 C.3     1  LIG1        0.2084
     17 C           2.1250    0.3960    0.0000 C.2     1  LIG1        0.3380
     18 O           2.6170    1.2540    0.0000 O.2     1  LIG1       -0.2482
     19 O           2.6330   -0.4710    0.0000 O.3     1  LIG1       -0.4432
     20 C           3.6330   -0.4710    0.0000 C.3     1  LIG1        0.2557
@<TRIPOS>BOND
     1     1     2   ar
     2     1     5   ar
     3     1    12    1
     4     2     3   ar
     5     2    10    1
     6     3     4   ar
     7     3     9    1
     8     4     5   ar
     9     4     6    1
    10     6     7    1
    11     7     8    1
    12     8     9    1
    13    10    11    3
    14    12    13   am
    15    12    16    1
    16    13    14    2
    17    13    15    1
    18    16    17    1
    19    17    18    2
    20    17    19    1
    21    19    20    1
