@<TRIPOS>MOLECULE
26082_ChemDiv_6049-2930
 28 32 0 0 0
SMALL
GASTEIGER
Energy = 0

@<TRIPOS>ATOM
      1 C           1.6710   -0.9710    0.0000 C.2     1  LIG1        0.3235
      2 N           0.6710   -0.9710    0.0000 N.am    1  LIG1       -0.2509
      3 C           0.1670   -1.8420    0.0000 C.3     1  LIG1        0.1578
      4 C          -0.8420   -1.8420    0.0000 C.3     1  LIG1        0.1610
      5 N          -1.3330   -0.9710    0.0000 N.4     1  LIG1        0.3834
      6 C          -0.8290   -0.1000    0.0000 C.3     1  LIG1        0.1610
      7 C           0.1670   -0.1000    0.0000 C.3     1  LIG1        0.1578
      8 C          -2.3290   -0.9710    0.0000 C.3     1  LIG1        0.1662
      9 C          -2.8170   -0.1130    0.0000 C.2     1  LIG1        0.0359
     10 C          -3.8170   -0.1130    0.0000 C.2     1  LIG1        0.0013
     11 C          -4.3040    0.7420    0.0000 C.ar    1  LIG1       -0.0001
     12 C          -3.8170    1.6080    0.0000 C.ar    1  LIG1       -0.0000
     13 C          -4.3210    2.4790    0.0000 C.ar    1  LIG1       -0.0000
     14 C          -5.3130    2.4790    0.0000 C.ar    1  LIG1       -0.0000
     15 C          -5.8170    1.5960    0.0000 C.ar    1  LIG1       -0.0000
     16 C          -5.3130    0.7420    0.0000 C.ar    1  LIG1       -0.0000
     17 N           2.1710   -1.8380    0.0000 N.am    1  LIG1       -0.1919
     18 C           3.1670   -1.8380    0.0000 C.3     1  LIG1        0.0802
     19 C           3.8000   -2.4630    0.0000 C.3     1  LIG1        0.0201
     20 C           4.6580   -2.2670    0.0000 C.3     1  LIG1        0.0017
     21 C           4.9540   -1.4170    0.0000 C.3     1  LIG1        0.0001
     22 C           4.2540   -0.7380    0.0000 C.3     1  LIG1        0.0017
     23 C           3.3580   -0.9880    0.0000 C.3     1  LIG1        0.0201
     24 C           5.4000   -0.6000    0.0000 C.3     1  LIG1        0.0001
     25 C           5.1920   -1.6880    0.0000 C.3     1  LIG1        0.0017
     26 C           4.0790   -2.0710    0.0000 C.3     1  LIG1        0.0201
     27 C           5.8130   -2.4750    0.0000 C.3     1  LIG1        0.0001
     28 O           2.1750   -0.1080    0.0000 O.2     1  LIG1       -0.2508
@<TRIPOS>BOND
     1     1     2   am
     2     1    17   am
     3     1    28    2
     4     2     3    1
     5     2     7    1
     6     3     4    1
     7     4     5    1
     8     5     6    1
     9     5     8    1
    10     6     7    1
    11     8     9    1
    12     9    10    2
    13    10    11    1
    14    11    12   ar
    15    11    16   ar
    16    12    13   ar
    17    13    14   ar
    18    14    15   ar
    19    15    16   ar
    20    17    18    1
    21    18    19    1
    22    18    23    1
    23    18    26    1
    24    19    20    1
    25    20    21    1
    26    20    27    1
    27    21    22    1
    28    22    23    1
    29    22    24    1
    30    24    25    1
    31    25    26    1
    32    25    27    1
