@<TRIPOS>MOLECULE
26092_ChemDiv_6313-0060
 32 35 0 0 0
SMALL
GASTEIGER
Energy = 0

@<TRIPOS>ATOM
      1 S           2.5250    0.1000    0.0000 S.O2    1  LIG1       -0.0559
      2 N           3.4920   -0.1580    0.0000 N.pl3   1  LIG1       -0.5049
      3 C           3.7500   -1.1290    0.0000 C.ar    1  LIG1        0.0581
      4 N           4.7080   -1.3880    0.0000 N.ar    1  LIG1       -0.2544
      5 C           4.9790   -2.3420    0.0000 C.ar    1  LIG1        0.0601
      6 C           4.2670   -3.0540    0.0000 C.ar    1  LIG1        0.0294
      7 C           3.3000   -2.8000    0.0000 C.ar    1  LIG1        0.0601
      8 N           3.0420   -1.8250    0.0000 N.ar    1  LIG1       -0.2544
      9 C           2.5830   -3.4960    0.0000 C.3     1  LIG1        0.0521
     10 C           5.9380   -2.6130    0.0000 C.3     1  LIG1        0.0521
     11 C           1.5540    0.3630    0.0000 C.ar    1  LIG1        0.0894
     12 C           0.8420   -0.3380    0.0000 C.ar    1  LIG1        0.0182
     13 C          -0.1210   -0.0670    0.0000 C.ar    1  LIG1        0.0179
     14 C          -0.3750    0.8920    0.0000 C.ar    1  LIG1        0.0735
     15 N          -1.3330    1.1540    0.0000 N.am    1  LIG1       -0.1776
     16 C          -2.0500    0.4500    0.0000 C.2     1  LIG1        0.2688
     17 C          -3.0130    0.7250    0.0000 C.3     1  LIG1        0.1991
     18 N          -3.2630    1.6830    0.0000 N.ar    1  LIG1       -0.2530
     19 C          -2.6710    2.4880    0.0000 C.ar    1  LIG1        0.4224
     20 O          -3.2630    3.3170    0.0000 O.2     1  LIG1       -0.4068
     21 C          -4.2130    3.0000    0.0000 C.ar    1  LIG1        0.1660
     22 C          -4.2130    1.9960    0.0000 C.ar    1  LIG1        0.1005
     23 C          -5.0790    1.5130    0.0000 C.ar    1  LIG1        0.0205
     24 C          -5.9420    2.0130    0.0000 C.ar    1  LIG1        0.0017
     25 C          -5.9330    3.0130    0.0000 C.ar    1  LIG1        0.0032
     26 C          -5.0630    3.5000    0.0000 C.ar    1  LIG1        0.0392
     27 O          -1.6710    2.4830    0.0000 O.2     1  LIG1       -0.2226
     28 O          -1.8000   -0.5170    0.0000 O.2     1  LIG1       -0.2709
     29 C           0.3330    1.6040    0.0000 C.ar    1  LIG1        0.0179
     30 C           1.2960    1.3330    0.0000 C.ar    1  LIG1        0.0182
     31 O           2.7830    1.0710    0.0000 O.2     1  LIG1       -0.1841
     32 O           2.2630   -0.8670    0.0000 O.2     1  LIG1       -0.1841
@<TRIPOS>BOND
     1     1     2    1
     2     1    11    1
     3     1    31    2
     4     1    32    2
     5     2     3    1
     6     3     4   ar
     7     3     8   ar
     8     4     5   ar
     9     5     6   ar
    10     5    10    1
    11     6     7   ar
    12     7     8   ar
    13     7     9    1
    14    11    12   ar
    15    11    30   ar
    16    12    13   ar
    17    13    14   ar
    18    14    15    1
    19    14    29   ar
    20    15    16   am
    21    16    17    1
    22    16    28    2
    23    17    18    1
    24    18    19   ar
    25    18    22   ar
    26    19    20   ar
    27    19    27    2
    28    20    21   ar
    29    21    22   ar
    30    21    26   ar
    31    22    23   ar
    32    23    24   ar
    33    24    25   ar
    34    25    26   ar
    35    29    30   ar
