@<TRIPOS>MOLECULE
26094_ChemDiv_6681-0065
 23 25 0 0 0
SMALL
GASTEIGER
Energy = 0

@<TRIPOS>ATOM
      1 N          -1.9040    0.3710    0.0000 N.ar    1  LIG1       -0.2530
      2 C          -1.3170    1.1710    0.0000 C.ar    1  LIG1        0.4224
      3 O          -1.9040    2.0000    0.0000 O.2     1  LIG1       -0.4068
      4 C          -2.8500    1.6830    0.0000 C.ar    1  LIG1        0.1660
      5 C          -2.8500    0.6830    0.0000 C.ar    1  LIG1        0.1005
      6 C          -3.7130    0.2000    0.0000 C.ar    1  LIG1        0.0205
      7 C          -4.5880    0.6960    0.0000 C.ar    1  LIG1        0.0017
      8 C          -4.5710    1.7000    0.0000 C.ar    1  LIG1        0.0032
      9 C          -3.6960    2.1830    0.0000 C.ar    1  LIG1        0.0392
     10 O          -0.3170    1.1670    0.0000 O.2     1  LIG1       -0.2226
     11 C          -1.6670   -0.5920    0.0000 C.3     1  LIG1        0.1991
     12 C          -0.6920   -0.8630    0.0000 C.2     1  LIG1        0.2688
     13 N           0.0170   -0.1630    0.0000 N.am    1  LIG1       -0.1776
     14 C           0.9830   -0.4250    0.0000 C.ar    1  LIG1        0.0734
     15 C           1.6880    0.2880    0.0000 C.ar    1  LIG1        0.0166
     16 C           2.6540    0.0210    0.0000 C.ar    1  LIG1        0.0025
     17 C           2.9130   -0.9500    0.0000 C.ar    1  LIG1        0.0141
     18 C           3.8830   -1.2130    0.0000 C.2     1  LIG1        0.0729
     19 O           4.5830   -0.5000    0.0000 O.co2   1  LIG1       -0.5446
     20 O           4.1380   -2.1790    0.0000 O.co2   1  LIG1       -0.5446
     21 C           2.1960   -1.6540    0.0000 C.ar    1  LIG1        0.0025
     22 C           1.2330   -1.3920    0.0000 C.ar    1  LIG1        0.0166
     23 O          -0.4420   -1.8290    0.0000 O.2     1  LIG1       -0.2709
@<TRIPOS>BOND
     1     1     2   ar
     2     1     5   ar
     3     1    11    1
     4     2     3   ar
     5     2    10    2
     6     3     4   ar
     7     4     5   ar
     8     4     9   ar
     9     5     6   ar
    10     6     7   ar
    11     7     8   ar
    12     8     9   ar
    13    11    12    1
    14    12    13   am
    15    12    23    2
    16    13    14    1
    17    14    15   ar
    18    14    22   ar
    19    15    16   ar
    20    16    17   ar
    21    17    18    1
    22    17    21   ar
    23    18    19   ar
    24    18    20   ar
    25    21    22   ar
