@<TRIPOS>MOLECULE
26090_ChemDiv_5941-1280
 21 23 0 0 0
SMALL
GASTEIGER
Energy = 0

@<TRIPOS>ATOM
      1 N          -1.5500    0.1920    0.0000 N.ar    1  LIG1       -0.2530
      2 C          -0.9580    0.9960    0.0000 C.ar    1  LIG1        0.4224
      3 O          -1.5500    1.8250    0.0000 O.2     1  LIG1       -0.4068
      4 C          -2.4960    1.5080    0.0000 C.ar    1  LIG1        0.1660
      5 C          -2.4960    0.5080    0.0000 C.ar    1  LIG1        0.1005
      6 C          -3.3580    0.0210    0.0000 C.ar    1  LIG1        0.0205
      7 C          -4.2330    0.5330    0.0000 C.ar    1  LIG1        0.0017
      8 C          -4.2210    1.5250    0.0000 C.ar    1  LIG1        0.0032
      9 C          -3.3540    2.0130    0.0000 C.ar    1  LIG1        0.0392
     10 O           0.0420    0.9880    0.0000 O.2     1  LIG1       -0.2226
     11 C          -1.3080   -0.7670    0.0000 C.3     1  LIG1        0.1991
     12 C          -0.3380   -1.0420    0.0000 C.2     1  LIG1        0.2688
     13 N           0.3750   -0.3420    0.0000 N.am    1  LIG1       -0.1776
     14 C           1.3380   -0.5960    0.0000 C.ar    1  LIG1        0.0735
     15 C           2.0460    0.1080    0.0000 C.ar    1  LIG1        0.0171
     16 C           3.0080   -0.1460    0.0000 C.ar    1  LIG1        0.0080
     17 C           3.2540   -1.1290    0.0000 C.ar    1  LIG1        0.0347
     18 BR          4.2290   -1.3920    0.0000 Br      1  LIG1       -0.0490
     19 C           2.5540   -1.8290    0.0000 C.ar    1  LIG1        0.0080
     20 C           1.5830   -1.5580    0.0000 C.ar    1  LIG1        0.0171
     21 O          -0.0830   -2.0080    0.0000 O.2     1  LIG1       -0.2709
@<TRIPOS>BOND
     1     1     2   ar
     2     1     5   ar
     3     1    11    1
     4     2     3   ar
     5     2    10    2
     6     3     4   ar
     7     4     5   ar
     8     4     9   ar
     9     5     6   ar
    10     6     7   ar
    11     7     8   ar
    12     8     9   ar
    13    11    12    1
    14    12    13   am
    15    12    21    2
    16    13    14    1
    17    14    15   ar
    18    14    20   ar
    19    15    16   ar
    20    16    17   ar
    21    17    18    1
    22    17    19   ar
    23    19    20   ar
