@<TRIPOS>MOLECULE
26095_ChemDiv_K403-1106
 35 38 0 0 0
SMALL
GASTEIGER
Energy = 0

@<TRIPOS>ATOM
      1 C          -3.9670   -1.0880    0.0000 C.ar    1  LIG1        0.1084
      2 C          -3.9830   -0.1460    0.0000 C.ar    1  LIG1        0.0933
      3 C          -5.5880   -0.1630    0.0000 C.ar    1  LIG1       -0.0121
      4 C          -5.5790   -1.1080    0.0000 C.ar    1  LIG1        0.0048
      5 S          -4.7630   -1.5580    0.0000 S.2     1  LIG1       -0.0749
      6 C          -6.3630   -1.5710    0.0000 C.3     1  LIG1        0.0327
      7 C          -7.1880   -1.1210    0.0000 C.3     1  LIG1        0.0055
      8 C          -7.2000   -0.1750    0.0000 C.3     1  LIG1        0.0050
      9 C          -6.3920    0.3040    0.0000 C.3     1  LIG1        0.0268
     10 C          -3.2830    0.5580    0.0000 C.2     1  LIG1        0.3427
     11 O          -2.4250    0.4540    0.0000 O.2     1  LIG1       -0.2448
     12 O          -3.6380    1.5630    0.0000 O.3     1  LIG1       -0.4454
     13 C          -4.7040    1.6670    0.0000 C.3     1  LIG1        0.2089
     14 C          -5.0040    2.6130    0.0000 C.3     1  LIG1        0.0513
     15 N          -3.0880   -1.5710    0.0000 N.am    1  LIG1       -0.1717
     16 C          -1.8880   -0.8500    0.0000 C.2     1  LIG1        0.2561
     17 C          -1.1000   -1.1210    0.0000 C.3     1  LIG1        0.1329
     18 S          -0.2330   -0.3710    0.0000 S.3     1  LIG1       -0.0672
     19 C           0.7540   -0.4750    0.0000 C.ar    1  LIG1        0.1934
     20 N           1.5670    0.1080    0.0000 N.ar    1  LIG1       -0.2904
     21 C           2.3670   -0.4750    0.0000 C.ar    1  LIG1        0.1658
     22 N           2.0630   -1.4330    0.0000 N.ar    1  LIG1       -0.1310
     23 N           1.0630   -1.4330    0.0000 N.ar    1  LIG1       -0.1224
     24 C           3.3080   -0.1750    0.0000 C.3     1  LIG1        0.1809
     25 N           4.0500   -0.8380    0.0000 N.am    1  LIG1       -0.1908
     26 C           4.9920   -0.5380    0.0000 C.2     1  LIG1        0.2999
     27 C           5.7290   -1.1960    0.0000 C.ar    1  LIG1        0.2002
     28 O           6.7210   -0.9960    0.0000 O.2     1  LIG1       -0.4458
     29 C           7.2000   -1.8580    0.0000 C.ar    1  LIG1        0.1798
     30 C           6.5380   -2.6080    0.0000 C.ar    1  LIG1        0.0440
     31 C           5.6250   -2.2040    0.0000 C.ar    1  LIG1        0.0455
     32 O           5.1920    0.4420    0.0000 O.2     1  LIG1       -0.2650
     33 C           1.5670    1.1000    0.0000 C.3     1  LIG1        0.1337
     34 C          -0.9830   -1.9460    0.0000 C.3     1  LIG1        0.0219
     35 O          -1.8420   -0.0250    0.0000 O.2     1  LIG1       -0.2720
@<TRIPOS>BOND
     1     1     2   ar
     2     1     5   ar
     3     1    15    1
     4     2     3   ar
     5     2    10    1
     6     3     4   ar
     7     3     9    1
     8     4     5   ar
     9     4     6    1
    10     6     7    1
    11     7     8    1
    12     8     9    1
    13    10    11    2
    14    10    12    1
    15    12    13    1
    16    13    14    1
    17    15    16   am
    18    16    17    1
    19    16    35    2
    20    17    18    1
    21    17    34    1
    22    18    19    1
    23    19    20   ar
    24    19    23   ar
    25    20    21   ar
    26    20    33    1
    27    21    22   ar
    28    21    24    1
    29    22    23   ar
    30    24    25    1
    31    25    26   am
    32    26    27    1
    33    26    32    2
    34    27    28   ar
    35    27    31   ar
    36    28    29   ar
    37    29    30   ar
    38    30    31   ar
