@<TRIPOS>MOLECULE
26096_ChemDiv_6681-0070
 28 30 0 0 0
SMALL
GASTEIGER
Energy = 0

@<TRIPOS>ATOM
      1 S           2.6710   -1.8040    0.0000 S.O2    1  LIG1        0.0633
      2 C           1.7040   -1.5420    0.0000 C.ar    1  LIG1        0.1223
      3 C           1.4460   -0.5710    0.0000 C.ar    1  LIG1        0.0212
      4 C           0.4880   -0.3040    0.0000 C.ar    1  LIG1        0.0180
      5 C          -0.2210   -1.0000    0.0000 C.ar    1  LIG1        0.0735
      6 N          -1.1920   -0.7290    0.0000 N.am    1  LIG1       -0.1776
      7 C          -1.4330    0.2460    0.0000 C.2     1  LIG1        0.2688
      8 C          -2.3960    0.5170    0.0000 C.3     1  LIG1        0.1991
      9 N          -2.6500    1.4750    0.0000 N.ar    1  LIG1       -0.2530
     10 C          -2.0580    2.2790    0.0000 C.ar    1  LIG1        0.4224
     11 O          -2.6500    3.1080    0.0000 O.2     1  LIG1       -0.4068
     12 C          -3.5880    2.7960    0.0000 C.ar    1  LIG1        0.1660
     13 C          -3.5880    1.7960    0.0000 C.ar    1  LIG1        0.1005
     14 C          -4.4500    1.3040    0.0000 C.ar    1  LIG1        0.0205
     15 C          -5.3170    1.8080    0.0000 C.ar    1  LIG1        0.0017
     16 C          -5.3130    2.8130    0.0000 C.ar    1  LIG1        0.0032
     17 C          -4.4380    3.2960    0.0000 C.ar    1  LIG1        0.0392
     18 O          -1.0540    2.2750    0.0000 O.2     1  LIG1       -0.2226
     19 O          -0.7130    0.9380    0.0000 O.2     1  LIG1       -0.2709
     20 C           0.0210   -1.9710    0.0000 C.ar    1  LIG1        0.0180
     21 C           0.9920   -2.2460    0.0000 C.ar    1  LIG1        0.0212
     22 N           3.6380   -2.0630    0.0000 N.3     1  LIG1       -0.1555
     23 C           3.8960   -3.0330    0.0000 C.3     1  LIG1        0.0958
     24 C           4.8580   -3.2920    0.0000 C.3     1  LIG1        0.0206
     25 C           4.3420   -1.3630    0.0000 C.3     1  LIG1        0.0958
     26 C           5.3130   -1.6170    0.0000 C.3     1  LIG1        0.0206
     27 O           2.9290   -0.8330    0.0000 O.2     1  LIG1       -0.1528
     28 O           2.4130   -2.7710    0.0000 O.2     1  LIG1       -0.1528
@<TRIPOS>BOND
     1     1     2    1
     2     1    22    1
     3     1    27    2
     4     1    28    2
     5     2     3   ar
     6     2    21   ar
     7     3     4   ar
     8     4     5   ar
     9     5     6    1
    10     5    20   ar
    11     6     7   am
    12     7     8    1
    13     7    19    2
    14     8     9    1
    15     9    10   ar
    16     9    13   ar
    17    10    11   ar
    18    10    18    2
    19    11    12   ar
    20    12    13   ar
    21    12    17   ar
    22    13    14   ar
    23    14    15   ar
    24    15    16   ar
    25    16    17   ar
    26    20    21   ar
    27    22    23    1
    28    22    25    1
    29    23    24    1
    30    25    26    1
