@<TRIPOS>MOLECULE
26100_ChemDiv_1020-3416
 16 18 0 0 0
SMALL
GASTEIGER
Energy = 0

@<TRIPOS>ATOM
      1 C           0.3380   -0.8830    0.0000 C.ar    1  LIG1        0.1034
      2 C          -0.2460   -0.0540    0.0000 C.ar    1  LIG1        0.0869
      3 C          -1.1790   -0.3580    0.0000 C.ar    1  LIG1       -0.0086
      4 C          -1.1790   -1.3630    0.0000 C.ar    1  LIG1        0.0054
      5 S          -0.2460   -1.6670    0.0000 S.2     1  LIG1       -0.0734
      6 C          -2.0670   -1.8750    0.0000 C.3     1  LIG1        0.0327
      7 C          -2.9210   -1.3630    0.0000 C.3     1  LIG1        0.0055
      8 C          -2.9210   -0.3580    0.0000 C.3     1  LIG1        0.0051
      9 C          -2.0670    0.1540    0.0000 C.3     1  LIG1        0.0273
     10 C           0.0580    0.9130    0.0000 C.1     1  LIG1        0.1021
     11 N           0.3920    1.8790    0.0000 N.1     1  LIG1       -0.1908
     12 N           1.3290   -0.8130    0.0000 N.ar    1  LIG1       -0.2979
     13 C           1.8790   -1.6670    0.0000 C.ar    1  LIG1        0.0806
     14 C           2.8210   -1.4210    0.0000 C.ar    1  LIG1        0.0205
     15 C           2.9170   -0.4540    0.0000 C.ar    1  LIG1        0.0205
     16 C           2.0040   -0.0540    0.0000 C.ar    1  LIG1        0.0806
@<TRIPOS>BOND
     1     1     2   ar
     2     1     5   ar
     3     1    12    1
     4     2     3   ar
     5     2    10    1
     6     3     4   ar
     7     3     9    1
     8     4     5   ar
     9     4     6    1
    10     6     7    1
    11     7     8    1
    12     8     9    1
    13    10    11    3
    14    12    13   ar
    15    12    16   ar
    16    13    14   ar
    17    14    15   ar
    18    15    16   ar
