@<TRIPOS>MOLECULE
26102_ChemDiv_1021-0180
 21 23 0 0 0
SMALL
GASTEIGER
Energy = 0

@<TRIPOS>ATOM
      1 C           0.3290   -1.8170    0.0000 C.ar    1  LIG1        0.1466
      2 O           1.0250   -2.5380    0.0000 O.2     1  LIG1       -0.4535
      3 C           1.9210   -2.1210    0.0000 C.ar    1  LIG1        0.1453
      4 C           1.8170   -1.1500    0.0000 C.ar    1  LIG1        0.0375
      5 C           0.8500   -0.9290    0.0000 C.ar    1  LIG1        0.0376
      6 C           0.3290   -0.0580    0.0000 C.ar    1  LIG1        0.0045
      7 C          -0.6630   -0.0580    0.0000 C.ar    1  LIG1        0.0168
      8 C          -1.1580   -0.9290    0.0000 C.ar    1  LIG1        0.0764
      9 C          -0.6630   -1.8170    0.0000 C.ar    1  LIG1        0.0541
     10 N          -2.1710   -0.9290    0.0000 N.am    1  LIG1       -0.1791
     11 C          -2.6670   -0.0580    0.0000 C.2     1  LIG1        0.2459
     12 O          -3.6580   -0.0580    0.0000 O.2     1  LIG1       -0.2730
     13 C          -2.1710    0.8080    0.0000 C.3     1  LIG1        0.0931
     14 C          -1.1580    0.8080    0.0000 C.3     1  LIG1        0.0513
     15 C          -0.6630    1.6750    0.0000 C.2     1  LIG1        0.0508
     16 O          -1.1790    2.5420    0.0000 O.co2   1  LIG1       -0.5492
     17 O           0.3290    1.6750    0.0000 O.co2   1  LIG1       -0.5492
     18 C           2.6380   -0.5750    0.0000 C.ar    1  LIG1        0.0031
     19 C           3.5500   -1.0040    0.0000 C.ar    1  LIG1        0.0002
     20 C           3.6540   -1.9710    0.0000 C.ar    1  LIG1        0.0031
     21 C           2.8330   -2.5380    0.0000 C.ar    1  LIG1        0.0375
@<TRIPOS>BOND
     1     1     2   ar
     2     1     5   ar
     3     1     9   ar
     4     2     3   ar
     5     3     4   ar
     6     3    21   ar
     7     4     5   ar
     8     4    18   ar
     9     5     6   ar
    10     6     7   ar
    11     7     8   ar
    12     8     9   ar
    13     8    10    1
    14    10    11   am
    15    11    12    2
    16    11    13    1
    17    13    14    1
    18    14    15    1
    19    15    16   ar
    20    15    17   ar
    21    18    19   ar
    22    19    20   ar
    23    20    21   ar
