@<TRIPOS>MOLECULE
26104_ChemDiv_3448-0639
 25 28 0 0 0
SMALL
GASTEIGER
Energy = 0

@<TRIPOS>ATOM
      1 C          -1.7130   -0.9500    0.0000 C.ar    1  LIG1        0.1468
      2 C          -1.7130    0.0000    0.0000 C.ar    1  LIG1        0.0406
      3 C          -3.3750    0.0000    0.0000 C.ar    1  LIG1        0.0376
      4 C          -3.3750   -0.9500    0.0000 C.ar    1  LIG1        0.1453
      5 O          -2.5460   -1.4290    0.0000 O.2     1  LIG1       -0.4535
      6 C          -4.2170   -1.4290    0.0000 C.ar    1  LIG1        0.0375
      7 C          -5.0580   -0.9500    0.0000 C.ar    1  LIG1        0.0031
      8 C          -5.0580    0.0000    0.0000 C.ar    1  LIG1        0.0002
      9 C          -4.2170    0.4790    0.0000 C.ar    1  LIG1        0.0031
     10 C          -0.8710    0.4790    0.0000 C.ar    1  LIG1        0.0414
     11 C          -0.0330    0.0000    0.0000 C.ar    1  LIG1        0.1541
     12 C          -0.0330   -0.9500    0.0000 C.ar    1  LIG1        0.1118
     13 C          -0.8710   -1.4290    0.0000 C.ar    1  LIG1        0.0572
     14 N           0.8210   -1.4420    0.0000 N.am    1  LIG1       -0.1578
     15 C           1.6790   -0.9500    0.0000 C.2     1  LIG1        0.3435
     16 N           2.5630   -1.4420    0.0000 N.am    1  LIG1       -0.1887
     17 C           3.3130   -0.9750    0.0000 C.3     1  LIG1        0.0970
     18 C           3.3130    0.0500    0.0000 C.3     1  LIG1        0.0217
     19 C           4.1790    0.5580    0.0000 C.3     1  LIG1        0.0018
     20 C           5.0540    0.0500    0.0000 C.3     1  LIG1        0.0001
     21 C           5.0540   -0.9750    0.0000 C.3     1  LIG1        0.0018
     22 C           4.1790   -1.4750    0.0000 C.3     1  LIG1        0.0217
     23 O           1.6790    0.0130    0.0000 O.2     1  LIG1       -0.2488
     24 O           0.8210    0.4960    0.0000 O.3     1  LIG1       -0.4701
     25 C           0.8210    1.4790    0.0000 C.3     1  LIG1        0.2525
@<TRIPOS>BOND
     1     1     2   ar
     2     1     5   ar
     3     1    13   ar
     4     2     3   ar
     5     2    10   ar
     6     3     4   ar
     7     3     9   ar
     8     4     5   ar
     9     4     6   ar
    10     6     7   ar
    11     7     8   ar
    12     8     9   ar
    13    10    11   ar
    14    11    12   ar
    15    11    24    1
    16    12    13   ar
    17    12    14    1
    18    14    15   am
    19    15    16   am
    20    15    23    2
    21    16    17    1
    22    17    18    1
    23    17    22    1
    24    18    19    1
    25    19    20    1
    26    20    21    1
    27    21    22    1
    28    24    25    1
