@<TRIPOS>MOLECULE
26108_ChemDiv_4260-1033
 28 33 0 0 0
SMALL
GASTEIGER
Energy = 0

@<TRIPOS>ATOM
      1 C          -2.3960    0.5380    0.0000 C.3     1  LIG1        0.0708
      2 C          -1.5330    0.0330    0.0000 C.2     1  LIG1        0.2447
      3 N          -0.5920    0.5830    0.0000 N.am    1  LIG1       -0.1761
      4 C           0.2710    0.0750    0.0000 C.ar    1  LIG1        0.1102
      5 C           1.1330    0.5830    0.0000 C.ar    1  LIG1        0.0571
      6 C           1.9960    0.0750    0.0000 C.ar    1  LIG1        0.1468
      7 C           1.9960   -0.9210    0.0000 C.ar    1  LIG1        0.0406
      8 C           2.9420   -1.2080    0.0000 C.ar    1  LIG1        0.0376
      9 C           3.5210   -0.4130    0.0000 C.ar    1  LIG1        0.1453
     10 O           2.9420    0.3830    0.0000 O.2     1  LIG1       -0.4535
     11 C           4.5130   -0.5130    0.0000 C.ar    1  LIG1        0.0375
     12 C           4.9130   -1.4330    0.0000 C.ar    1  LIG1        0.0031
     13 C           4.3420   -2.2460    0.0000 C.ar    1  LIG1        0.0002
     14 C           3.3500   -2.1210    0.0000 C.ar    1  LIG1        0.0031
     15 C           1.1170   -1.4080    0.0000 C.ar    1  LIG1        0.0414
     16 C           0.2540   -0.9040    0.0000 C.ar    1  LIG1        0.1541
     17 O          -0.6080   -1.3920    0.0000 O.3     1  LIG1       -0.4701
     18 C          -0.6080   -2.3830    0.0000 C.3     1  LIG1        0.2525
     19 O          -1.5420   -1.0540    0.0000 O.2     1  LIG1       -0.2730
     20 C          -3.2630    0.8460    0.0000 C.3     1  LIG1        0.0087
     21 C          -3.8380    1.5750    0.0000 C.3     1  LIG1        0.0005
     22 C          -3.3080    2.3880    0.0000 C.3     1  LIG1        0.0000
     23 C          -2.4040    2.1750    0.0000 C.3     1  LIG1        0.0005
     24 C          -1.8670    1.3790    0.0000 C.3     1  LIG1        0.0087
     25 C          -3.3960    1.8630    0.0000 C.3     1  LIG1        0.0000
     26 C          -3.9710    1.0000    0.0000 C.3     1  LIG1        0.0005
     27 C          -3.3920    0.2080    0.0000 C.3     1  LIG1        0.0087
     28 C          -4.9170    1.2960    0.0000 C.3     1  LIG1        0.0000
@<TRIPOS>BOND
     1     1     2    1
     2     1    20    1
     3     1    24    1
     4     1    27    1
     5     2     3   am
     6     2    19    2
     7     3     4    1
     8     4     5   ar
     9     4    16   ar
    10     5     6   ar
    11     6     7   ar
    12     6    10   ar
    13     7     8   ar
    14     7    15   ar
    15     8     9   ar
    16     8    14   ar
    17     9    10   ar
    18     9    11   ar
    19    11    12   ar
    20    12    13   ar
    21    13    14   ar
    22    15    16   ar
    23    16    17    1
    24    17    18    1
    25    20    21    1
    26    21    22    1
    27    21    28    1
    28    22    23    1
    29    23    24    1
    30    23    25    1
    31    25    26    1
    32    26    27    1
    33    26    28    1
