@<TRIPOS>MOLECULE
26106_ChemDiv_3993-2976
 24 26 0 0 0
SMALL
GASTEIGER
Energy = 0

@<TRIPOS>ATOM
      1 C           0.9830   -0.1540    0.0000 C.ar    1  LIG1        0.0975
      2 N           1.9710   -0.3710    0.0000 N.am    1  LIG1       -0.2051
      3 C           2.6580    0.3750    0.0000 C.2     1  LIG1        0.2352
      4 O           2.3540    1.3330    0.0000 O.2     1  LIG1       -0.2741
      5 C           3.6250    0.1420    0.0000 C.3     1  LIG1        0.0860
      6 C           3.9080   -0.8080    0.0000 C.3     1  LIG1        0.0101
      7 C           2.2670   -1.3080    0.0000 C.2     1  LIG1        0.2352
      8 O           1.5920   -2.0500    0.0000 O.2     1  LIG1       -0.2741
      9 C           3.2330   -1.5420    0.0000 C.3     1  LIG1        0.0860
     10 C           3.5330   -2.5000    0.0000 C.3     1  LIG1        0.0101
     11 C           0.3130   -0.8880    0.0000 C.ar    1  LIG1        0.0559
     12 C          -0.6630   -0.6710    0.0000 C.ar    1  LIG1        0.1468
     13 C          -0.9750    0.2880    0.0000 C.ar    1  LIG1        0.0406
     14 C          -1.9750    0.2880    0.0000 C.ar    1  LIG1        0.0376
     15 C          -2.2920   -0.6540    0.0000 C.ar    1  LIG1        0.1453
     16 O          -1.4710   -1.2500    0.0000 O.2     1  LIG1       -0.4535
     17 C          -3.2580   -0.8580    0.0000 C.ar    1  LIG1        0.0375
     18 C          -3.9130   -0.1040    0.0000 C.ar    1  LIG1        0.0031
     19 C          -3.6210    0.8460    0.0000 C.ar    1  LIG1        0.0002
     20 C          -2.6330    1.0380    0.0000 C.ar    1  LIG1        0.0031
     21 C          -0.3000    1.0210    0.0000 C.ar    1  LIG1        0.0413
     22 C           0.6830    0.8170    0.0000 C.ar    1  LIG1        0.1528
     23 O           1.3580    1.5670    0.0000 O.3     1  LIG1       -0.4702
     24 C           1.0460    2.5040    0.0000 C.3     1  LIG1        0.2525
@<TRIPOS>BOND
     1     1     2    1
     2     1    11   ar
     3     1    22   ar
     4     2     3   am
     5     2     7   am
     6     3     4    2
     7     3     5    1
     8     5     6    1
     9     7     8    2
    10     7     9    1
    11     9    10    1
    12    11    12   ar
    13    12    13   ar
    14    12    16   ar
    15    13    14   ar
    16    13    21   ar
    17    14    15   ar
    18    14    20   ar
    19    15    16   ar
    20    15    17   ar
    21    17    18   ar
    22    18    19   ar
    23    19    20   ar
    24    21    22   ar
    25    22    23    1
    26    23    24    1
