@<TRIPOS>MOLECULE
26113_ChemDiv_0902-1410
 24 27 0 0 0
SMALL
GASTEIGER
Energy = 0

@<TRIPOS>ATOM
      1 C          -0.9080   -1.2630    0.0000 C.2     1  LIG1        0.1108
      2 C          -0.8880   -2.2380    0.0000 C.2     1  LIG1        0.2771
      3 N          -1.7210   -2.6920    0.0000 N.am    1  LIG1       -0.1219
      4 C          -2.5630   -2.2380    0.0000 C.2     1  LIG1        0.3530
      5 N          -2.5630   -1.2880    0.0000 N.am    1  LIG1       -0.1219
      6 C          -1.7500   -0.8000    0.0000 C.2     1  LIG1        0.2771
      7 O          -1.7830    0.1750    0.0000 O.2     1  LIG1       -0.2677
      8 O          -3.4080   -2.7170    0.0000 O.2     1  LIG1       -0.2483
      9 O          -0.0460   -2.7170    0.0000 O.2     1  LIG1       -0.2677
     10 C          -0.0750   -0.8000    0.0000 C.2     1  LIG1        0.0092
     11 C           0.3580    0.1330    0.0000 C.ar    1  LIG1        0.0003
     12 C          -0.2500    0.9630    0.0000 C.ar    1  LIG1        0.0000
     13 C           0.1710    1.9210    0.0000 C.ar    1  LIG1        0.0000
     14 C           1.1920    1.9750    0.0000 C.ar    1  LIG1        0.0000
     15 C           1.7670    1.1750    0.0000 C.ar    1  LIG1        0.0000
     16 C           1.3290    0.2290    0.0000 C.ar    1  LIG1        0.0000
     17 C           1.9540   -0.5960    0.0000 C.ar    1  LIG1        0.0000
     18 C           2.9710   -0.5170    0.0000 C.ar    1  LIG1        0.0000
     19 C           3.4040    0.4460    0.0000 C.ar    1  LIG1        0.0000
     20 C           2.7960    1.2580    0.0000 C.ar    1  LIG1        0.0000
     21 C          -0.4290    2.7210    0.0000 C.ar    1  LIG1        0.0000
     22 C          -1.4500    2.6500    0.0000 C.ar    1  LIG1        0.0000
     23 C          -1.8750    1.7040    0.0000 C.ar    1  LIG1        0.0000
     24 C          -1.2670    0.8710    0.0000 C.ar    1  LIG1        0.0000
@<TRIPOS>BOND
     1     1     2    1
     2     1     6    1
     3     1    10    2
     4     2     3   am
     5     2     9    2
     6     3     4   am
     7     4     5   am
     8     4     8    2
     9     5     6   am
    10     6     7    2
    11    10    11    1
    12    11    12   ar
    13    11    16   ar
    14    12    13   ar
    15    12    24   ar
    16    13    14   ar
    17    13    21   ar
    18    14    15   ar
    19    15    16   ar
    20    15    20   ar
    21    16    17   ar
    22    17    18   ar
    23    18    19   ar
    24    19    20   ar
    25    21    22   ar
    26    22    23   ar
    27    23    24   ar
