@<TRIPOS>MOLECULE
26110_ChemDiv_4522-0036
 25 28 0 0 0
SMALL
GASTEIGER
Energy = 0

@<TRIPOS>ATOM
      1 C           0.6250    1.7710    0.0000 C.ar    1  LIG1        0.1466
      2 O           1.2460    2.5630    0.0000 O.2     1  LIG1       -0.4535
      3 C           2.1460    2.1750    0.0000 C.ar    1  LIG1        0.1453
      4 C           2.1170    1.1790    0.0000 C.ar    1  LIG1        0.0375
      5 C           1.1330    0.9330    0.0000 C.ar    1  LIG1        0.0376
      6 C           0.6750    0.0380    0.0000 C.ar    1  LIG1        0.0045
      7 C          -0.3250   -0.0170    0.0000 C.ar    1  LIG1        0.0168
      8 C          -0.8670    0.8500    0.0000 C.ar    1  LIG1        0.0764
      9 N          -1.8710    0.8210    0.0000 N.am    1  LIG1       -0.1791
     10 C          -2.3920   -0.0420    0.0000 C.2     1  LIG1        0.2458
     11 C          -1.8710   -0.9130    0.0000 C.3     1  LIG1        0.0883
     12 C          -2.3920   -1.7790    0.0000 C.3     1  LIG1        0.0499
     13 C          -3.3920   -1.7790    0.0000 C.2     1  LIG1        0.0508
     14 O          -3.8830   -2.6420    0.0000 O.co2   1  LIG1       -0.5492
     15 O          -3.8830   -0.9130    0.0000 O.co2   1  LIG1       -0.5492
     16 C          -1.8710   -2.6420    0.0000 C.3     1  LIG1        0.0317
     17 C          -0.8670   -2.6420    0.0000 C.2     1  LIG1       -0.0303
     18 C          -0.3790   -1.7790    0.0000 C.2     1  LIG1       -0.0302
     19 C          -0.8670   -0.9130    0.0000 C.3     1  LIG1        0.0352
     20 O          -3.3630   -0.0420    0.0000 O.2     1  LIG1       -0.2730
     21 C          -0.3790    1.7460    0.0000 C.ar    1  LIG1        0.0541
     22 C           2.9580    0.6630    0.0000 C.ar    1  LIG1        0.0031
     23 C           3.8210    1.1210    0.0000 C.ar    1  LIG1        0.0002
     24 C           3.8790    2.1250    0.0000 C.ar    1  LIG1        0.0031
     25 C           3.0330    2.6460    0.0000 C.ar    1  LIG1        0.0375
@<TRIPOS>BOND
     1     1     2   ar
     2     1     5   ar
     3     1    21   ar
     4     2     3   ar
     5     3     4   ar
     6     3    25   ar
     7     4     5   ar
     8     4    22   ar
     9     5     6   ar
    10     6     7   ar
    11     7     8   ar
    12     8     9    1
    13     8    21   ar
    14     9    10   am
    15    10    11    1
    16    10    20    2
    17    11    12    1
    18    11    19    1
    19    12    13    1
    20    12    16    1
    21    13    14   ar
    22    13    15   ar
    23    16    17    1
    24    17    18    2
    25    18    19    1
    26    22    23   ar
    27    23    24   ar
    28    24    25   ar
