@<TRIPOS>MOLECULE
26118_ChemDiv_C126-0125
 30 33 0 0 0
SMALL
GASTEIGER
Energy = 0

@<TRIPOS>ATOM
      1 N           0.5000   -3.0420    0.0000 N.ar    1  LIG1       -0.2530
      2 C           1.4290   -2.6460    0.0000 C.ar    1  LIG1        0.4224
      3 O           2.0880   -3.3790    0.0000 O.2     1  LIG1       -0.4068
      4 C           1.5880   -4.2500    0.0000 C.ar    1  LIG1        0.1660
      5 C           0.6080   -4.0370    0.0000 C.ar    1  LIG1        0.1005
      6 C          -0.0750   -4.7790    0.0000 C.ar    1  LIG1        0.0205
      7 C           0.2420   -5.7290    0.0000 C.ar    1  LIG1        0.0017
      8 C           1.2170   -5.9460    0.0000 C.ar    1  LIG1        0.0032
      9 C           1.8880   -5.2040    0.0000 C.ar    1  LIG1        0.0392
     10 O           1.6580   -1.6710    0.0000 O.2     1  LIG1       -0.2226
     11 C          -0.3750   -2.5290    0.0000 C.3     1  LIG1        0.1991
     12 C          -0.3750   -1.5210    0.0000 C.2     1  LIG1        0.2688
     13 N           0.4960   -1.0210    0.0000 N.am    1  LIG1       -0.1776
     14 C           0.4960   -0.0290    0.0000 C.ar    1  LIG1        0.0735
     15 C          -0.3750    0.4670    0.0000 C.ar    1  LIG1        0.0178
     16 C          -0.3750    1.4670    0.0000 C.ar    1  LIG1        0.0151
     17 C           0.4960    1.9670    0.0000 C.ar    1  LIG1        0.0825
     18 N           0.4880    2.9710    0.0000 N.ar    1  LIG1       -0.2307
     19 C          -0.3750    3.4500    0.0000 C.ar    1  LIG1        0.1313
     20 C          -1.2460    2.9500    0.0000 C.ar    1  LIG1        0.0301
     21 C          -1.2380    1.9540    0.0000 C.ar    1  LIG1       -0.0176
     22 C          -2.0920    1.4540    0.0000 C.3     1  LIG1        0.0312
     23 N          -0.3750    4.4460    0.0000 N.pl3   1  LIG1       -0.2933
     24 C           0.4880    4.9420    0.0000 C.3     1  LIG1        0.0922
     25 C           0.4880    5.9460    0.0000 C.3     1  LIG1        0.0232
     26 C          -1.2460    4.9420    0.0000 C.3     1  LIG1        0.0922
     27 C          -1.2460    5.9460    0.0000 C.3     1  LIG1        0.0232
     28 C           1.3580    1.4670    0.0000 C.ar    1  LIG1        0.0205
     29 C           1.3580    0.4710    0.0000 C.ar    1  LIG1        0.0181
     30 O          -1.2460   -1.0210    0.0000 O.2     1  LIG1       -0.2709
@<TRIPOS>BOND
     1     1     2   ar
     2     1     5   ar
     3     1    11    1
     4     2     3   ar
     5     2    10    2
     6     3     4   ar
     7     4     5   ar
     8     4     9   ar
     9     5     6   ar
    10     6     7   ar
    11     7     8   ar
    12     8     9   ar
    13    11    12    1
    14    12    13   am
    15    12    30    2
    16    13    14    1
    17    14    15   ar
    18    14    29   ar
    19    15    16   ar
    20    16    17   ar
    21    16    21   ar
    22    17    18   ar
    23    17    28   ar
    24    18    19   ar
    25    19    20   ar
    26    19    23    1
    27    20    21   ar
    28    21    22    1
    29    23    24    1
    30    23    26    1
    31    24    25    1
    32    26    27    1
    33    28    29   ar
