@<TRIPOS>MOLECULE
26112_ChemDiv_4904-3170
 27 30 0 0 0
SMALL
GASTEIGER
Energy = 0

@<TRIPOS>ATOM
      1 C           2.8960    0.2710    0.0000 C.ar    1  LIG1        0.1468
      2 C           2.8790   -0.7210    0.0000 C.ar    1  LIG1        0.0406
      3 C           3.8210   -1.0380    0.0000 C.ar    1  LIG1        0.0376
      4 C           4.4170   -0.2380    0.0000 C.ar    1  LIG1        0.1453
      5 O           3.8210    0.5580    0.0000 O.2     1  LIG1       -0.4535
      6 C           5.4130   -0.3250    0.0000 C.ar    1  LIG1        0.0375
      7 C           5.8080   -1.2330    0.0000 C.ar    1  LIG1        0.0031
      8 C           5.2170   -2.0460    0.0000 C.ar    1  LIG1        0.0002
      9 C           4.2250   -1.9580    0.0000 C.ar    1  LIG1        0.0031
     10 C           2.0170   -1.2290    0.0000 C.ar    1  LIG1        0.0414
     11 C           1.1540   -0.7210    0.0000 C.ar    1  LIG1        0.1541
     12 C           1.1540    0.2710    0.0000 C.ar    1  LIG1        0.1103
     13 C           2.0330    0.7580    0.0000 C.ar    1  LIG1        0.0571
     14 N           0.3080    0.7580    0.0000 N.am    1  LIG1       -0.1729
     15 C          -0.6630    0.2290    0.0000 C.2     1  LIG1        0.2902
     16 O          -0.6630   -0.8540    0.0000 O.2     1  LIG1       -0.2689
     17 C          -1.5210    0.7210    0.0000 C.3     1  LIG1        0.2915
     18 O          -2.3830    0.2290    0.0000 O.3     1  LIG1       -0.4656
     19 C          -3.2460    0.7210    0.0000 C.ar    1  LIG1        0.1393
     20 C          -4.1080    0.2290    0.0000 C.ar    1  LIG1        0.0374
     21 C          -4.9670    0.7210    0.0000 C.ar    1  LIG1        0.0098
     22 C          -4.9670    1.7130    0.0000 C.ar    1  LIG1        0.0348
     23 BR         -5.8130    2.2080    0.0000 Br      1  LIG1       -0.0490
     24 C          -4.1080    2.2080    0.0000 C.ar    1  LIG1        0.0098
     25 C          -3.2460    1.7130    0.0000 C.ar    1  LIG1        0.0374
     26 O           0.2920   -1.2130    0.0000 O.3     1  LIG1       -0.4701
     27 C           0.2830   -2.2040    0.0000 C.3     1  LIG1        0.2525
@<TRIPOS>BOND
     1     1     2   ar
     2     1     5   ar
     3     1    13   ar
     4     2     3   ar
     5     2    10   ar
     6     3     4   ar
     7     3     9   ar
     8     4     5   ar
     9     4     6   ar
    10     6     7   ar
    11     7     8   ar
    12     8     9   ar
    13    10    11   ar
    14    11    12   ar
    15    11    26    1
    16    12    13   ar
    17    12    14    1
    18    14    15   am
    19    15    16    2
    20    15    17    1
    21    17    18    1
    22    18    19    1
    23    19    20   ar
    24    19    25   ar
    25    20    21   ar
    26    21    22   ar
    27    22    23    1
    28    22    24   ar
    29    24    25   ar
    30    26    27    1
