@<TRIPOS>MOLECULE
26122_ChemDiv_1112-0043
 24 26 0 0 0
SMALL
GASTEIGER
Energy = 0

@<TRIPOS>ATOM
      1 N          -0.3540    0.4290    0.0000 N.ar    1  LIG1       -0.3243
      2 C          -1.2960    0.7170    0.0000 C.ar    1  LIG1        0.0600
      3 C          -1.2960    1.7210    0.0000 C.ar    1  LIG1        0.0181
      4 C          -0.3540    2.0460    0.0000 C.ar    1  LIG1        0.0181
      5 C           0.2210    1.2380    0.0000 C.ar    1  LIG1        0.0600
      6 C           1.2250    1.3290    0.0000 C.ar    1  LIG1        0.0181
      7 C           1.6540    2.2420    0.0000 C.ar    1  LIG1        0.0129
      8 C           1.0790    3.0500    0.0000 C.ar    1  LIG1        0.0578
      9 C           0.0750    2.9630    0.0000 C.ar    1  LIG1        0.0129
     10 CL          1.5460    3.9670    0.0000 Cl      1  LIG1       -0.0822
     11 C          -2.1540    2.2420    0.0000 C.ar    1  LIG1        0.0129
     12 C          -3.0290    1.7580    0.0000 C.ar    1  LIG1        0.0578
     13 C          -3.0290    0.7170    0.0000 C.ar    1  LIG1        0.0129
     14 C          -2.1540    0.2330    0.0000 C.ar    1  LIG1        0.0181
     15 CL         -3.8790    2.2670    0.0000 Cl      1  LIG1       -0.0822
     16 C          -0.0040   -0.5170    0.0000 C.3     1  LIG1        0.1450
     17 C           0.9750   -0.7210    0.0000 C.3     1  LIG1        0.2306
     18 C           1.2920   -1.6880    0.0000 C.3     1  LIG1        0.1743
     19 N           2.2670   -1.8960    0.0000 N.4     1  LIG1        0.3861
     20 C           2.5830   -2.8380    0.0000 C.3     1  LIG1        0.1752
     21 C           3.5580   -3.0460    0.0000 C.3     1  LIG1        0.2442
     22 O           3.8750   -3.9630    0.0000 O.3     1  LIG1       -0.2137
     23 C           2.9250   -1.1500    0.0000 C.3     1  LIG1        0.2025
     24 O           1.6330    0.0000    0.0000 O.3     1  LIG1       -0.2146
@<TRIPOS>BOND
     1     1     2   ar
     2     1     5   ar
     3     1    16    1
     4     2     3   ar
     5     2    14   ar
     6     3     4   ar
     7     3    11   ar
     8     4     5   ar
     9     4     9   ar
    10     5     6   ar
    11     6     7   ar
    12     7     8   ar
    13     8     9   ar
    14     8    10    1
    15    11    12   ar
    16    12    13   ar
    17    12    15    1
    18    13    14   ar
    19    16    17    1
    20    17    18    1
    21    17    24    1
    22    18    19    1
    23    19    20    1
    24    19    23    1
    25    20    21    1
    26    21    22    1
