@<TRIPOS>MOLECULE
26124_ChemDiv_1782-0490
 24 27 0 0 0
SMALL
GASTEIGER
Energy = 0

@<TRIPOS>ATOM
      1 N          -1.7750    0.4710    0.0000 N.ar    1  LIG1       -0.3245
      2 C          -1.7750   -0.4630    0.0000 C.ar    1  LIG1        0.0600
      3 C          -2.5880   -0.9420    0.0000 C.ar    1  LIG1        0.0172
      4 C          -3.4210    0.4710    0.0000 C.ar    1  LIG1        0.0172
      5 C          -2.6040    0.9500    0.0000 C.ar    1  LIG1        0.0600
      6 C          -2.6040    1.9000    0.0000 C.ar    1  LIG1        0.0172
      7 C          -3.4460    2.3960    0.0000 C.ar    1  LIG1        0.0015
      8 C          -4.2710    1.9170    0.0000 C.ar    1  LIG1        0.0001
      9 C          -4.2420    0.9500    0.0000 C.ar    1  LIG1        0.0015
     10 C          -2.5710   -1.9170    0.0000 C.ar    1  LIG1        0.0015
     11 C          -1.7580   -2.3920    0.0000 C.ar    1  LIG1        0.0001
     12 C          -0.9290   -1.9170    0.0000 C.ar    1  LIG1        0.0015
     13 C          -0.9380   -0.9580    0.0000 C.ar    1  LIG1        0.0172
     14 C          -0.9130    0.9670    0.0000 C.3     1  LIG1        0.1402
     15 C          -0.0420    0.4670    0.0000 C.3     1  LIG1        0.1903
     16 C           0.8250    0.9500    0.0000 C.3     1  LIG1        0.1077
     17 N           1.6830    0.4670    0.0000 N.3     1  LIG1       -0.2604
     18 C           1.6830   -0.5540    0.0000 C.3     1  LIG1        0.1359
     19 C           2.5540   -1.0460    0.0000 C.3     1  LIG1        0.1566
     20 N           3.4210   -0.5540    0.0000 N.4     1  LIG1        0.3842
     21 C           3.4210    0.4670    0.0000 C.3     1  LIG1        0.1566
     22 C           2.5540    0.9500    0.0000 C.3     1  LIG1        0.1359
     23 C           4.2670   -1.0460    0.0000 C.3     1  LIG1        0.2024
     24 O          -0.0420   -0.5250    0.0000 O.3     1  LIG1       -0.2196
@<TRIPOS>BOND
     1     1     2   ar
     2     1     5   ar
     3     1    14    1
     4     2     3   ar
     5     2    13   ar
     6     3     4   ar
     7     3    10   ar
     8     4     5   ar
     9     4     9   ar
    10     5     6   ar
    11     6     7   ar
    12     7     8   ar
    13     8     9   ar
    14    10    11   ar
    15    11    12   ar
    16    12    13   ar
    17    14    15    1
    18    15    16    1
    19    15    24    1
    20    16    17    1
    21    17    18    1
    22    17    22    1
    23    18    19    1
    24    19    20    1
    25    20    21    1
    26    20    23    1
    27    21    22    1
