@<TRIPOS>MOLECULE
26126_ChemDiv_2995-0419
 26 29 0 0 0
SMALL
GASTEIGER
Energy = 0

@<TRIPOS>ATOM
      1 N           1.7630   -0.0170    0.0000 N.am    1  LIG1       -0.2089
      2 C           2.7750    0.1250    0.0000 C.2     1  LIG1        0.3294
      3 N           2.9290    1.1080    0.0000 N.am    1  LIG1       -0.1827
      4 C           1.9960    1.5580    0.0000 C.3     1  LIG1        0.1489
      5 C           1.3380    0.8540    0.0000 C.2     1  LIG1        0.2504
      6 O           0.3380    0.9380    0.0000 O.2     1  LIG1       -0.2726
      7 C           2.7580    2.2330    0.0000 C.3     1  LIG1        0.0311
      8 C           1.0540    1.8710    0.0000 C.3     1  LIG1        0.0311
      9 O           3.5540   -0.5040    0.0000 O.2     1  LIG1       -0.2503
     10 C           1.2710   -0.8790    0.0000 C.3     1  LIG1        0.1373
     11 C           0.2630   -0.8790    0.0000 C.3     1  LIG1        0.1946
     12 C          -0.2420    0.0000    0.0000 C.3     1  LIG1        0.1406
     13 N          -1.2630    0.0000    0.0000 N.ar    1  LIG1       -0.3245
     14 C          -1.8330   -0.8250    0.0000 C.ar    1  LIG1        0.0600
     15 C          -2.8080   -0.4960    0.0000 C.ar    1  LIG1        0.0172
     16 C          -2.7830    0.4790    0.0000 C.ar    1  LIG1        0.0172
     17 C          -1.8460    0.8080    0.0000 C.ar    1  LIG1        0.0600
     18 C          -1.6460    1.7920    0.0000 C.ar    1  LIG1        0.0172
     19 C          -2.4080    2.4540    0.0000 C.ar    1  LIG1        0.0015
     20 C          -3.3460    2.1290    0.0000 C.ar    1  LIG1        0.0001
     21 C          -3.5380    1.1670    0.0000 C.ar    1  LIG1        0.0015
     22 C          -3.5580   -1.1580    0.0000 C.ar    1  LIG1        0.0015
     23 C          -3.3330   -2.1380    0.0000 C.ar    1  LIG1        0.0001
     24 C          -2.4080   -2.4500    0.0000 C.ar    1  LIG1        0.0015
     25 C          -1.6580   -1.7960    0.0000 C.ar    1  LIG1        0.0172
     26 O          -0.2420   -1.7500    0.0000 O.3     1  LIG1       -0.2192
@<TRIPOS>BOND
     1     1     2   am
     2     1     5   am
     3     1    10    1
     4     2     3   am
     5     2     9    2
     6     3     4    1
     7     4     5    1
     8     4     7    1
     9     4     8    1
    10     5     6    2
    11    10    11    1
    12    11    12    1
    13    11    26    1
    14    12    13    1
    15    13    14   ar
    16    13    17   ar
    17    14    15   ar
    18    14    25   ar
    19    15    16   ar
    20    15    22   ar
    21    16    17   ar
    22    16    21   ar
    23    17    18   ar
    24    18    19   ar
    25    19    20   ar
    26    20    21   ar
    27    22    23   ar
    28    23    24   ar
    29    24    25   ar
