@<TRIPOS>MOLECULE
26128_ChemDiv_3194-0032
 30 33 0 0 0
SMALL
GASTEIGER
Energy = 0

@<TRIPOS>ATOM
      1 N          -2.4250    0.4000    0.0000 N.ar    1  LIG1       -0.3245
      2 C          -2.4580   -0.5790    0.0000 C.ar    1  LIG1        0.0600
      3 C          -3.4750   -0.7830    0.0000 C.ar    1  LIG1        0.0172
      4 C          -3.9540    0.0830    0.0000 C.ar    1  LIG1        0.0172
      5 C          -3.2880    0.8500    0.0000 C.ar    1  LIG1        0.0600
      6 C          -3.6420    1.8040    0.0000 C.ar    1  LIG1        0.0172
      7 C          -4.5830    2.0290    0.0000 C.ar    1  LIG1        0.0015
      8 C          -5.2960    1.2380    0.0000 C.ar    1  LIG1        0.0001
      9 C          -4.9750    0.2580    0.0000 C.ar    1  LIG1        0.0015
     10 C          -3.7420   -1.7420    0.0000 C.ar    1  LIG1        0.0015
     11 C          -3.0920   -2.5040    0.0000 C.ar    1  LIG1        0.0001
     12 C          -2.1290   -2.2830    0.0000 C.ar    1  LIG1        0.0015
     13 C          -1.7710   -1.3380    0.0000 C.ar    1  LIG1        0.0172
     14 C          -1.5670    0.9000    0.0000 C.3     1  LIG1        0.1406
     15 C          -0.7040    0.4000    0.0000 C.3     1  LIG1        0.1959
     16 C           0.1830    0.9000    0.0000 C.3     1  LIG1        0.1502
     17 N           1.0420    0.4000    0.0000 N.pl3   1  LIG1       -0.1916
     18 S           1.0420   -0.6000    0.0000 S.O2    1  LIG1        0.0589
     19 O           2.0330   -0.6000    0.0000 O.2     1  LIG1       -0.1542
     20 O           0.0420   -0.6000    0.0000 O.2     1  LIG1       -0.1542
     21 C           1.0420   -1.5750    0.0000 C.3     1  LIG1        0.1999
     22 C           1.8830    0.9170    0.0000 C.ar    1  LIG1        0.0687
     23 C           2.7750    0.4750    0.0000 C.ar    1  LIG1        0.0192
     24 C           3.5880    0.9920    0.0000 C.ar    1  LIG1        0.0382
     25 C           3.5580    1.9790    0.0000 C.ar    1  LIG1        0.1388
     26 C           2.6670    2.4250    0.0000 C.ar    1  LIG1        0.0382
     27 C           1.8540    1.8880    0.0000 C.ar    1  LIG1        0.0192
     28 O           4.4000    2.5080    0.0000 O.3     1  LIG1       -0.4714
     29 C           5.2920    2.0540    0.0000 C.3     1  LIG1        0.2525
     30 O          -0.7040   -0.6380    0.0000 O.3     1  LIG1       -0.2191
@<TRIPOS>BOND
     1     1     2   ar
     2     1     5   ar
     3     1    14    1
     4     2     3   ar
     5     2    13   ar
     6     3     4   ar
     7     3    10   ar
     8     4     5   ar
     9     4     9   ar
    10     5     6   ar
    11     6     7   ar
    12     7     8   ar
    13     8     9   ar
    14    10    11   ar
    15    11    12   ar
    16    12    13   ar
    17    14    15    1
    18    15    16    1
    19    15    30    1
    20    16    17    1
    21    17    18    1
    22    17    22    1
    23    18    19    2
    24    18    20    2
    25    18    21    1
    26    22    23   ar
    27    22    27   ar
    28    23    24   ar
    29    24    25   ar
    30    25    26   ar
    31    25    28    1
    32    26    27   ar
    33    28    29    1
