@<TRIPOS>MOLECULE
26132_ChemDiv_8015-7415
 23 26 0 0 0
SMALL
GASTEIGER
Energy = 0

@<TRIPOS>ATOM
      1 C          -1.3170   -1.2920    0.0000 C.ar    1  LIG1        0.1468
      2 C          -1.6170   -0.3460    0.0000 C.ar    1  LIG1        0.0406
      3 C          -2.6330   -0.3460    0.0000 C.ar    1  LIG1        0.0376
      4 C          -2.9330   -1.2920    0.0000 C.ar    1  LIG1        0.1453
      5 O          -2.1460   -1.8710    0.0000 O.2     1  LIG1       -0.4535
      6 C          -3.9170   -1.5170    0.0000 C.ar    1  LIG1        0.0375
      7 C          -4.5920   -0.7710    0.0000 C.ar    1  LIG1        0.0031
      8 C          -4.2960    0.1830    0.0000 C.ar    1  LIG1        0.0002
      9 C          -3.3080    0.4000    0.0000 C.ar    1  LIG1        0.0031
     10 C          -0.9420    0.4000    0.0000 C.ar    1  LIG1        0.0414
     11 C           0.0460    0.1960    0.0000 C.ar    1  LIG1        0.1541
     12 C           0.3330   -0.7830    0.0000 C.ar    1  LIG1        0.1103
     13 N           1.3290   -1.0080    0.0000 N.am    1  LIG1       -0.1740
     14 C           2.0210   -0.2960    0.0000 C.2     1  LIG1        0.2728
     15 C           2.9960   -0.5170    0.0000 C.3     1  LIG1        0.1929
     16 O           3.4790   -1.3710    0.0000 O.3     1  LIG1       -0.3470
     17 C           4.4630   -1.1830    0.0000 C.3     1  LIG1        0.1428
     18 C           4.5880   -0.2170    0.0000 C.3     1  LIG1        0.0351
     19 C           3.6920    0.2130    0.0000 C.3     1  LIG1        0.0417
     20 O           1.7210    0.6750    0.0000 O.2     1  LIG1       -0.2704
     21 C          -0.3420   -1.5170    0.0000 C.ar    1  LIG1        0.0571
     22 O           0.7080    0.9330    0.0000 O.3     1  LIG1       -0.4701
     23 C           0.3960    1.8750    0.0000 C.3     1  LIG1        0.2525
@<TRIPOS>BOND
     1     1     2   ar
     2     1     5   ar
     3     1    21   ar
     4     2     3   ar
     5     2    10   ar
     6     3     4   ar
     7     3     9   ar
     8     4     5   ar
     9     4     6   ar
    10     6     7   ar
    11     7     8   ar
    12     8     9   ar
    13    10    11   ar
    14    11    12   ar
    15    11    22    1
    16    12    13    1
    17    12    21   ar
    18    13    14   am
    19    14    15    1
    20    14    20    2
    21    15    16    1
    22    15    19    1
    23    16    17    1
    24    17    18    1
    25    18    19    1
    26    22    23    1
