@<TRIPOS>MOLECULE
26136_ChemDiv_8016-9697
 24 26 0 0 0
SMALL
GASTEIGER
Energy = 0

@<TRIPOS>ATOM
      1 C          -1.4460   -0.4170    0.0000 C.ar    1  LIG1        0.1468
      2 C          -2.0330    0.3920    0.0000 C.ar    1  LIG1        0.0406
      3 C          -2.9880    0.0790    0.0000 C.ar    1  LIG1        0.0376
      4 C          -2.9880   -0.9250    0.0000 C.ar    1  LIG1        0.1453
      5 O          -2.0330   -1.2290    0.0000 O.2     1  LIG1       -0.4535
      6 C          -3.8500   -1.4170    0.0000 C.ar    1  LIG1        0.0375
      7 C          -4.7080   -0.9250    0.0000 C.ar    1  LIG1        0.0031
      8 C          -4.7080    0.0790    0.0000 C.ar    1  LIG1        0.0002
      9 C          -3.8580    0.5790    0.0000 C.ar    1  LIG1        0.0031
     10 C          -1.6330    1.3080    0.0000 C.ar    1  LIG1        0.0414
     11 C          -0.6330    1.4170    0.0000 C.ar    1  LIG1        0.1541
     12 C          -0.0380    0.5960    0.0000 C.ar    1  LIG1        0.1102
     13 C          -0.4460   -0.3170    0.0000 C.ar    1  LIG1        0.0571
     14 N           0.9540    0.7040    0.0000 N.am    1  LIG1       -0.1760
     15 C           1.5420   -0.1040    0.0000 C.2     1  LIG1        0.2462
     16 O           1.1380   -1.0170    0.0000 O.2     1  LIG1       -0.2730
     17 C           2.5380   -0.0080    0.0000 C.3     1  LIG1        0.0988
     18 C           3.1170   -0.8130    0.0000 C.3     1  LIG1        0.1192
     19 C           4.1170   -0.7040    0.0000 C.2     1  LIG1        0.3176
     20 O           4.5170    0.2040    0.0000 O.2     1  LIG1       -0.2501
     21 O           4.7040   -1.5130    0.0000 O.3     1  LIG1       -0.4444
     22 C           4.2920   -2.4250    0.0000 C.3     1  LIG1        0.2556
     23 O          -0.2250    2.3170    0.0000 O.3     1  LIG1       -0.4701
     24 C           0.7670    2.4290    0.0000 C.3     1  LIG1        0.2525
@<TRIPOS>BOND
     1     1     2   ar
     2     1     5   ar
     3     1    13   ar
     4     2     3   ar
     5     2    10   ar
     6     3     4   ar
     7     3     9   ar
     8     4     5   ar
     9     4     6   ar
    10     6     7   ar
    11     7     8   ar
    12     8     9   ar
    13    10    11   ar
    14    11    12   ar
    15    11    23    1
    16    12    13   ar
    17    12    14    1
    18    14    15   am
    19    15    16    2
    20    15    17    1
    21    17    18    1
    22    18    19    1
    23    19    20    2
    24    19    21    1
    25    21    22    1
    26    23    24    1
