@<TRIPOS>MOLECULE
26130_ChemDiv_8015-7412
 21 24 0 0 0
SMALL
GASTEIGER
Energy = 0

@<TRIPOS>ATOM
      1 C          -1.3210   -0.6920    0.0000 C.ar    1  LIG1        0.1466
      2 O          -2.1500   -1.2670    0.0000 O.2     1  LIG1       -0.4535
      3 C          -2.9330   -0.6920    0.0000 C.ar    1  LIG1        0.1453
      4 C          -2.6330    0.2540    0.0000 C.ar    1  LIG1        0.0375
      5 C          -1.6210    0.2540    0.0000 C.ar    1  LIG1        0.0376
      6 C          -0.9460    0.9960    0.0000 C.ar    1  LIG1        0.0045
      7 C           0.0420    0.7920    0.0000 C.ar    1  LIG1        0.0168
      8 C           0.3290   -0.1790    0.0000 C.ar    1  LIG1        0.0765
      9 N           1.3250   -0.4040    0.0000 N.am    1  LIG1       -0.1771
     10 C           2.0170    0.3040    0.0000 C.2     1  LIG1        0.2727
     11 C           2.9920    0.0830    0.0000 C.3     1  LIG1        0.1929
     12 O           3.4630   -0.7750    0.0000 O.3     1  LIG1       -0.3470
     13 C           4.4460   -0.5880    0.0000 C.3     1  LIG1        0.1428
     14 C           4.5750    0.3830    0.0000 C.3     1  LIG1        0.0351
     15 C           3.6750    0.8080    0.0000 C.3     1  LIG1        0.0417
     16 O           1.7170    1.2710    0.0000 O.2     1  LIG1       -0.2704
     17 C          -0.3460   -0.9130    0.0000 C.ar    1  LIG1        0.0541
     18 C          -3.3040    0.9960    0.0000 C.ar    1  LIG1        0.0031
     19 C          -4.2920    0.7790    0.0000 C.ar    1  LIG1        0.0002
     20 C          -4.5790   -0.1670    0.0000 C.ar    1  LIG1        0.0031
     21 C          -3.9170   -0.9130    0.0000 C.ar    1  LIG1        0.0375
@<TRIPOS>BOND
     1     1     2   ar
     2     1     5   ar
     3     1    17   ar
     4     2     3   ar
     5     3     4   ar
     6     3    21   ar
     7     4     5   ar
     8     4    18   ar
     9     5     6   ar
    10     6     7   ar
    11     7     8   ar
    12     8     9    1
    13     8    17   ar
    14     9    10   am
    15    10    11    1
    16    10    16    2
    17    11    12    1
    18    11    15    1
    19    12    13    1
    20    13    14    1
    21    14    15    1
    22    18    19   ar
    23    19    20   ar
    24    20    21   ar
