@<TRIPOS>MOLECULE
26137_ChemDiv_0983-0001
 28 32 0 0 0
SMALL
GASTEIGER
Energy = 0

@<TRIPOS>ATOM
      1 N           0.3670   -0.2500    0.0000 N.am    1  LIG1       -0.2010
      2 C           0.9000    0.6080    0.0000 C.2     1  LIG1        0.2589
      3 C           1.8460    0.3670    0.0000 C.ar    1  LIG1        0.0589
      4 C           1.8460   -0.6130    0.0000 C.ar    1  LIG1        0.0587
      5 C           1.0000   -1.0040    0.0000 C.2     1  LIG1        0.2589
      6 O           0.7670   -1.9710    0.0000 O.2     1  LIG1       -0.2691
      7 C           2.7880   -1.1040    0.0000 C.ar    1  LIG1        0.0049
      8 C           3.5960   -0.5750    0.0000 C.ar    1  LIG1        0.0066
      9 C           3.5960    0.3670    0.0000 C.ar    1  LIG1        0.0758
     10 C           2.7000    0.9290    0.0000 C.ar    1  LIG1        0.0111
     11 C           4.5380    0.9290    0.0000 C.2     1  LIG1        0.3413
     12 O           4.5380    1.9750    0.0000 O.2     1  LIG1       -0.2449
     13 O           5.3960    0.4170    0.0000 O.3     1  LIG1       -0.4413
     14 C           5.3960   -0.5920    0.0000 C.3     1  LIG1        0.2560
     15 O           0.5170    1.5670    0.0000 O.2     1  LIG1       -0.2691
     16 C          -0.6420   -0.2500    0.0000 C.ar    1  LIG1        0.0643
     17 C          -1.1540   -1.0710    0.0000 C.ar    1  LIG1        0.0528
     18 C          -2.1420   -1.0710    0.0000 C.ar    1  LIG1        0.1466
     19 O          -2.7830   -1.8130    0.0000 O.2     1  LIG1       -0.4535
     20 C          -3.6830   -1.4710    0.0000 C.ar    1  LIG1        0.1453
     21 C          -3.6630   -0.5040    0.0000 C.ar    1  LIG1        0.0375
     22 C          -2.6630   -0.2500    0.0000 C.ar    1  LIG1        0.0376
     23 C          -2.1710    0.6460    0.0000 C.ar    1  LIG1        0.0044
     24 C          -1.1750    0.6460    0.0000 C.ar    1  LIG1        0.0155
     25 C          -4.5000    0.0250    0.0000 C.ar    1  LIG1        0.0031
     26 C          -5.4000   -0.4420    0.0000 C.ar    1  LIG1        0.0002
     27 C          -5.4000   -1.4330    0.0000 C.ar    1  LIG1        0.0031
     28 C          -4.5830   -1.9250    0.0000 C.ar    1  LIG1        0.0375
@<TRIPOS>BOND
     1     1     2   am
     2     1     5   am
     3     1    16    1
     4     2     3    1
     5     2    15    2
     6     3     4   ar
     7     3    10   ar
     8     4     5    1
     9     4     7   ar
    10     5     6    2
    11     7     8   ar
    12     8     9   ar
    13     9    10   ar
    14     9    11    1
    15    11    12    2
    16    11    13    1
    17    13    14    1
    18    16    17   ar
    19    16    24   ar
    20    17    18   ar
    21    18    19   ar
    22    18    22   ar
    23    19    20   ar
    24    20    21   ar
    25    20    28   ar
    26    21    22   ar
    27    21    25   ar
    28    22    23   ar
    29    23    24   ar
    30    25    26   ar
    31    26    27   ar
    32    27    28   ar
