@<TRIPOS>MOLECULE
26134_ChemDiv_8016-2845
 29 32 0 0 0
SMALL
GASTEIGER
Energy = 0

@<TRIPOS>ATOM
      1 C          -1.8420    0.8630    0.0000 C.ar    1  LIG1        0.1468
      2 C          -2.1830    1.7960    0.0000 C.ar    1  LIG1        0.0406
      3 C          -3.1920    1.7460    0.0000 C.ar    1  LIG1        0.0376
      4 C          -3.4580    0.7750    0.0000 C.ar    1  LIG1        0.1453
      5 O          -2.6170    0.2250    0.0000 O.2     1  LIG1       -0.4535
      6 C          -4.4290    0.5330    0.0000 C.ar    1  LIG1        0.0375
      7 C          -5.1290    1.2460    0.0000 C.ar    1  LIG1        0.0031
      8 C          -4.8580    2.2210    0.0000 C.ar    1  LIG1        0.0002
      9 C          -3.8920    2.4580    0.0000 C.ar    1  LIG1        0.0031
     10 C          -1.5670    2.5710    0.0000 C.ar    1  LIG1        0.0414
     11 C          -0.5710    2.4130    0.0000 C.ar    1  LIG1        0.1541
     12 C          -0.2080    1.4710    0.0000 C.ar    1  LIG1        0.1102
     13 C          -0.8540    0.6960    0.0000 C.ar    1  LIG1        0.0571
     14 N           0.7420    1.2080    0.0000 N.am    1  LIG1       -0.1757
     15 C           1.0040    0.2500    0.0000 C.2     1  LIG1        0.2501
     16 O           0.3040   -0.4500    0.0000 O.2     1  LIG1       -0.2726
     17 C           1.9670   -0.0040    0.0000 C.3     1  LIG1        0.1136
     18 C           2.2290   -0.9710    0.0000 C.ar    1  LIG1       -0.0098
     19 C           3.1920   -1.2250    0.0000 C.ar    1  LIG1        0.0363
     20 C           3.4540   -2.1830    0.0000 C.ar    1  LIG1        0.1721
     21 C           2.7500   -2.9000    0.0000 C.ar    1  LIG1        0.1724
     22 C           1.7790   -2.6380    0.0000 C.ar    1  LIG1        0.0397
     23 C           1.5250   -1.6710    0.0000 C.ar    1  LIG1       -0.0005
     24 O           3.0040   -3.8580    0.0000 O.3     1  LIG1       -0.4684
     25 C           3.9790   -4.1130    0.0000 C.3     1  LIG1        0.2526
     26 O           4.4170   -2.4380    0.0000 O.3     1  LIG1       -0.4684
     27 C           5.1250   -1.7250    0.0000 C.3     1  LIG1        0.2526
     28 O           0.0580    3.1830    0.0000 O.3     1  LIG1       -0.4701
     29 C          -0.3040    4.1130    0.0000 C.3     1  LIG1        0.2525
@<TRIPOS>BOND
     1     1     2   ar
     2     1     5   ar
     3     1    13   ar
     4     2     3   ar
     5     2    10   ar
     6     3     4   ar
     7     3     9   ar
     8     4     5   ar
     9     4     6   ar
    10     6     7   ar
    11     7     8   ar
    12     8     9   ar
    13    10    11   ar
    14    11    12   ar
    15    11    28    1
    16    12    13   ar
    17    12    14    1
    18    14    15   am
    19    15    16    2
    20    15    17    1
    21    17    18    1
    22    18    19   ar
    23    18    23   ar
    24    19    20   ar
    25    20    21   ar
    26    20    26    1
    27    21    22   ar
    28    21    24    1
    29    22    23   ar
    30    24    25    1
    31    26    27    1
    32    28    29    1
