@<TRIPOS>MOLECULE
26139_ChemDiv_8006-4691
 29 33 0 0 0
SMALL
GASTEIGER
Energy = 0

@<TRIPOS>ATOM
      1 N          -0.0630   -0.2420    0.0000 N.am    1  LIG1       -0.2010
      2 C           0.4750    0.6080    0.0000 C.2     1  LIG1        0.2589
      3 C           1.4170    0.3670    0.0000 C.ar    1  LIG1        0.0589
      4 C           1.4170   -0.6130    0.0000 C.ar    1  LIG1        0.0587
      5 C           0.5710   -1.0040    0.0000 C.2     1  LIG1        0.2589
      6 O           0.3380   -1.9710    0.0000 O.2     1  LIG1       -0.2691
      7 C           2.3580   -1.1040    0.0000 C.ar    1  LIG1        0.0049
      8 C           3.1670   -0.5750    0.0000 C.ar    1  LIG1        0.0066
      9 C           3.1670    0.3670    0.0000 C.ar    1  LIG1        0.0758
     10 C           2.2750    0.9290    0.0000 C.ar    1  LIG1        0.0111
     11 C           4.1130    0.9290    0.0000 C.2     1  LIG1        0.3412
     12 O           4.1130    1.9750    0.0000 O.2     1  LIG1       -0.2449
     13 O           4.9710    0.4130    0.0000 O.3     1  LIG1       -0.4454
     14 C           4.9710   -0.5880    0.0000 C.3     1  LIG1        0.2089
     15 C           5.8290   -1.0670    0.0000 C.3     1  LIG1        0.0513
     16 O           0.0880    1.5710    0.0000 O.2     1  LIG1       -0.2691
     17 C          -1.0710   -0.2420    0.0000 C.ar    1  LIG1        0.0643
     18 C          -1.5830   -1.0670    0.0000 C.ar    1  LIG1        0.0528
     19 C          -2.5670   -1.0670    0.0000 C.ar    1  LIG1        0.1466
     20 O          -3.2130   -1.8130    0.0000 O.2     1  LIG1       -0.4535
     21 C          -4.1170   -1.4710    0.0000 C.ar    1  LIG1        0.1453
     22 C          -4.0960   -0.5040    0.0000 C.ar    1  LIG1        0.0375
     23 C          -3.0920   -0.2420    0.0000 C.ar    1  LIG1        0.0376
     24 C          -2.6000    0.6460    0.0000 C.ar    1  LIG1        0.0044
     25 C          -1.6080    0.6460    0.0000 C.ar    1  LIG1        0.0155
     26 C          -4.9290    0.0250    0.0000 C.ar    1  LIG1        0.0031
     27 C          -5.8330   -0.4380    0.0000 C.ar    1  LIG1        0.0002
     28 C          -5.8330   -1.4330    0.0000 C.ar    1  LIG1        0.0031
     29 C          -5.0170   -1.9250    0.0000 C.ar    1  LIG1        0.0375
@<TRIPOS>BOND
     1     1     2   am
     2     1     5   am
     3     1    17    1
     4     2     3    1
     5     2    16    2
     6     3     4   ar
     7     3    10   ar
     8     4     5    1
     9     4     7   ar
    10     5     6    2
    11     7     8   ar
    12     8     9   ar
    13     9    10   ar
    14     9    11    1
    15    11    12    2
    16    11    13    1
    17    13    14    1
    18    14    15    1
    19    17    18   ar
    20    17    25   ar
    21    18    19   ar
    22    19    20   ar
    23    19    23   ar
    24    20    21   ar
    25    21    22   ar
    26    21    29   ar
    27    22    23   ar
    28    22    26   ar
    29    23    24   ar
    30    24    25   ar
    31    26    27   ar
    32    27    28   ar
    33    28    29   ar
