@<TRIPOS>MOLECULE
26138_ChemDiv_D047-0108
 22 24 0 0 0
SMALL
GASTEIGER
Energy = 0

@<TRIPOS>ATOM
      1 C          -2.4250   -0.2540    0.0000 C.ar    1  LIG1        0.1466
      2 O          -3.4250   -0.3500    0.0000 O.2     1  LIG1       -0.4535
      3 C          -3.6330   -1.3330    0.0000 C.ar    1  LIG1        0.1453
      4 C          -2.7670   -1.8380    0.0000 C.ar    1  LIG1        0.0375
      5 C          -2.0250   -1.1710    0.0000 C.ar    1  LIG1        0.0376
      6 C          -1.0250   -1.2750    0.0000 C.ar    1  LIG1        0.0045
      7 C          -0.4330   -0.4750    0.0000 C.ar    1  LIG1        0.0168
      8 C          -0.8420    0.4420    0.0000 C.ar    1  LIG1        0.0765
      9 C          -1.8330    0.5460    0.0000 C.ar    1  LIG1        0.0541
     10 N          -0.2540    1.2460    0.0000 N.am    1  LIG1       -0.1770
     11 C           0.7420    1.1330    0.0000 C.2     1  LIG1        0.2758
     12 O           1.1420    0.2250    0.0000 O.2     1  LIG1       -0.2702
     13 C           1.3380    1.9420    0.0000 C.3     1  LIG1        0.2294
     14 O           2.3250    1.8330    0.0000 O.3     1  LIG1       -0.3383
     15 C           2.9250    2.6420    0.0000 C.3     1  LIG1        0.1842
     16 C           3.9170    2.5290    0.0000 C.2     1  LIG1        0.0801
     17 O           4.3210    1.6210    0.0000 O.co2   1  LIG1       -0.5466
     18 O           4.5080    3.3380    0.0000 O.co2   1  LIG1       -0.5466
     19 C          -2.7750   -2.8380    0.0000 C.ar    1  LIG1        0.0031
     20 C          -3.6380   -3.3330    0.0000 C.ar    1  LIG1        0.0002
     21 C          -4.5130   -2.8210    0.0000 C.ar    1  LIG1        0.0031
     22 C          -4.5000   -1.8210    0.0000 C.ar    1  LIG1        0.0375
@<TRIPOS>BOND
     1     1     2   ar
     2     1     5   ar
     3     1     9   ar
     4     2     3   ar
     5     3     4   ar
     6     3    22   ar
     7     4     5   ar
     8     4    19   ar
     9     5     6   ar
    10     6     7   ar
    11     7     8   ar
    12     8     9   ar
    13     8    10    1
    14    10    11   am
    15    11    12    2
    16    11    13    1
    17    13    14    1
    18    14    15    1
    19    15    16    1
    20    16    17   ar
    21    16    18   ar
    22    19    20   ar
    23    20    21   ar
    24    21    22   ar
