@<TRIPOS>MOLECULE
26148_ChemDiv_3347-6750
 28 31 0 0 0
SMALL
GASTEIGER
Energy = 0

@<TRIPOS>ATOM
      1 N          -2.2210    0.0790    0.0000 N.ar    1  LIG1       -0.3245
      2 C          -1.4580    0.6880    0.0000 C.ar    1  LIG1        0.0600
      3 C          -1.7960    1.6380    0.0000 C.ar    1  LIG1        0.0172
      4 C          -2.8040    1.5920    0.0000 C.ar    1  LIG1        0.0172
      5 C          -3.0630    0.6250    0.0000 C.ar    1  LIG1        0.0600
      6 C          -4.0330    0.3670    0.0000 C.ar    1  LIG1        0.0172
      7 C          -4.7290    1.0540    0.0000 C.ar    1  LIG1        0.0015
      8 C          -4.4630    2.0210    0.0000 C.ar    1  LIG1        0.0001
      9 C          -3.5080    2.3040    0.0000 C.ar    1  LIG1        0.0015
     10 C          -1.1670    2.4250    0.0000 C.ar    1  LIG1        0.0015
     11 C          -0.2000    2.2580    0.0000 C.ar    1  LIG1        0.0001
     12 C           0.1630    1.3080    0.0000 C.ar    1  LIG1        0.0015
     13 C          -0.4630    0.5460    0.0000 C.ar    1  LIG1        0.0172
     14 C          -2.1750   -0.9330    0.0000 C.3     1  LIG1        0.1403
     15 C          -1.3080   -1.4330    0.0000 C.3     1  LIG1        0.1936
     16 C          -0.4420   -0.9210    0.0000 C.3     1  LIG1        0.1502
     17 N           0.4080   -1.4330    0.0000 N.3     1  LIG1       -0.0750
     18 S           1.2710   -0.9080    0.0000 S.O2    1  LIG1        0.0769
     19 C           2.1460   -0.4080    0.0000 C.ar    1  LIG1        0.1235
     20 C           2.9960   -0.9080    0.0000 C.ar    1  LIG1        0.0196
     21 C           3.8630   -0.4080    0.0000 C.ar    1  LIG1       -0.0029
     22 C           3.8630    0.5920    0.0000 C.ar    1  LIG1       -0.0218
     23 C           2.9920    1.0920    0.0000 C.ar    1  LIG1       -0.0029
     24 C           2.1290    0.5830    0.0000 C.ar    1  LIG1        0.0196
     25 C           4.7250    1.1080    0.0000 C.3     1  LIG1        0.0310
     26 O           1.7790   -1.7790    0.0000 O.2     1  LIG1       -0.1516
     27 O           0.7540   -0.0420    0.0000 O.2     1  LIG1       -0.1516
     28 O          -1.3080   -2.4210    0.0000 O.3     1  LIG1       -0.2194
@<TRIPOS>BOND
     1     1     2   ar
     2     1     5   ar
     3     1    14    1
     4     2     3   ar
     5     2    13   ar
     6     3     4   ar
     7     3    10   ar
     8     4     5   ar
     9     4     9   ar
    10     5     6   ar
    11     6     7   ar
    12     7     8   ar
    13     8     9   ar
    14    10    11   ar
    15    11    12   ar
    16    12    13   ar
    17    14    15    1
    18    15    16    1
    19    15    28    1
    20    16    17    1
    21    17    18    1
    22    18    19    1
    23    18    26    2
    24    18    27    2
    25    19    20   ar
    26    19    24   ar
    27    20    21   ar
    28    21    22   ar
    29    22    23   ar
    30    22    25    1
    31    23    24   ar
