@<TRIPOS>MOLECULE
26146_ChemDiv_3194-0054
 29 32 0 0 0
SMALL
GASTEIGER
Energy = 0

@<TRIPOS>ATOM
      1 N          -2.3290   -0.4580    0.0000 N.ar    1  LIG1       -0.3245
      2 C          -2.9540   -1.2460    0.0000 C.ar    1  LIG1        0.0600
      3 C          -3.9000   -0.9500    0.0000 C.ar    1  LIG1        0.0172
      4 C          -3.8750    0.0540    0.0000 C.ar    1  LIG1        0.0172
      5 C          -2.8960    0.3460    0.0000 C.ar    1  LIG1        0.0600
      6 C          -2.7000    1.2830    0.0000 C.ar    1  LIG1        0.0172
      7 C          -3.4500    1.9880    0.0000 C.ar    1  LIG1        0.0015
      8 C          -4.4130    1.6670    0.0000 C.ar    1  LIG1        0.0001
      9 C          -4.6330    0.7040    0.0000 C.ar    1  LIG1        0.0015
     10 C          -4.6670   -1.6460    0.0000 C.ar    1  LIG1        0.0015
     11 C          -4.4500   -2.6170    0.0000 C.ar    1  LIG1        0.0001
     12 C          -3.5040   -2.9380    0.0000 C.ar    1  LIG1        0.0015
     13 C          -2.7630   -2.2540    0.0000 C.ar    1  LIG1        0.0172
     14 C          -1.3540   -0.4580    0.0000 C.3     1  LIG1        0.1406
     15 C          -0.9080    0.4130    0.0000 C.3     1  LIG1        0.1959
     16 C           0.1290    0.3750    0.0000 C.3     1  LIG1        0.1502
     17 N           0.6250    1.2290    0.0000 N.pl3   1  LIG1       -0.1917
     18 S           0.1290    2.0960    0.0000 S.O2    1  LIG1        0.0589
     19 O          -0.7330    1.5880    0.0000 O.2     1  LIG1       -0.1542
     20 O           1.0000    2.6080    0.0000 O.2     1  LIG1       -0.1542
     21 C          -0.3580    2.9420    0.0000 C.3     1  LIG1        0.1999
     22 C           1.6380    1.2290    0.0000 C.ar    1  LIG1        0.0686
     23 C           2.1500    0.3830    0.0000 C.ar    1  LIG1        0.0170
     24 C           3.1670    0.4130    0.0000 C.ar    1  LIG1        0.0127
     25 C           3.6670    1.2670    0.0000 C.ar    1  LIG1        0.0578
     26 C           3.1330    2.1210    0.0000 C.ar    1  LIG1        0.0127
     27 C           2.1250    2.1210    0.0000 C.ar    1  LIG1        0.0170
     28 CL          4.6630    1.2670    0.0000 Cl      1  LIG1       -0.0822
     29 O          -1.3750    1.2380    0.0000 O.3     1  LIG1       -0.2191
@<TRIPOS>BOND
     1     1     2   ar
     2     1     5   ar
     3     1    14    1
     4     2     3   ar
     5     2    13   ar
     6     3     4   ar
     7     3    10   ar
     8     4     5   ar
     9     4     9   ar
    10     5     6   ar
    11     6     7   ar
    12     7     8   ar
    13     8     9   ar
    14    10    11   ar
    15    11    12   ar
    16    12    13   ar
    17    14    15    1
    18    15    16    1
    19    15    29    1
    20    16    17    1
    21    17    18    1
    22    17    22    1
    23    18    19    2
    24    18    20    2
    25    18    21    1
    26    22    23   ar
    27    22    27   ar
    28    23    24   ar
    29    24    25   ar
    30    25    26   ar
    31    25    28    1
    32    26    27   ar
