@<TRIPOS>MOLECULE
26141_ChemDiv_0986-0033
 31 34 0 0 0
SMALL
GASTEIGER
Energy = 0

@<TRIPOS>ATOM
      1 N           0.8830    1.0460    0.0000 N.ar    1  LIG1       -0.1577
      2 C          -0.0080    0.5460    0.0000 C.3     1  LIG1        0.3132
      3 C          -0.8710    1.0460    0.0000 C.2     1  LIG1        0.2434
      4 C          -1.7420    0.5460    0.0000 C.ar    1  LIG1        0.0414
      5 C          -1.7420   -0.4460    0.0000 C.ar    1  LIG1        0.0031
      6 C          -2.5960   -0.9420    0.0000 C.ar    1  LIG1        0.0001
      7 C          -3.4580   -0.4460    0.0000 C.ar    1  LIG1        0.0000
      8 C          -3.4580    0.5460    0.0000 C.ar    1  LIG1        0.0001
      9 C          -2.5960    1.0460    0.0000 C.ar    1  LIG1        0.0031
     10 C          -4.3170   -0.9420    0.0000 C.ar    1  LIG1        0.0000
     11 C          -5.1790   -0.4460    0.0000 C.ar    1  LIG1        0.0000
     12 C          -6.0170   -0.9420    0.0000 C.ar    1  LIG1        0.0000
     13 C          -6.0170   -1.9380    0.0000 C.ar    1  LIG1        0.0000
     14 C          -5.1790   -2.4330    0.0000 C.ar    1  LIG1        0.0000
     15 C          -4.3170   -1.9380    0.0000 C.ar    1  LIG1        0.0000
     16 O          -0.8710    2.0380    0.0000 O.2     1  LIG1       -0.2843
     17 C          -0.0420   -0.4880    0.0000 C.3     1  LIG1        0.0939
     18 C           1.7380    0.5460    0.0000 C.ar    1  LIG1        0.3069
     19 C           2.6080    1.0460    0.0000 C.ar    1  LIG1        0.1434
     20 N           3.4500    0.5250    0.0000 N.am    1  LIG1       -0.1692
     21 C           3.4380   -0.4880    0.0000 C.2     1  LIG1        0.2692
     22 O           2.5250   -0.9170    0.0000 O.2     1  LIG1       -0.2680
     23 C           4.2630   -1.0210    0.0000 C.ar    1  LIG1        0.0554
     24 C           5.1330   -0.5500    0.0000 C.ar    1  LIG1        0.0046
     25 C           6.0170   -1.0670    0.0000 C.ar    1  LIG1        0.0001
     26 C           5.9630   -2.0750    0.0000 C.ar    1  LIG1        0.0000
     27 C           5.0710   -2.5580    0.0000 C.ar    1  LIG1        0.0001
     28 C           4.2170   -2.0210    0.0000 C.ar    1  LIG1        0.0046
     29 C           2.6080    2.0670    0.0000 C.ar    1  LIG1        0.0292
     30 C           1.7380    2.5630    0.0000 C.ar    1  LIG1        0.0772
     31 C           0.8830    2.0670    0.0000 C.ar    1  LIG1        0.2904
@<TRIPOS>BOND
     1     1     2    1
     2     1    18   ar
     3     1    31   ar
     4     2     3    1
     5     2    17    1
     6     3     4    1
     7     3    16    2
     8     4     5   ar
     9     4     9   ar
    10     5     6   ar
    11     6     7   ar
    12     7     8   ar
    13     7    10    1
    14     8     9   ar
    15    10    11   ar
    16    10    15   ar
    17    11    12   ar
    18    12    13   ar
    19    13    14   ar
    20    14    15   ar
    21    18    19   ar
    22    19    20    1
    23    19    29   ar
    24    20    21   am
    25    21    22    2
    26    21    23    1
    27    23    24   ar
    28    23    28   ar
    29    24    25   ar
    30    25    26   ar
    31    26    27   ar
    32    27    28   ar
    33    29    30   ar
    34    30    31   ar
