@<TRIPOS>MOLECULE
26140_ChemDiv_D047-0112
 24 26 0 0 0
SMALL
GASTEIGER
Energy = 0

@<TRIPOS>ATOM
      1 C          -2.4210   -0.2540    0.0000 C.ar    1  LIG1        0.1468
      2 C          -2.0250   -1.1790    0.0000 C.ar    1  LIG1        0.0406
      3 C          -2.7750   -1.8460    0.0000 C.ar    1  LIG1        0.0376
      4 C          -3.6330   -1.3330    0.0000 C.ar    1  LIG1        0.1453
      5 O          -3.4210   -0.3580    0.0000 O.2     1  LIG1       -0.4535
      6 C          -4.5040   -1.8290    0.0000 C.ar    1  LIG1        0.0375
      7 C          -4.5130   -2.8290    0.0000 C.ar    1  LIG1        0.0031
      8 C          -3.6500   -3.3330    0.0000 C.ar    1  LIG1        0.0002
      9 C          -2.7830   -2.8330    0.0000 C.ar    1  LIG1        0.0031
     10 C          -1.0250   -1.2880    0.0000 C.ar    1  LIG1        0.0414
     11 C          -0.4330   -0.4830    0.0000 C.ar    1  LIG1        0.1541
     12 C          -0.8420    0.4330    0.0000 C.ar    1  LIG1        0.1103
     13 C          -1.8330    0.5500    0.0000 C.ar    1  LIG1        0.0571
     14 N          -0.2540    1.2330    0.0000 N.am    1  LIG1       -0.1739
     15 C           0.7420    1.1250    0.0000 C.2     1  LIG1        0.2759
     16 O           1.1420    0.2130    0.0000 O.2     1  LIG1       -0.2702
     17 C           1.3420    1.9330    0.0000 C.3     1  LIG1        0.2294
     18 O           2.3250    1.8210    0.0000 O.3     1  LIG1       -0.3383
     19 C           2.9250    2.6290    0.0000 C.3     1  LIG1        0.1842
     20 C           3.9170    2.5210    0.0000 C.2     1  LIG1        0.0801
     21 O           4.3210    1.6080    0.0000 O.co2   1  LIG1       -0.5466
     22 O           4.5080    3.3380    0.0000 O.co2   1  LIG1       -0.5466
     23 O           0.5630   -0.5830    0.0000 O.3     1  LIG1       -0.4701
     24 C           0.9630   -1.5000    0.0000 C.3     1  LIG1        0.2525
@<TRIPOS>BOND
     1     1     2   ar
     2     1     5   ar
     3     1    13   ar
     4     2     3   ar
     5     2    10   ar
     6     3     4   ar
     7     3     9   ar
     8     4     5   ar
     9     4     6   ar
    10     6     7   ar
    11     7     8   ar
    12     8     9   ar
    13    10    11   ar
    14    11    12   ar
    15    11    23    1
    16    12    13   ar
    17    12    14    1
    18    14    15   am
    19    15    16    2
    20    15    17    1
    21    17    18    1
    22    18    19    1
    23    19    20    1
    24    20    21   ar
    25    20    22   ar
    26    23    24    1
