@<TRIPOS>MOLECULE
26142_ChemDiv_K940-3008
 36 40 0 0 0
SMALL
GASTEIGER
Energy = 0

@<TRIPOS>ATOM
      1 C          -2.6130   -3.5880    0.0000 C.ar    1  LIG1        0.1468
      2 C          -1.7500   -4.1000    0.0000 C.ar    1  LIG1        0.0406
      3 C          -1.9580   -5.0750    0.0000 C.ar    1  LIG1        0.0376
      4 C          -2.9580   -5.1790    0.0000 C.ar    1  LIG1        0.1453
      5 O          -3.3540   -4.2540    0.0000 O.2     1  LIG1       -0.4535
      6 C          -3.3500   -6.0880    0.0000 C.ar    1  LIG1        0.0375
      7 C          -2.7670   -6.9040    0.0000 C.ar    1  LIG1        0.0031
      8 C          -1.7790   -6.8000    0.0000 C.ar    1  LIG1        0.0002
      9 C          -1.3710   -5.8880    0.0000 C.ar    1  LIG1        0.0031
     10 C          -0.8790   -3.6000    0.0000 C.ar    1  LIG1        0.0414
     11 C          -0.8790   -2.6000    0.0000 C.ar    1  LIG1        0.1541
     12 C          -1.7460   -2.0880    0.0000 C.ar    1  LIG1        0.1103
     13 C          -2.6130   -2.6000    0.0000 C.ar    1  LIG1        0.0571
     14 N          -1.7460   -1.0880    0.0000 N.am    1  LIG1       -0.1749
     15 C          -2.6080   -0.5750    0.0000 C.2     1  LIG1        0.2620
     16 C          -2.6080    0.4170    0.0000 C.3     1  LIG1        0.1609
     17 N          -1.7460    0.9040    0.0000 N.3     1  LIG1       -0.2548
     18 C          -0.8710    0.4130    0.0000 C.3     1  LIG1        0.1362
     19 C          -0.0170    0.9000    0.0000 C.3     1  LIG1        0.1570
     20 N          -0.0170    1.9040    0.0000 N.4     1  LIG1        0.3867
     21 C           0.8460    2.4040    0.0000 C.3     1  LIG1        0.2270
     22 C           0.8460    3.4080    0.0000 C.2     1  LIG1        0.3033
     23 N           1.7080    3.9080    0.0000 N.am    1  LIG1       -0.1734
     24 C           1.7080    4.9040    0.0000 C.ar    1  LIG1        0.0841
     25 C           2.5830    5.4170    0.0000 C.ar    1  LIG1        0.0729
     26 CL          3.4670    4.9170    0.0000 Cl      1  LIG1       -0.0809
     27 C           2.5750    6.4040    0.0000 C.ar    1  LIG1        0.0127
     28 C           1.7080    6.9040    0.0000 C.ar    1  LIG1        0.0010
     29 C           0.8420    6.3960    0.0000 C.ar    1  LIG1        0.0014
     30 C           0.8460    5.3880    0.0000 C.ar    1  LIG1        0.0175
     31 O          -0.0210    3.9000    0.0000 O.2     1  LIG1       -0.2665
     32 C          -0.8790    2.4000    0.0000 C.3     1  LIG1        0.1570
     33 C          -1.7460    1.9000    0.0000 C.3     1  LIG1        0.1362
     34 O          -3.4710   -1.0830    0.0000 O.2     1  LIG1       -0.2715
     35 O           0.0000   -2.1000    0.0000 O.3     1  LIG1       -0.4701
     36 C           0.8630   -2.6040    0.0000 C.3     1  LIG1        0.2525
@<TRIPOS>BOND
     1     1     2   ar
     2     1     5   ar
     3     1    13   ar
     4     2     3   ar
     5     2    10   ar
     6     3     4   ar
     7     3     9   ar
     8     4     5   ar
     9     4     6   ar
    10     6     7   ar
    11     7     8   ar
    12     8     9   ar
    13    10    11   ar
    14    11    12   ar
    15    11    35    1
    16    12    13   ar
    17    12    14    1
    18    14    15   am
    19    15    16    1
    20    15    34    2
    21    16    17    1
    22    17    18    1
    23    17    33    1
    24    18    19    1
    25    19    20    1
    26    20    21    1
    27    20    32    1
    28    21    22    1
    29    22    23   am
    30    22    31    2
    31    23    24    1
    32    24    25   ar
    33    24    30   ar
    34    25    26    1
    35    25    27   ar
    36    27    28   ar
    37    28    29   ar
    38    29    30   ar
    39    32    33    1
    40    35    36    1
