@<TRIPOS>MOLECULE
26152_ChemDiv_4106-0044
 32 36 0 0 0
SMALL
GASTEIGER
Energy = 0

@<TRIPOS>ATOM
      1 N          -3.7710    0.6630    0.0000 N.ar    1  LIG1       -0.3245
      2 C          -4.5210    1.3330    0.0000 C.ar    1  LIG1        0.0600
      3 C          -5.3960    0.8380    0.0000 C.ar    1  LIG1        0.0172
      4 C          -5.1830   -0.1420    0.0000 C.ar    1  LIG1        0.0172
      5 C          -4.1880   -0.2500    0.0000 C.ar    1  LIG1        0.0600
      6 C          -3.7830   -1.1670    0.0000 C.ar    1  LIG1        0.0172
      7 C          -4.3710   -1.9710    0.0000 C.ar    1  LIG1        0.0015
      8 C          -5.3670   -1.8630    0.0000 C.ar    1  LIG1        0.0001
      9 C          -5.7710   -0.9540    0.0000 C.ar    1  LIG1        0.0015
     10 C          -6.2500    1.3330    0.0000 C.ar    1  LIG1        0.0015
     11 C          -6.2500    2.3330    0.0000 C.ar    1  LIG1        0.0001
     12 C          -5.3960    2.8420    0.0000 C.ar    1  LIG1        0.0015
     13 C          -4.5210    2.3460    0.0000 C.ar    1  LIG1        0.0172
     14 C          -2.8000    0.8710    0.0000 C.3     1  LIG1        0.1402
     15 C          -2.0920    0.1630    0.0000 C.3     1  LIG1        0.1903
     16 C          -1.1250    0.4290    0.0000 C.3     1  LIG1        0.1077
     17 N          -0.4170   -0.2790    0.0000 N.3     1  LIG1       -0.2604
     18 C          -0.6790   -1.2420    0.0000 C.3     1  LIG1        0.1359
     19 C           0.0210   -1.9380    0.0000 C.3     1  LIG1        0.1568
     20 N           0.9880   -1.6920    0.0000 N.4     1  LIG1        0.3829
     21 C           1.6960   -2.4000    0.0000 C.3     1  LIG1        0.1663
     22 C           2.6630   -2.1330    0.0000 C.ar    1  LIG1        0.0346
     23 C           3.3710   -2.8380    0.0000 C.ar    1  LIG1        0.0045
     24 C           4.3380   -2.5670    0.0000 C.ar    1  LIG1        0.0368
     25 C           4.5880   -1.5920    0.0000 C.ar    1  LIG1        0.1387
     26 C           3.8630   -0.8920    0.0000 C.ar    1  LIG1        0.0368
     27 C           2.9040   -1.1670    0.0000 C.ar    1  LIG1        0.0045
     28 O           5.5420   -1.3380    0.0000 O.3     1  LIG1       -0.4714
     29 C           6.2500   -2.0290    0.0000 C.3     1  LIG1        0.2525
     30 C           1.2420   -0.7290    0.0000 C.3     1  LIG1        0.1568
     31 C           0.5420   -0.0170    0.0000 C.3     1  LIG1        0.1359
     32 O          -2.3540   -0.8040    0.0000 O.3     1  LIG1       -0.2196
@<TRIPOS>BOND
     1     1     2   ar
     2     1     5   ar
     3     1    14    1
     4     2     3   ar
     5     2    13   ar
     6     3     4   ar
     7     3    10   ar
     8     4     5   ar
     9     4     9   ar
    10     5     6   ar
    11     6     7   ar
    12     7     8   ar
    13     8     9   ar
    14    10    11   ar
    15    11    12   ar
    16    12    13   ar
    17    14    15    1
    18    15    16    1
    19    15    32    1
    20    16    17    1
    21    17    18    1
    22    17    31    1
    23    18    19    1
    24    19    20    1
    25    20    21    1
    26    20    30    1
    27    21    22    1
    28    22    23   ar
    29    22    27   ar
    30    23    24   ar
    31    24    25   ar
    32    25    26   ar
    33    25    28    1
    34    26    27   ar
    35    28    29    1
    36    30    31    1
