@<TRIPOS>MOLECULE
26156_ChemDiv_4390-0129
 29 32 0 0 0
SMALL
GASTEIGER
Energy = 0

@<TRIPOS>ATOM
      1 N          -1.5420    1.1330    0.0000 N.ar    1  LIG1       -0.3243
      2 C          -2.4670    1.5380    0.0000 C.ar    1  LIG1        0.0600
      3 C          -3.1330    0.7960    0.0000 C.ar    1  LIG1        0.0181
      4 C          -2.6250   -0.0540    0.0000 C.ar    1  LIG1        0.0181
      5 C          -1.6420    0.1500    0.0000 C.ar    1  LIG1        0.0600
      6 C          -0.9790   -0.5920    0.0000 C.ar    1  LIG1        0.0181
      7 C          -1.2830   -1.5380    0.0000 C.ar    1  LIG1        0.0129
      8 C          -2.2540   -1.7710    0.0000 C.ar    1  LIG1        0.0578
      9 C          -2.9290   -1.0170    0.0000 C.ar    1  LIG1        0.0129
     10 CL         -2.5670   -2.7000    0.0000 Cl      1  LIG1       -0.0822
     11 C          -4.1040    1.0040    0.0000 C.ar    1  LIG1        0.0129
     12 C          -4.4170    1.9540    0.0000 C.ar    1  LIG1        0.0578
     13 C          -3.7540    2.7040    0.0000 C.ar    1  LIG1        0.0129
     14 C          -2.7670    2.5000    0.0000 C.ar    1  LIG1        0.0181
     15 CL         -5.3960    2.1750    0.0000 Cl      1  LIG1       -0.0822
     16 C          -0.6580    1.6330    0.0000 C.3     1  LIG1        0.1450
     17 C           0.2080    1.1210    0.0000 C.3     1  LIG1        0.2306
     18 C           1.0830    1.6330    0.0000 C.3     1  LIG1        0.1740
     19 N           1.9420    1.1210    0.0000 N.4     1  LIG1        0.3816
     20 C           2.8330    1.6210    0.0000 C.3     1  LIG1        0.1582
     21 C           3.6750    1.1130    0.0000 C.3     1  LIG1        0.1581
     22 N           3.6750    0.1170    0.0000 N.3     1  LIG1       -0.1472
     23 S           4.5420   -0.3830    0.0000 S.O2    1  LIG1        0.0460
     24 O           4.0210   -1.2250    0.0000 O.2     1  LIG1       -0.1572
     25 O           5.0630    0.4790    0.0000 O.2     1  LIG1       -0.1572
     26 C           5.3920   -0.8880    0.0000 C.3     1  LIG1        0.1960
     27 C           2.8080   -0.3830    0.0000 C.3     1  LIG1        0.1581
     28 C           1.9420    0.1380    0.0000 C.3     1  LIG1        0.1582
     29 O           0.2080    0.1380    0.0000 O.3     1  LIG1       -0.2146
@<TRIPOS>BOND
     1     1     2   ar
     2     1     5   ar
     3     1    16    1
     4     2     3   ar
     5     2    14   ar
     6     3     4   ar
     7     3    11   ar
     8     4     5   ar
     9     4     9   ar
    10     5     6   ar
    11     6     7   ar
    12     7     8   ar
    13     8     9   ar
    14     8    10    1
    15    11    12   ar
    16    12    13   ar
    17    12    15    1
    18    13    14   ar
    19    16    17    1
    20    17    18    1
    21    17    29    1
    22    18    19    1
    23    19    20    1
    24    19    28    1
    25    20    21    1
    26    21    22    1
    27    22    23    1
    28    22    27    1
    29    23    24    2
    30    23    25    2
    31    23    26    1
    32    27    28    1
