@<TRIPOS>MOLECULE
26158_ChemDiv_5228-0736
 23 25 0 0 0
SMALL
GASTEIGER
Energy = 0

@<TRIPOS>ATOM
      1 N          -1.8750    0.5210    0.0000 N.ar    1  LIG1       -0.3243
      2 C          -2.4580   -0.2790    0.0000 C.ar    1  LIG1        0.0600
      3 C          -3.4080    0.0380    0.0000 C.ar    1  LIG1        0.0172
      4 C          -3.3960    1.0330    0.0000 C.ar    1  LIG1        0.0172
      5 C          -2.4580    1.3330    0.0000 C.ar    1  LIG1        0.0600
      6 C          -2.2460    2.3080    0.0000 C.ar    1  LIG1        0.0172
      7 C          -2.9790    2.9830    0.0000 C.ar    1  LIG1        0.0015
      8 C          -3.9250    2.6880    0.0000 C.ar    1  LIG1        0.0001
      9 C          -4.1460    1.7000    0.0000 C.ar    1  LIG1        0.0015
     10 C          -4.1460   -0.6250    0.0000 C.ar    1  LIG1        0.0015
     11 C          -3.9500   -1.6080    0.0000 C.ar    1  LIG1        0.0001
     12 C          -3.0080   -1.9210    0.0000 C.ar    1  LIG1        0.0015
     13 C          -2.2630   -1.2580    0.0000 C.ar    1  LIG1        0.0172
     14 C          -0.8710    0.5210    0.0000 C.3     1  LIG1        0.1452
     15 C          -0.3710   -0.3540    0.0000 C.3     1  LIG1        0.2365
     16 O          -0.8750   -1.2170    0.0000 O.3     1  LIG1       -0.2144
     17 C           0.6330   -0.3540    0.0000 C.3     1  LIG1        0.2358
     18 N           1.1330   -1.2170    0.0000 N.4     1  LIG1        0.4503
     19 C           2.1330   -1.2170    0.0000 C.3     1  LIG1        0.2007
     20 C           2.6330   -2.1040    0.0000 C.3     1  LIG1        0.0689
     21 C           3.6330   -2.1040    0.0000 C.3     1  LIG1        0.0061
     22 C           4.1330   -2.9790    0.0000 C.3     1  LIG1        0.0002
     23 C           4.1420   -1.2420    0.0000 C.3     1  LIG1        0.0002
@<TRIPOS>BOND
     1     1     2   ar
     2     1     5   ar
     3     1    14    1
     4     2     3   ar
     5     2    13   ar
     6     3     4   ar
     7     3    10   ar
     8     4     5   ar
     9     4     9   ar
    10     5     6   ar
    11     6     7   ar
    12     7     8   ar
    13     8     9   ar
    14    10    11   ar
    15    11    12   ar
    16    12    13   ar
    17    14    15    1
    18    15    16    1
    19    15    17    1
    20    17    18    1
    21    18    19    1
    22    19    20    1
    23    20    21    1
    24    21    22    1
    25    21    23    1
