@<TRIPOS>MOLECULE
26154_ChemDiv_4390-0105
 30 33 0 0 0
SMALL
GASTEIGER
Energy = 0

@<TRIPOS>ATOM
      1 S          -1.6580    0.7040    0.0000 S.O2    1  LIG1        0.0634
      2 N          -0.8000    0.2420    0.0000 N.3     1  LIG1       -0.1529
      3 C           0.0420    0.7380    0.0000 C.3     1  LIG1        0.1306
      4 C           0.8880    0.2790    0.0000 C.3     1  LIG1        0.1920
      5 C           1.7170    0.7750    0.0000 C.3     1  LIG1        0.1403
      6 N           2.5750    0.3080    0.0000 N.ar    1  LIG1       -0.3245
      7 C           3.4250    0.7920    0.0000 C.ar    1  LIG1        0.0600
      8 C           4.2710    0.3080    0.0000 C.ar    1  LIG1        0.0172
      9 C           3.4250   -1.1630    0.0000 C.ar    1  LIG1        0.0172
     10 C           2.5750   -0.6710    0.0000 C.ar    1  LIG1        0.0600
     11 C           1.7290   -1.1630    0.0000 C.ar    1  LIG1        0.0172
     12 C           1.7290   -2.1380    0.0000 C.ar    1  LIG1        0.0015
     13 C           2.5960   -2.6250    0.0000 C.ar    1  LIG1        0.0001
     14 C           3.4420   -2.1380    0.0000 C.ar    1  LIG1        0.0015
     15 C           5.1130    0.7920    0.0000 C.ar    1  LIG1        0.0015
     16 C           5.1130    1.7630    0.0000 C.ar    1  LIG1        0.0001
     17 C           4.2630    2.2540    0.0000 C.ar    1  LIG1        0.0015
     18 C           3.4170    1.7630    0.0000 C.ar    1  LIG1        0.0172
     19 O           0.9080   -0.7040    0.0000 O.3     1  LIG1       -0.2195
     20 C          -0.7790   -0.7330    0.0000 C.3     1  LIG1        0.0959
     21 C          -1.6170   -1.2500    0.0000 C.3     1  LIG1        0.0206
     22 C          -2.5210    1.1790    0.0000 C.ar    1  LIG1        0.1223
     23 C          -3.3670    0.6790    0.0000 C.ar    1  LIG1        0.0208
     24 C          -4.2210    1.1540    0.0000 C.ar    1  LIG1        0.0128
     25 C          -4.2460    2.1250    0.0000 C.ar    1  LIG1        0.0578
     26 C          -3.4040    2.6290    0.0000 C.ar    1  LIG1        0.0128
     27 C          -2.5460    2.1540    0.0000 C.ar    1  LIG1        0.0208
     28 CL         -5.1170    2.6000    0.0000 Cl      1  LIG1       -0.0822
     29 O          -1.1880    1.5750    0.0000 O.2     1  LIG1       -0.1528
     30 O          -2.1420   -0.1500    0.0000 O.2     1  LIG1       -0.1528
@<TRIPOS>BOND
     1     1     2    1
     2     1    22    1
     3     1    29    2
     4     1    30    2
     5     2     3    1
     6     2    20    1
     7     3     4    1
     8     4     5    1
     9     4    19    1
    10     5     6    1
    11     6     7   ar
    12     6    10   ar
    13     7     8   ar
    14     7    18   ar
    15     8     9   ar
    16     8    15   ar
    17     9    10   ar
    18     9    14   ar
    19    10    11   ar
    20    11    12   ar
    21    12    13   ar
    22    13    14   ar
    23    15    16   ar
    24    16    17   ar
    25    17    18   ar
    26    20    21    1
    27    22    23   ar
    28    22    27   ar
    29    23    24   ar
    30    24    25   ar
    31    25    26   ar
    32    25    28    1
    33    26    27   ar
