@<TRIPOS>MOLECULE
26150_ChemDiv_3775-0033
 29 32 0 0 0
SMALL
GASTEIGER
Energy = 0

@<TRIPOS>ATOM
      1 N          -2.3880    0.4830    0.0000 N.ar    1  LIG1       -0.3245
      2 C          -2.9670   -0.3460    0.0000 C.ar    1  LIG1        0.0600
      3 C          -3.9080   -0.0080    0.0000 C.ar    1  LIG1        0.0172
      4 C          -3.9290    1.0170    0.0000 C.ar    1  LIG1        0.0172
      5 C          -2.9670    1.2920    0.0000 C.ar    1  LIG1        0.0600
      6 C          -2.7580    2.2750    0.0000 C.ar    1  LIG1        0.0172
      7 C          -3.4880    2.9830    0.0000 C.ar    1  LIG1        0.0015
      8 C          -4.4290    2.6670    0.0000 C.ar    1  LIG1        0.0001
      9 C          -4.6670    1.6830    0.0000 C.ar    1  LIG1        0.0015
     10 C          -4.6460   -0.6960    0.0000 C.ar    1  LIG1        0.0015
     11 C          -4.4290   -1.7000    0.0000 C.ar    1  LIG1        0.0001
     12 C          -3.4670   -1.9830    0.0000 C.ar    1  LIG1        0.0015
     13 C          -2.7290   -1.3330    0.0000 C.ar    1  LIG1        0.0172
     14 C          -1.3540    0.4830    0.0000 C.3     1  LIG1        0.1406
     15 C          -0.8540   -0.3920    0.0000 C.3     1  LIG1        0.1959
     16 C           0.1630   -0.3920    0.0000 C.3     1  LIG1        0.1502
     17 N           0.6830   -1.2580    0.0000 N.pl3   1  LIG1       -0.1917
     18 S           0.2210   -2.1210    0.0000 S.O2    1  LIG1        0.0589
     19 O           1.0750   -2.5920    0.0000 O.2     1  LIG1       -0.1542
     20 O          -0.6580   -1.6580    0.0000 O.2     1  LIG1       -0.1542
     21 C          -0.2460   -2.9790    0.0000 C.3     1  LIG1        0.1999
     22 C           1.6830   -1.2580    0.0000 C.ar    1  LIG1        0.0685
     23 C           2.1920   -2.0920    0.0000 C.ar    1  LIG1        0.0158
     24 C           3.1960   -2.1000    0.0000 C.ar    1  LIG1       -0.0029
     25 C           3.6670   -1.2170    0.0000 C.ar    1  LIG1       -0.0218
     26 C           3.1460   -0.4080    0.0000 C.ar    1  LIG1       -0.0029
     27 C           2.1540   -0.4000    0.0000 C.ar    1  LIG1        0.0158
     28 C           4.6630   -1.2080    0.0000 C.3     1  LIG1        0.0310
     29 O          -1.3540   -1.2790    0.0000 O.3     1  LIG1       -0.2191
@<TRIPOS>BOND
     1     1     2   ar
     2     1     5   ar
     3     1    14    1
     4     2     3   ar
     5     2    13   ar
     6     3     4   ar
     7     3    10   ar
     8     4     5   ar
     9     4     9   ar
    10     5     6   ar
    11     6     7   ar
    12     7     8   ar
    13     8     9   ar
    14    10    11   ar
    15    11    12   ar
    16    12    13   ar
    17    14    15    1
    18    15    16    1
    19    15    29    1
    20    16    17    1
    21    17    18    1
    22    17    22    1
    23    18    19    2
    24    18    20    2
    25    18    21    1
    26    22    23   ar
    27    22    27   ar
    28    23    24   ar
    29    24    25   ar
    30    25    26   ar
    31    25    28    1
    32    26    27   ar
