@<TRIPOS>MOLECULE
26166_ChemDiv_1863-1004
 35 39 0 0 0
SMALL
GASTEIGER
Energy = 0

@<TRIPOS>ATOM
      1 C          -2.0670   -1.8630    0.0000 C.ar    1  LIG1        0.1709
      2 C          -2.0670   -0.8670    0.0000 C.ar    1  LIG1        0.1554
      3 N          -1.1170   -0.5380    0.0000 N.ar    1  LIG1       -0.2906
      4 C          -0.5420   -1.3500    0.0000 C.ar    1  LIG1        0.2194
      5 N          -1.1500   -2.1580    0.0000 N.ar    1  LIG1       -0.1946
      6 N           0.4580   -1.3580    0.0000 N.pl3   1  LIG1       -0.2003
      7 C           0.9460   -2.2580    0.0000 C.3     1  LIG1        0.1416
      8 C           1.9330   -2.2830    0.0000 C.ar    1  LIG1       -0.0006
      9 C           2.4880   -1.4500    0.0000 C.ar    1  LIG1       -0.0026
     10 C           3.5080   -1.4710    0.0000 C.ar    1  LIG1       -0.0003
     11 C           3.9750   -2.3580    0.0000 C.ar    1  LIG1       -0.0000
     12 C           3.4210   -3.2170    0.0000 C.ar    1  LIG1       -0.0003
     13 C           2.4210   -3.1790    0.0000 C.ar    1  LIG1       -0.0026
     14 C          -0.9330    0.4130    0.0000 C.3     1  LIG1        0.1456
     15 C           0.0000    0.7290    0.0000 C.3     1  LIG1        0.2178
     16 C           0.7380    0.0540    0.0000 C.3     1  LIG1        0.2400
     17 O           1.6500    0.3960    0.0000 O.3     1  LIG1       -0.4726
     18 C           1.8580    1.3830    0.0000 C.ar    1  LIG1        0.1386
     19 C           2.7960    1.7380    0.0000 C.ar    1  LIG1        0.0340
     20 C           2.9500    2.7290    0.0000 C.ar    1  LIG1        0.0029
     21 C           2.1920    3.3710    0.0000 C.ar    1  LIG1        0.0002
     22 C           1.2460    3.0170    0.0000 C.ar    1  LIG1        0.0031
     23 C           1.0960    2.0290    0.0000 C.ar    1  LIG1        0.0369
     24 C           3.8830    3.0710    0.0000 C.ar    1  LIG1        0.0001
     25 C           4.6630    2.4380    0.0000 C.ar    1  LIG1        0.0000
     26 C           4.5170    1.4330    0.0000 C.ar    1  LIG1        0.0001
     27 C           3.5540    1.1080    0.0000 C.ar    1  LIG1        0.0030
     28 O           0.1630    1.7000    0.0000 O.3     1  LIG1       -0.2170
     29 C          -2.9380   -0.3750    0.0000 C.ar    1  LIG1        0.3019
     30 N          -3.7960   -0.8790    0.0000 N.ar    1  LIG1       -0.1518
     31 C          -3.7880   -1.8670    0.0000 C.ar    1  LIG1        0.3540
     32 N          -2.9330   -2.3580    0.0000 N.ar    1  LIG1       -0.2614
     33 C          -2.9580   -3.3670    0.0000 C.3     1  LIG1        0.1367
     34 O          -4.6670   -2.3830    0.0000 O.2     1  LIG1       -0.2443
     35 O          -2.9580    0.6460    0.0000 O.2     1  LIG1       -0.2634
@<TRIPOS>BOND
     1     1     2   ar
     2     1     5   ar
     3     1    32   ar
     4     2     3   ar
     5     2    29   ar
     6     3     4   ar
     7     3    14    1
     8     4     5   ar
     9     4     6    1
    10     6     7    1
    11     7     8    1
    12     8     9   ar
    13     8    13   ar
    14     9    10   ar
    15    10    11   ar
    16    11    12   ar
    17    12    13   ar
    18    14    15    1
    19    15    16    1
    20    15    28    1
    21    16    17    1
    22    17    18    1
    23    18    19   ar
    24    18    23   ar
    25    19    20   ar
    26    19    27   ar
    27    20    21   ar
    28    20    24   ar
    29    21    22   ar
    30    22    23   ar
    31    24    25   ar
    32    25    26   ar
    33    26    27   ar
    34    29    30   ar
    35    29    35    2
    36    30    31   ar
    37    31    32   ar
    38    31    34    2
    39    32    33    1
