@<TRIPOS>MOLECULE
26163_ChemDiv_0DOU-0109
 19 21 0 0 0
SMALL
GASTEIGER
Energy = 0

@<TRIPOS>ATOM
      1 N          -0.0080   -0.2330    0.0000 N.ar    1  LIG1       -0.2626
      2 C          -0.8710    0.2630    0.0000 C.ar    1  LIG1        0.2669
      3 C          -1.7330   -0.2330    0.0000 C.ar    1  LIG1        0.0742
      4 C          -1.7330   -1.2540    0.0000 C.ar    1  LIG1        0.0872
      5 N          -0.8710   -1.7500    0.0000 N.ar    1  LIG1       -0.2318
      6 C          -0.0080   -1.2540    0.0000 C.ar    1  LIG1        0.1268
      7 C           0.8710   -1.7500    0.0000 C.3     1  LIG1        0.0723
      8 C          -2.5960   -1.7500    0.0000 C.ar    1  LIG1        0.0193
      9 C          -3.4580   -1.2540    0.0000 C.ar    1  LIG1        0.0015
     10 C          -3.4580   -0.2330    0.0000 C.ar    1  LIG1        0.0003
     11 C          -2.5960    0.2630    0.0000 C.ar    1  LIG1        0.0063
     12 O          -0.8710    1.2580    0.0000 O.2     1  LIG1       -0.2665
     13 C           0.8710    0.2630    0.0000 C.ar    1  LIG1        0.0679
     14 C           1.7290   -0.2330    0.0000 C.ar    1  LIG1        0.0182
     15 C           2.5920    0.2630    0.0000 C.ar    1  LIG1        0.0082
     16 C           2.5920    1.2580    0.0000 C.ar    1  LIG1        0.0347
     17 C           1.7290    1.7540    0.0000 C.ar    1  LIG1        0.0082
     18 C           0.8710    1.2580    0.0000 C.ar    1  LIG1        0.0182
     19 BR          3.4540    1.7540    0.0000 Br      1  LIG1       -0.0490
@<TRIPOS>BOND
     1     1     2   ar
     2     1     6   ar
     3     1    13    1
     4     2     3   ar
     5     2    12    2
     6     3     4   ar
     7     3    11   ar
     8     4     5   ar
     9     4     8   ar
    10     5     6   ar
    11     6     7    1
    12     8     9   ar
    13     9    10   ar
    14    10    11   ar
    15    13    14   ar
    16    13    18   ar
    17    14    15   ar
    18    15    16   ar
    19    16    17   ar
    20    16    19    1
    21    17    18   ar
