@<TRIPOS>MOLECULE
26168_ChemDiv_3238-0596
 20 22 0 0 0
SMALL
GASTEIGER
Energy = 0

@<TRIPOS>ATOM
      1 C          -0.9830   -0.5080    0.0000 C.ar    1  LIG1        0.1708
      2 C          -0.9670    0.5040    0.0000 C.ar    1  LIG1        0.1536
      3 C          -1.8290    0.9920    0.0000 C.ar    1  LIG1        0.2832
      4 N          -2.7040    0.4880    0.0000 N.ar    1  LIG1       -0.2454
      5 C          -2.7040   -0.5080    0.0000 C.ar    1  LIG1        0.3350
      6 N          -1.8290   -1.0080    0.0000 N.ar    1  LIG1       -0.2628
      7 C          -1.8420   -2.0000    0.0000 C.3     1  LIG1        0.1366
      8 O          -3.5670   -1.0080    0.0000 O.2     1  LIG1       -0.2461
      9 C          -3.5670    0.9880    0.0000 C.3     1  LIG1        0.1383
     10 O          -1.8420    2.0040    0.0000 O.2     1  LIG1       -0.2652
     11 N          -0.0130    0.8040    0.0000 N.ar    1  LIG1       -0.2926
     12 C           0.5670   -0.0130    0.0000 C.ar    1  LIG1        0.2027
     13 N          -0.0210   -0.8250    0.0000 N.ar    1  LIG1       -0.1958
     14 N           1.5790   -0.0250    0.0000 N.pl3   1  LIG1       -0.2795
     15 C           2.0630   -0.8880    0.0000 C.3     1  LIG1        0.0936
     16 C           3.0540   -0.8920    0.0000 C.3     1  LIG1        0.0216
     17 C           3.5630   -0.0380    0.0000 C.3     1  LIG1        0.0035
     18 C           3.0710    0.8380    0.0000 C.3     1  LIG1        0.0216
     19 C           2.0710    0.8500    0.0000 C.3     1  LIG1        0.0936
     20 C           0.3040    1.7460    0.0000 C.3     1  LIG1        0.1334
@<TRIPOS>BOND
     1     1     2   ar
     2     1     6   ar
     3     1    13   ar
     4     2     3   ar
     5     2    11   ar
     6     3     4   ar
     7     3    10    2
     8     4     5   ar
     9     4     9    1
    10     5     6   ar
    11     5     8    2
    12     6     7    1
    13    11    12   ar
    14    11    20    1
    15    12    13   ar
    16    12    14    1
    17    14    15    1
    18    14    19    1
    19    15    16    1
    20    16    17    1
    21    17    18    1
    22    18    19    1
