@<TRIPOS>MOLECULE
26167_ChemDiv_0KPI-0029
 26 30 0 0 0
SMALL
GASTEIGER
Energy = 0

@<TRIPOS>ATOM
      1 C           0.5330   -1.6500    0.0000 C.3     1  LIG1        0.0695
      2 C           1.4420   -1.4040    0.0000 C.2     1  LIG1        0.2249
      3 N           1.6960   -0.4710    0.0000 N.am    1  LIG1       -0.2744
      4 C           1.0210    0.1960    0.0000 C.3     1  LIG1        0.1255
      5 C           1.2460    1.0830    0.0000 C.3     1  LIG1        0.1636
      6 O           2.1920    1.3630    0.0000 O.3     1  LIG1       -0.3501
      7 C           2.8540    0.7000    0.0000 C.3     1  LIG1        0.1636
      8 C           2.6130   -0.2250    0.0000 C.3     1  LIG1        0.1255
      9 O           2.1170   -2.0790    0.0000 O.2     1  LIG1       -0.2749
     10 C           0.3080   -0.7130    0.0000 C.3     1  LIG1        0.0172
     11 C          -0.6040   -0.4380    0.0000 C.3     1  LIG1        0.0695
     12 C          -0.4540    0.4960    0.0000 C.2     1  LIG1        0.2249
     13 N          -1.1960    1.1210    0.0000 N.am    1  LIG1       -0.2744
     14 C          -1.0540    2.0540    0.0000 C.3     1  LIG1        0.1255
     15 C          -1.7960    2.6710    0.0000 C.3     1  LIG1        0.1636
     16 O          -2.7080    2.3540    0.0000 O.3     1  LIG1       -0.3501
     17 C          -2.8580    1.3630    0.0000 C.3     1  LIG1        0.1636
     18 C          -2.1210    0.7630    0.0000 C.3     1  LIG1        0.1255
     19 O           0.4580    0.8210    0.0000 O.2     1  LIG1       -0.2749
     20 C          -1.0250   -1.3290    0.0000 C.3     1  LIG1        0.0086
     21 C          -1.1000   -2.2170    0.0000 C.3     1  LIG1        0.0009
     22 C           0.7790   -2.5710    0.0000 C.3     1  LIG1        0.0086
     23 C          -1.9130   -2.6670    0.0000 C.3     1  LIG1        0.0000
     24 C          -1.5710   -1.7790    0.0000 C.3     1  LIG1        0.0009
     25 C          -0.6630   -1.9460    0.0000 C.3     1  LIG1        0.0086
     26 C          -1.6250   -0.8130    0.0000 C.3     1  LIG1        0.0086
@<TRIPOS>BOND
     1     1     2    1
     2     1    10    1
     3     1    22    1
     4     1    25    1
     5     2     3   am
     6     2     9    2
     7     3     4    1
     8     3     8    1
     9     4     5    1
    10     5     6    1
    11     6     7    1
    12     7     8    1
    13    10    11    1
    14    11    12    1
    15    11    20    1
    16    11    26    1
    17    12    13   am
    18    12    19    2
    19    13    14    1
    20    13    18    1
    21    14    15    1
    22    15    16    1
    23    16    17    1
    24    17    18    1
    25    20    21    1
    26    21    22    1
    27    21    23    1
    28    23    24    1
    29    24    25    1
    30    24    26    1
