@<TRIPOS>MOLECULE
26160_ChemDiv_5267-1198
 22 24 0 0 0
SMALL
GASTEIGER
Energy = 0

@<TRIPOS>ATOM
      1 N          -1.8080    0.0250    0.0000 N.ar    1  LIG1       -0.3243
      2 C          -2.4040   -0.7880    0.0000 C.ar    1  LIG1        0.0600
      3 C          -3.3630   -0.5170    0.0000 C.ar    1  LIG1        0.0172
      4 C          -3.3750    0.5080    0.0000 C.ar    1  LIG1        0.0172
      5 C          -2.4040    0.8210    0.0000 C.ar    1  LIG1        0.0600
      6 C          -2.2330    1.8290    0.0000 C.ar    1  LIG1        0.0172
      7 C          -2.9540    2.4710    0.0000 C.ar    1  LIG1        0.0015
      8 C          -3.9290    2.1670    0.0000 C.ar    1  LIG1        0.0001
      9 C          -4.1080    1.1670    0.0000 C.ar    1  LIG1        0.0015
     10 C          -4.0750   -1.1580    0.0000 C.ar    1  LIG1        0.0015
     11 C          -3.8710   -2.1580    0.0000 C.ar    1  LIG1        0.0001
     12 C          -2.9540   -2.4670    0.0000 C.ar    1  LIG1        0.0015
     13 C          -2.2080   -1.7880    0.0000 C.ar    1  LIG1        0.0172
     14 C          -0.7880    0.0250    0.0000 C.3     1  LIG1        0.1452
     15 C          -0.2960    0.9130    0.0000 C.3     1  LIG1        0.2365
     16 O          -0.8170    1.7630    0.0000 O.3     1  LIG1       -0.2144
     17 C           0.6920    0.9130    0.0000 C.3     1  LIG1        0.2358
     18 N           1.1880    1.7960    0.0000 N.4     1  LIG1        0.4503
     19 C           2.1960    1.7710    0.0000 C.3     1  LIG1        0.2035
     20 C           2.6670    0.8960    0.0000 C.3     1  LIG1        0.1043
     21 C           3.6460    0.8710    0.0000 C.3     1  LIG1        0.1885
     22 O           4.1040    0.0250    0.0000 O.3     1  LIG1       -0.2202
@<TRIPOS>BOND
     1     1     2   ar
     2     1     5   ar
     3     1    14    1
     4     2     3   ar
     5     2    13   ar
     6     3     4   ar
     7     3    10   ar
     8     4     5   ar
     9     4     9   ar
    10     5     6   ar
    11     6     7   ar
    12     7     8   ar
    13     8     9   ar
    14    10    11   ar
    15    11    12   ar
    16    12    13   ar
    17    14    15    1
    18    15    16    1
    19    15    17    1
    20    17    18    1
    21    18    19    1
    22    19    20    1
    23    20    21    1
    24    21    22    1
