@<TRIPOS>MOLECULE
26165_ChemDiv_4260-3010
 20 23 0 0 0
SMALL
GASTEIGER
Energy = 0

@<TRIPOS>ATOM
      1 N          -0.1380   -0.5960    0.0000 N.ar    1  LIG1       -0.2567
      2 C          -0.9920   -0.0960    0.0000 C.ar    1  LIG1        0.2673
      3 C          -1.8540   -0.5790    0.0000 C.ar    1  LIG1        0.0742
      4 C          -1.8670   -1.5920    0.0000 C.ar    1  LIG1        0.0876
      5 N          -1.0080   -2.0960    0.0000 N.ar    1  LIG1       -0.2249
      6 C          -0.1380   -1.5960    0.0000 C.ar    1  LIG1        0.1851
      7 C          -2.7290   -2.0960    0.0000 C.ar    1  LIG1        0.0193
      8 C          -3.5920   -1.5920    0.0000 C.ar    1  LIG1        0.0015
      9 C          -3.5920   -0.5790    0.0000 C.ar    1  LIG1        0.0003
     10 C          -2.7290   -0.0790    0.0000 C.ar    1  LIG1        0.0063
     11 O          -0.9920    0.8920    0.0000 O.2     1  LIG1       -0.2665
     12 C           0.5670    0.1210    0.0000 C.ar    1  LIG1        0.0699
     13 C           1.5380   -0.1380    0.0000 C.ar    1  LIG1        0.0390
     14 C           2.2380    0.5920    0.0000 C.ar    1  LIG1        0.1103
     15 C           1.9750    1.5540    0.0000 C.ar    1  LIG1        0.1089
     16 N           2.8080    2.1000    0.0000 N.ar    1  LIG1       -0.1901
     17 S           3.5880    1.4790    0.0000 S.2     1  LIG1        0.1165
     18 N           3.2330    0.5460    0.0000 N.ar    1  LIG1       -0.1901
     19 C           1.0080    1.8000    0.0000 C.ar    1  LIG1        0.0229
     20 C           0.3000    1.0750    0.0000 C.ar    1  LIG1        0.0193
@<TRIPOS>BOND
     1     1     2   ar
     2     1     6   ar
     3     1    12    1
     4     2     3   ar
     5     2    11    2
     6     3     4   ar
     7     3    10   ar
     8     4     5   ar
     9     4     7   ar
    10     5     6   ar
    11     7     8   ar
    12     8     9   ar
    13     9    10   ar
    14    12    13   ar
    15    12    20   ar
    16    13    14   ar
    17    14    15   ar
    18    14    18   ar
    19    15    16   ar
    20    15    19   ar
    21    16    17   ar
    22    17    18   ar
    23    19    20   ar
