@<TRIPOS>MOLECULE
26164_ChemDiv_1029-0510
 26 28 0 0 0
SMALL
GASTEIGER
Energy = 0

@<TRIPOS>ATOM
      1 C          -1.5170   -3.1080    0.0000 C.ar    1  LIG1        0.1710
      2 C          -1.5170   -2.1170    0.0000 C.ar    1  LIG1        0.1555
      3 N          -0.5580   -1.8000    0.0000 N.ar    1  LIG1       -0.2893
      4 C           0.0210   -2.5960    0.0000 C.ar    1  LIG1        0.2394
      5 N          -0.5580   -3.4290    0.0000 N.ar    1  LIG1       -0.1933
      6 N           1.0080   -2.5380    0.0000 N.pl3   1  LIG1       -0.0877
      7 C          -0.2380   -0.8130    0.0000 C.3     1  LIG1        0.1457
      8 C           0.7460   -0.6210    0.0000 C.3     1  LIG1        0.2178
      9 C           1.0420    0.3040    0.0000 C.3     1  LIG1        0.2400
     10 O           2.0000    0.5380    0.0000 O.3     1  LIG1       -0.4726
     11 C           2.2830    1.4960    0.0000 C.ar    1  LIG1        0.1389
     12 C           3.2750    1.7170    0.0000 C.ar    1  LIG1        0.0400
     13 C           3.5630    2.6420    0.0000 C.ar    1  LIG1        0.0400
     14 C           2.8630    3.4130    0.0000 C.ar    1  LIG1        0.1389
     15 C           1.9040    3.1540    0.0000 C.ar    1  LIG1        0.0400
     16 C           1.6210    2.1960    0.0000 C.ar    1  LIG1        0.0400
     17 O           3.1420    4.3670    0.0000 O.3     1  LIG1       -0.4714
     18 C           4.1040    4.6170    0.0000 C.3     1  LIG1        0.2525
     19 O           1.4250   -1.3540    0.0000 O.3     1  LIG1       -0.2170
     20 C          -2.3750   -1.6130    0.0000 C.ar    1  LIG1        0.3019
     21 N          -3.2460   -2.1170    0.0000 N.ar    1  LIG1       -0.1518
     22 C          -3.2460   -3.1080    0.0000 C.ar    1  LIG1        0.3540
     23 N          -2.3750   -3.6170    0.0000 N.ar    1  LIG1       -0.2614
     24 C          -2.3750   -4.6170    0.0000 C.3     1  LIG1        0.1367
     25 O          -4.1080   -3.6170    0.0000 O.2     1  LIG1       -0.2443
     26 O          -2.3750   -0.5790    0.0000 O.2     1  LIG1       -0.2634
@<TRIPOS>BOND
     1     1     2   ar
     2     1     5   ar
     3     1    23   ar
     4     2     3   ar
     5     2    20   ar
     6     3     4   ar
     7     3     7    1
     8     4     5   ar
     9     4     6    1
    10     7     8    1
    11     8     9    1
    12     8    19    1
    13     9    10    1
    14    10    11    1
    15    11    12   ar
    16    11    16   ar
    17    12    13   ar
    18    13    14   ar
    19    14    15   ar
    20    14    17    1
    21    15    16   ar
    22    17    18    1
    23    20    21   ar
    24    20    26    2
    25    21    22   ar
    26    22    23   ar
    27    22    25    2
    28    23    24    1
