@<TRIPOS>MOLECULE
26161_ChemDiv_0994-0150
 30 34 0 0 0
SMALL
GASTEIGER
Energy = 0

@<TRIPOS>ATOM
      1 C           2.2710   -0.0250    0.0000 C.ar    1  LIG1        0.1179
      2 C           1.7630    0.8330    0.0000 C.ar    1  LIG1        0.1179
      3 N           0.7710    0.8330    0.0000 N.ar    1  LIG1       -0.2407
      4 C           0.2630   -0.0250    0.0000 C.ar    1  LIG1        0.0991
      5 C           0.7710   -0.8830    0.0000 C.ar    1  LIG1        0.1020
      6 N           1.7630   -0.8830    0.0000 N.ar    1  LIG1       -0.2406
      7 C           0.2630   -1.7380    0.0000 C.ar    1  LIG1        0.0581
      8 C          -0.7290   -1.7380    0.0000 C.ar    1  LIG1        0.1469
      9 O          -1.2380   -2.5960    0.0000 O.3     1  LIG1       -0.4534
     10 C          -2.2290   -2.5960    0.0000 C.ar    1  LIG1        0.1454
     11 C          -2.7380   -1.7380    0.0000 C.ar    1  LIG1        0.0389
     12 C          -3.7750   -1.7380    0.0000 C.ar    1  LIG1        0.0212
     13 C          -4.2380   -2.5960    0.0000 C.ar    1  LIG1        0.0893
     14 N          -5.2750   -2.5960    0.0000 N.pl3   1  LIG1       -0.1281
     15 C          -3.7750   -3.4540    0.0000 C.ar    1  LIG1        0.0212
     16 C          -2.7380   -3.4540    0.0000 C.ar    1  LIG1        0.0389
     17 C          -1.2380   -0.8830    0.0000 C.ar    1  LIG1        0.0391
     18 C          -0.7290   -0.0250    0.0000 C.ar    1  LIG1        0.0238
     19 C           2.2710    1.6880    0.0000 C.ar    1  LIG1        0.1004
     20 N           1.7630    2.5460    0.0000 N.ar    1  LIG1       -0.2423
     21 C           2.2710    3.4580    0.0000 C.ar    1  LIG1        0.0989
     22 C           3.2630    3.4580    0.0000 C.ar    1  LIG1        0.0207
     23 C           3.7710    2.5460    0.0000 C.ar    1  LIG1        0.0032
     24 C           3.2630    1.6880    0.0000 C.ar    1  LIG1        0.0207
     25 C           3.2630   -0.0250    0.0000 C.ar    1  LIG1        0.1004
     26 N           3.7710   -0.8830    0.0000 N.ar    1  LIG1       -0.2423
     27 C           4.7630   -0.8830    0.0000 C.ar    1  LIG1        0.0989
     28 C           5.2710   -0.0250    0.0000 C.ar    1  LIG1        0.0207
     29 C           4.7630    0.8330    0.0000 C.ar    1  LIG1        0.0032
     30 C           3.7710    0.8330    0.0000 C.ar    1  LIG1        0.0207
@<TRIPOS>BOND
     1     1     2   ar
     2     1     6   ar
     3     1    25    1
     4     2     3   ar
     5     2    19    1
     6     3     4   ar
     7     4     5   ar
     8     4    18   ar
     9     5     6   ar
    10     5     7   ar
    11     7     8   ar
    12     8     9    1
    13     8    17   ar
    14     9    10    1
    15    10    11   ar
    16    10    16   ar
    17    11    12   ar
    18    12    13   ar
    19    13    14    1
    20    13    15   ar
    21    15    16   ar
    22    17    18   ar
    23    19    20   ar
    24    19    24   ar
    25    20    21   ar
    26    21    22   ar
    27    22    23   ar
    28    23    24   ar
    29    25    26   ar
    30    25    30   ar
    31    26    27   ar
    32    27    28   ar
    33    28    29   ar
    34    29    30   ar
