@<TRIPOS>MOLECULE
26169_ChemDiv_0KPI-0124
 20 22 0 0 0
SMALL
GASTEIGER
Energy = 0

@<TRIPOS>ATOM
      1 C          -1.4960   -0.5380    0.0000 C.3     1  LIG1        0.0539
      2 C          -0.4960   -0.3960    0.0000 C.2     1  LIG1        0.1766
      3 O          -0.1080    0.5380    0.0000 O.2     1  LIG1       -0.2935
      4 C           0.1790   -1.1630    0.0000 C.3     1  LIG1        0.1723
      5 O           1.1630   -0.9830    0.0000 O.3     1  LIG1       -0.3425
      6 C           1.4920   -0.0460    0.0000 C.3     1  LIG1        0.2049
      7 C           2.4750    0.1330    0.0000 C.3     1  LIG1        0.1718
      8 N           2.8040    1.0750    0.0000 N.4     1  LIG1        0.3887
      9 C           3.7880    1.2580    0.0000 C.3     1  LIG1        0.2027
     10 C           2.1500    1.8380    0.0000 C.3     1  LIG1        0.2027
     11 C          -0.1710   -1.8330    0.0000 C.3     1  LIG1        0.0401
     12 C          -1.5710    0.4250    0.0000 C.3     1  LIG1        0.0070
     13 C          -2.4630    0.8420    0.0000 C.3     1  LIG1        0.0004
     14 C          -3.6130    0.2080    0.0000 C.3     1  LIG1        0.0000
     15 C          -3.5000   -0.7580    0.0000 C.3     1  LIG1        0.0004
     16 C          -2.5170   -0.8880    0.0000 C.3     1  LIG1        0.0070
     17 C          -3.7920   -1.5710    0.0000 C.3     1  LIG1        0.0000
     18 C          -2.9500   -1.1880    0.0000 C.3     1  LIG1        0.0004
     19 C          -2.0000   -1.3830    0.0000 C.3     1  LIG1        0.0070
     20 C          -2.9500    0.0080    0.0000 C.3     1  LIG1        0.0000
@<TRIPOS>BOND
     1     1     2    1
     2     1    12    1
     3     1    16    1
     4     1    19    1
     5     2     3    2
     6     2     4    1
     7     4     5    1
     8     4    11    1
     9     5     6    1
    10     6     7    1
    11     7     8    1
    12     8     9    1
    13     8    10    1
    14    12    13    1
    15    13    14    1
    16    13    20    1
    17    14    15    1
    18    15    16    1
    19    15    17    1
    20    17    18    1
    21    18    19    1
    22    18    20    1
