@<TRIPOS>MOLECULE
26172_ChemDiv_7706-0432
 31 33 0 0 0
SMALL
GASTEIGER
Energy = 0

@<TRIPOS>ATOM
      1 C          -1.8630   -1.7960    0.0000 C.ar    1  LIG1        0.1709
      2 C          -1.8630   -0.7790    0.0000 C.ar    1  LIG1        0.1554
      3 N          -0.8750   -0.4460    0.0000 N.ar    1  LIG1       -0.2906
      4 C          -0.2880   -1.2710    0.0000 C.ar    1  LIG1        0.2191
      5 N          -0.8920   -2.1080    0.0000 N.ar    1  LIG1       -0.1946
      6 N           0.6380   -1.4330    0.0000 N.pl3   1  LIG1       -0.2052
      7 C           0.9580   -2.3170    0.0000 C.3     1  LIG1        0.1153
      8 C           1.8750   -2.4960    0.0000 C.3     1  LIG1        0.0234
      9 C           2.2080   -3.4290    0.0000 C.3     1  LIG1        0.0018
     10 C           3.1830   -3.6080    0.0000 C.3     1  LIG1        0.0001
     11 C           3.5130   -4.5460    0.0000 C.3     1  LIG1        0.0000
     12 C           4.4960   -4.7330    0.0000 C.3     1  LIG1        0.0000
     13 C          -0.5540    0.5130    0.0000 C.3     1  LIG1        0.1456
     14 C           0.4330    0.7290    0.0000 C.3     1  LIG1        0.2178
     15 C           0.7250    1.6750    0.0000 C.3     1  LIG1        0.2400
     16 O           1.7000    1.9000    0.0000 O.3     1  LIG1       -0.4727
     17 C           2.0000    2.8420    0.0000 C.ar    1  LIG1        0.1384
     18 C           2.9710    3.0500    0.0000 C.ar    1  LIG1        0.0326
     19 C           3.2630    4.0000    0.0000 C.ar    1  LIG1       -0.0188
     20 C           2.5960    4.7330    0.0000 C.ar    1  LIG1       -0.0041
     21 C           1.6210    4.5000    0.0000 C.ar    1  LIG1        0.0028
     22 C           1.3250    3.5630    0.0000 C.ar    1  LIG1        0.0369
     23 C           4.2330    4.2080    0.0000 C.3     1  LIG1        0.0311
     24 O           1.1000   -0.0040    0.0000 O.3     1  LIG1       -0.2170
     25 C          -2.7380   -0.2580    0.0000 C.ar    1  LIG1        0.3019
     26 N          -3.6250   -0.7790    0.0000 N.ar    1  LIG1       -0.1518
     27 C          -3.6250   -1.7960    0.0000 C.ar    1  LIG1        0.3540
     28 N          -2.7380   -2.2960    0.0000 N.ar    1  LIG1       -0.2614
     29 C          -2.7380   -3.3210    0.0000 C.3     1  LIG1        0.1367
     30 O          -4.5000   -2.2960    0.0000 O.2     1  LIG1       -0.2443
     31 O          -2.7380    0.7630    0.0000 O.2     1  LIG1       -0.2634
@<TRIPOS>BOND
     1     1     2   ar
     2     1     5   ar
     3     1    28   ar
     4     2     3   ar
     5     2    25   ar
     6     3     4   ar
     7     3    13    1
     8     4     5   ar
     9     4     6    1
    10     6     7    1
    11     7     8    1
    12     8     9    1
    13     9    10    1
    14    10    11    1
    15    11    12    1
    16    13    14    1
    17    14    15    1
    18    14    24    1
    19    15    16    1
    20    16    17    1
    21    17    18   ar
    22    17    22   ar
    23    18    19   ar
    24    19    20   ar
    25    19    23    1
    26    20    21   ar
    27    21    22   ar
    28    25    26   ar
    29    25    31    2
    30    26    27   ar
    31    27    28   ar
    32    27    30    2
    33    28    29    1
