@<TRIPOS>MOLECULE
26176_ChemDiv_8012-3326
 23 25 0 0 0
SMALL
GASTEIGER
Energy = 0

@<TRIPOS>ATOM
      1 C          -1.2670   -0.1580    0.0000 C.ar    1  LIG1        0.1708
      2 C          -1.2670    0.7830    0.0000 C.ar    1  LIG1        0.1536
      3 C          -2.1000    1.2580    0.0000 C.ar    1  LIG1        0.2832
      4 N          -2.9290    0.7830    0.0000 N.ar    1  LIG1       -0.2454
      5 C          -2.9290   -0.1580    0.0000 C.ar    1  LIG1        0.3350
      6 N          -2.1000   -0.6380    0.0000 N.ar    1  LIG1       -0.2628
      7 C          -2.1000   -1.5830    0.0000 C.3     1  LIG1        0.1366
      8 O          -3.7540   -0.6210    0.0000 O.2     1  LIG1       -0.2461
      9 C          -3.7540    1.2500    0.0000 C.3     1  LIG1        0.1383
     10 O          -2.1000    2.2040    0.0000 O.2     1  LIG1       -0.2652
     11 N           0.4130    0.7830    0.0000 N.ar    1  LIG1       -0.2943
     12 C           0.4130   -0.1580    0.0000 C.ar    1  LIG1        0.2028
     13 N          -0.4210   -0.6380    0.0000 N.ar    1  LIG1       -0.1958
     14 N           1.2920   -0.6880    0.0000 N.pl3   1  LIG1       -0.2743
     15 C           2.1670   -0.1710    0.0000 C.3     1  LIG1        0.1256
     16 C           3.0420   -0.6880    0.0000 C.3     1  LIG1        0.1637
     17 O           3.0420   -1.6920    0.0000 O.3     1  LIG1       -0.3501
     18 C           2.1670   -2.2000    0.0000 C.3     1  LIG1        0.1637
     19 C           1.2920   -1.6920    0.0000 C.3     1  LIG1        0.1256
     20 C           1.2380    1.2500    0.0000 C.3     1  LIG1        0.1157
     21 C           2.0460    0.7790    0.0000 C.3     1  LIG1        0.1051
     22 C           2.8830    1.2580    0.0000 C.3     1  LIG1        0.3173
     23 N           3.7500    0.7330    0.0000 N.4     1  LIG1        0.5973
@<TRIPOS>BOND
     1     1     2   ar
     2     1     6   ar
     3     1    13   ar
     4     2     3   ar
     5     2    11   ar
     6     3     4   ar
     7     3    10    2
     8     4     5   ar
     9     4     9    1
    10     5     6   ar
    11     5     8    2
    12     6     7    1
    13    11    12   ar
    14    11    20    1
    15    12    13   ar
    16    12    14    1
    17    14    15    1
    18    14    19    1
    19    15    16    1
    20    16    17    1
    21    17    18    1
    22    18    19    1
    23    20    21    1
    24    21    22    1
    25    22    23    1
