@<TRIPOS>MOLECULE
26179_ChemDiv_0908-0043
 29 31 0 0 0
SMALL
GASTEIGER
Energy = 0

@<TRIPOS>ATOM
      1 N          -3.1880    1.0210    0.0000 N.am    1  LIG1       -0.2790
      2 C          -4.0420    1.5960    0.0000 C.2     1  LIG1        0.2260
      3 C          -4.8380    0.9630    0.0000 C.3     1  LIG1        0.0913
      4 C          -4.4630    0.0040    0.0000 C.3     1  LIG1        0.0512
      5 C          -3.4460    0.0670    0.0000 C.3     1  LIG1        0.0982
      6 C          -4.9380   -0.8500    0.0000 C.ar    1  LIG1       -0.0204
      7 C          -4.4630   -1.7210    0.0000 C.ar    1  LIG1       -0.0042
      8 C          -4.9380   -2.5750    0.0000 C.ar    1  LIG1       -0.0003
      9 C          -5.9540   -2.5750    0.0000 C.ar    1  LIG1       -0.0000
     10 C          -6.4290   -1.7210    0.0000 C.ar    1  LIG1       -0.0003
     11 C          -5.9540   -0.8500    0.0000 C.ar    1  LIG1       -0.0042
     12 O          -4.1080    2.5790    0.0000 O.2     1  LIG1       -0.2749
     13 C          -2.2330    1.3790    0.0000 C.3     1  LIG1        0.0996
     14 C          -1.4630    0.7420    0.0000 C.3     1  LIG1        0.0841
     15 C          -0.5380    1.0880    0.0000 C.3     1  LIG1        0.1407
     16 N           0.1920    0.4250    0.0000 N.4     1  LIG1        0.3823
     17 C           1.1130    0.7420    0.0000 C.3     1  LIG1        0.1436
     18 C           1.8830    0.0670    0.0000 C.3     1  LIG1        0.0891
     19 C           2.8380    0.4250    0.0000 C.ar    1  LIG1       -0.0130
     20 C           3.5630   -0.2540    0.0000 C.ar    1  LIG1        0.0360
     21 C           4.4920    0.0670    0.0000 C.ar    1  LIG1        0.1721
     22 C           4.6750    1.0580    0.0000 C.ar    1  LIG1        0.1724
     23 C           3.9540    1.6960    0.0000 C.ar    1  LIG1        0.0397
     24 C           3.0250    1.3790    0.0000 C.ar    1  LIG1       -0.0007
     25 O           5.6330    1.4040    0.0000 O.3     1  LIG1       -0.4684
     26 C           6.4290    0.7670    0.0000 C.3     1  LIG1        0.2526
     27 O           5.2540   -0.6040    0.0000 O.3     1  LIG1       -0.4684
     28 C           6.2080   -0.2880    0.0000 C.3     1  LIG1        0.2526
     29 C           0.0000   -0.5710    0.0000 C.3     1  LIG1        0.2022
@<TRIPOS>BOND
     1     1     2   am
     2     1     5    1
     3     1    13    1
     4     2     3    1
     5     2    12    2
     6     3     4    1
     7     4     5    1
     8     4     6    1
     9     6     7   ar
    10     6    11   ar
    11     7     8   ar
    12     8     9   ar
    13     9    10   ar
    14    10    11   ar
    15    13    14    1
    16    14    15    1
    17    15    16    1
    18    16    17    1
    19    16    29    1
    20    17    18    1
    21    18    19    1
    22    19    20   ar
    23    19    24   ar
    24    20    21   ar
    25    21    22   ar
    26    21    27    1
    27    22    23   ar
    28    22    25    1
    29    23    24   ar
    30    25    26    1
    31    27    28    1
