@<TRIPOS>MOLECULE
26170_ChemDiv_5224-0087
 27 29 0 0 0
SMALL
GASTEIGER
Energy = 0

@<TRIPOS>ATOM
      1 C          -1.2540   -2.4920    0.0000 C.ar    1  LIG1        0.1709
      2 C          -1.2540   -1.4880    0.0000 C.ar    1  LIG1        0.1554
      3 N          -0.3000   -1.1880    0.0000 N.ar    1  LIG1       -0.2906
      4 C           0.2790   -2.0000    0.0000 C.ar    1  LIG1        0.2193
      5 N          -0.3000   -2.8040    0.0000 N.ar    1  LIG1       -0.1946
      6 N           1.2830   -2.0040    0.0000 N.pl3   1  LIG1       -0.1982
      7 C           1.7830   -1.1420    0.0000 C.3     1  LIG1        0.1956
      8 C           2.7920   -1.1420    0.0000 C.3     1  LIG1        0.3388
      9 N           3.2960   -0.2750    0.0000 N.4     1  LIG1        0.5990
     10 C           0.0040   -0.2330    0.0000 C.3     1  LIG1        0.1456
     11 C           0.9790   -0.0210    0.0000 C.3     1  LIG1        0.2178
     12 C           1.2920    0.9380    0.0000 C.3     1  LIG1        0.2400
     13 O           2.2670    1.1460    0.0000 O.3     1  LIG1       -0.4726
     14 C           2.5710    2.1000    0.0000 C.ar    1  LIG1        0.1387
     15 C           1.9040    2.8380    0.0000 C.ar    1  LIG1        0.0369
     16 C           2.2080    3.7830    0.0000 C.ar    1  LIG1        0.0031
     17 C           3.1790    3.9960    0.0000 C.ar    1  LIG1        0.0002
     18 C           3.8580    3.2670    0.0000 C.ar    1  LIG1        0.0031
     19 C           3.5420    2.3170    0.0000 C.ar    1  LIG1        0.0369
     20 O           1.6540   -0.7580    0.0000 O.3     1  LIG1       -0.2170
     21 C          -2.1170   -0.9880    0.0000 C.ar    1  LIG1        0.3019
     22 N          -2.9880   -1.4880    0.0000 N.ar    1  LIG1       -0.1518
     23 C          -2.9880   -2.4920    0.0000 C.ar    1  LIG1        0.3540
     24 N          -2.1170   -2.9920    0.0000 N.ar    1  LIG1       -0.2614
     25 C          -2.1170   -3.9920    0.0000 C.3     1  LIG1        0.1367
     26 O          -3.8630   -3.0080    0.0000 O.2     1  LIG1       -0.2443
     27 O          -2.1170    0.0080    0.0000 O.2     1  LIG1       -0.2634
@<TRIPOS>BOND
     1     1     2   ar
     2     1     5   ar
     3     1    24   ar
     4     2     3   ar
     5     2    21   ar
     6     3     4   ar
     7     3    10    1
     8     4     5   ar
     9     4     6    1
    10     6     7    1
    11     7     8    1
    12     8     9    1
    13    10    11    1
    14    11    12    1
    15    11    20    1
    16    12    13    1
    17    13    14    1
    18    14    15   ar
    19    14    19   ar
    20    15    16   ar
    21    16    17   ar
    22    17    18   ar
    23    18    19   ar
    24    21    22   ar
    25    21    27    2
    26    22    23   ar
    27    23    24   ar
    28    23    26    2
    29    24    25    1
