@<TRIPOS>MOLECULE
26178_ChemDiv_5325-0548
 29 33 0 0 0
SMALL
GASTEIGER
Energy = 0

@<TRIPOS>ATOM
      1 S           2.6000   -0.1750    0.0000 S.O2    1  LIG1        0.0791
      2 N           1.6080   -0.3080    0.0000 N.am    1  LIG1       -0.1537
      3 C           1.2130    0.5750    0.0000 C.2     1  LIG1        0.2689
      4 C           1.8880    1.2380    0.0000 C.ar    1  LIG1        0.0739
      5 C           2.7540    0.7710    0.0000 C.ar    1  LIG1        0.1299
      6 C           3.5960    1.2750    0.0000 C.ar    1  LIG1        0.0203
      7 C           3.5630    2.2790    0.0000 C.ar    1  LIG1        0.0014
      8 C           2.6920    2.7420    0.0000 C.ar    1  LIG1        0.0002
      9 C           1.8460    2.2210    0.0000 C.ar    1  LIG1        0.0059
     10 O           0.1920    0.7630    0.0000 O.2     1  LIG1       -0.2683
     11 C           1.1170   -1.1710    0.0000 C.3     1  LIG1        0.1538
     12 C           0.1040   -1.1710    0.0000 C.3     1  LIG1        0.1960
     13 C          -0.4000   -0.2880    0.0000 C.3     1  LIG1        0.1406
     14 N          -1.3880   -0.2880    0.0000 N.ar    1  LIG1       -0.3245
     15 C          -1.8920    0.5330    0.0000 C.ar    1  LIG1        0.0600
     16 C          -2.8420    0.1960    0.0000 C.ar    1  LIG1        0.0172
     17 C          -2.8710   -0.7790    0.0000 C.ar    1  LIG1        0.0172
     18 C          -1.8920   -1.1080    0.0000 C.ar    1  LIG1        0.0600
     19 C          -1.6880   -2.0880    0.0000 C.ar    1  LIG1        0.0172
     20 C          -2.4580   -2.7380    0.0000 C.ar    1  LIG1        0.0015
     21 C          -3.4040   -2.4460    0.0000 C.ar    1  LIG1        0.0001
     22 C          -3.5630   -1.4420    0.0000 C.ar    1  LIG1        0.0015
     23 C          -3.6170    0.8330    0.0000 C.ar    1  LIG1        0.0015
     24 C          -3.4040    1.8580    0.0000 C.ar    1  LIG1        0.0001
     25 C          -2.4170    2.1830    0.0000 C.ar    1  LIG1        0.0015
     26 C          -1.7080    1.5250    0.0000 C.ar    1  LIG1        0.0172
     27 O          -0.4000   -2.0130    0.0000 O.3     1  LIG1       -0.2191
     28 O           2.4540   -1.3330    0.0000 O.2     1  LIG1       -0.1496
     29 O           3.6130   -0.3080    0.0000 O.2     1  LIG1       -0.1496
@<TRIPOS>BOND
     1     1     2    1
     2     1     5    1
     3     1    28    2
     4     1    29    2
     5     2     3   am
     6     2    11    1
     7     3     4    1
     8     3    10    2
     9     4     5   ar
    10     4     9   ar
    11     5     6   ar
    12     6     7   ar
    13     7     8   ar
    14     8     9   ar
    15    11    12    1
    16    12    13    1
    17    12    27    1
    18    13    14    1
    19    14    15   ar
    20    14    18   ar
    21    15    16   ar
    22    15    26   ar
    23    16    17   ar
    24    16    23   ar
    25    17    18   ar
    26    17    22   ar
    27    18    19   ar
    28    19    20   ar
    29    20    21   ar
    30    21    22   ar
    31    23    24   ar
    32    24    25   ar
    33    25    26   ar
