@<TRIPOS>MOLECULE
26171_ChemDiv_1183-1463
 18 20 0 0 0
SMALL
GASTEIGER
Energy = 0

@<TRIPOS>ATOM
      1 C          -0.3880   -0.1000    0.0000 C.3     1  LIG1        0.0038
      2 C           0.4830    0.4080    0.0000 C.3     1  LIG1        0.0479
      3 C           1.3420   -0.1000    0.0000 C.3     1  LIG1        0.1364
      4 O           2.0960    0.5830    0.0000 O.3     1  LIG1       -0.4557
      5 C           1.6670    1.6540    0.0000 C.2     1  LIG1        0.3169
      6 C           0.4830    1.3790    0.0000 C.3     1  LIG1        0.1130
      7 O           2.1210    2.4080    0.0000 O.2     1  LIG1       -0.2501
      8 C           1.3420   -1.1040    0.0000 C.3     1  LIG1        0.0401
      9 C           0.4830   -1.6130    0.0000 C.3     1  LIG1        0.0036
     10 C          -0.3880   -1.1040    0.0000 C.3     1  LIG1        0.0002
     11 C          -1.2500   -1.6130    0.0000 C.3     1  LIG1        0.0000
     12 C          -2.1250   -1.1040    0.0000 C.3     1  LIG1        0.0000
     13 C          -2.1250   -0.1000    0.0000 C.3     1  LIG1        0.0000
     14 C          -1.2500    0.4080    0.0000 C.3     1  LIG1        0.0001
     15 C          -0.7460   -2.4040    0.0000 C.3     1  LIG1        0.0000
     16 C          -1.9210   -2.4040    0.0000 C.3     1  LIG1        0.0000
     17 C           1.3580    0.7830    0.0000 C.3     1  LIG1        0.0437
     18 C          -0.3880    0.7580    0.0000 C.3     1  LIG1        0.0001
@<TRIPOS>BOND
     1     1     2    1
     2     1    10    1
     3     1    14    1
     4     1    18    1
     5     2     3    1
     6     2     6    1
     7     3     4    1
     8     3     8    1
     9     3    17    1
    10     4     5    1
    11     5     6    1
    12     5     7    2
    13     8     9    1
    14     9    10    1
    15    10    11    1
    16    11    12    1
    17    11    15    1
    18    11    16    1
    19    12    13    1
    20    13    14    1
