@<TRIPOS>MOLECULE
26184_ChemDiv_5615-1519
 40 44 0 0 0
SMALL
GASTEIGER
Energy = 0

@<TRIPOS>ATOM
      1 S          -0.8790   -0.8380    0.0000 S.O2    1  LIG1        0.0766
      2 N          -0.3580    0.0290    0.0000 N.pl3   1  LIG1       -0.1879
      3 C           0.6380    0.0130    0.0000 C.ar    1  LIG1        0.0690
      4 C           1.1420    0.8630    0.0000 C.ar    1  LIG1        0.0207
      5 C           2.1380    0.8630    0.0000 C.ar    1  LIG1        0.0563
      6 C           2.6460    1.7250    0.0000 C.2     1  LIG1        0.2649
      7 O           2.1580    2.6000    0.0000 O.2     1  LIG1       -0.2684
      8 N           3.6540    1.7130    0.0000 N.am    1  LIG1       -0.1989
      9 C           4.1380    0.8420    0.0000 C.3     1  LIG1        0.1509
     10 C           5.1290    0.8420    0.0000 C.3     1  LIG1        0.2054
     11 O           5.6290    1.7130    0.0000 O.3     1  LIG1       -0.2184
     12 C           2.6380   -0.0080    0.0000 C.ar    1  LIG1        0.0046
     13 C           2.1130   -0.8710    0.0000 C.ar    1  LIG1        0.0015
     14 C           1.1210   -0.8580    0.0000 C.ar    1  LIG1        0.0161
     15 C          -0.8420    0.9000    0.0000 C.3     1  LIG1        0.1506
     16 C          -1.8500    0.9210    0.0000 C.3     1  LIG1        0.1959
     17 C          -2.3330    1.7960    0.0000 C.3     1  LIG1        0.1406
     18 N          -3.3460    1.8130    0.0000 N.ar    1  LIG1       -0.3245
     19 C          -3.9130    2.6210    0.0000 C.ar    1  LIG1        0.0600
     20 C          -4.8750    2.3330    0.0000 C.ar    1  LIG1        0.0172
     21 C          -4.8830    1.3420    0.0000 C.ar    1  LIG1        0.0172
     22 C          -3.9380    1.0080    0.0000 C.ar    1  LIG1        0.0600
     23 C          -3.7460    0.0290    0.0000 C.ar    1  LIG1        0.0172
     24 C          -4.4960   -0.6290    0.0000 C.ar    1  LIG1        0.0015
     25 C          -5.4420   -0.3130    0.0000 C.ar    1  LIG1        0.0001
     26 C          -5.6330    0.6790    0.0000 C.ar    1  LIG1        0.0015
     27 C          -5.6040    3.0080    0.0000 C.ar    1  LIG1        0.0015
     28 C          -5.3920    3.9790    0.0000 C.ar    1  LIG1        0.0001
     29 C          -4.4210    4.2790    0.0000 C.ar    1  LIG1        0.0015
     30 C          -3.6830    3.5920    0.0000 C.ar    1  LIG1        0.0172
     31 O          -2.3580    0.0670    0.0000 O.3     1  LIG1       -0.2191
     32 C          -1.3790   -1.6920    0.0000 C.ar    1  LIG1        0.1254
     33 C          -2.3920   -1.6880    0.0000 C.ar    1  LIG1        0.0199
     34 C          -2.8960   -2.5330    0.0000 C.ar    1  LIG1       -0.0029
     35 C          -2.3960   -3.4040    0.0000 C.ar    1  LIG1       -0.0218
     36 C          -1.4040   -3.4210    0.0000 C.ar    1  LIG1       -0.0029
     37 C          -0.8960   -2.5540    0.0000 C.ar    1  LIG1        0.0199
     38 C          -2.9210   -4.2790    0.0000 C.3     1  LIG1        0.0310
     39 O          -1.8750   -0.8130    0.0000 O.2     1  LIG1       -0.1497
     40 O          -0.3880   -1.7080    0.0000 O.2     1  LIG1       -0.1497
@<TRIPOS>BOND
     1     1     2    1
     2     1    32    1
     3     1    39    2
     4     1    40    2
     5     2     3    1
     6     2    15    1
     7     3     4   ar
     8     3    14   ar
     9     4     5   ar
    10     5     6    1
    11     5    12   ar
    12     6     7    2
    13     6     8   am
    14     8     9    1
    15     9    10    1
    16    10    11    1
    17    12    13   ar
    18    13    14   ar
    19    15    16    1
    20    16    17    1
    21    16    31    1
    22    17    18    1
    23    18    19   ar
    24    18    22   ar
    25    19    20   ar
    26    19    30   ar
    27    20    21   ar
    28    20    27   ar
    29    21    22   ar
    30    21    26   ar
    31    22    23   ar
    32    23    24   ar
    33    24    25   ar
    34    25    26   ar
    35    27    28   ar
    36    28    29   ar
    37    29    30   ar
    38    32    33   ar
    39    32    37   ar
    40    33    34   ar
    41    34    35   ar
    42    35    36   ar
    43    35    38    1
    44    36    37   ar
