@<TRIPOS>MOLECULE
26181_ChemDiv_2808-0725
 27 29 0 0 0
SMALL
GASTEIGER
Energy = 0

@<TRIPOS>ATOM
      1 N          -0.0080    0.0210    0.0000 N.am    1  LIG1       -0.2296
      2 C          -0.3040    0.9710    0.0000 C.2     1  LIG1        0.2317
      3 C          -1.2880    0.9710    0.0000 C.3     1  LIG1        0.0905
      4 C          -1.6040    0.0330    0.0000 C.3     1  LIG1        0.0951
      5 C          -0.7960   -0.5670    0.0000 C.2     1  LIG1        0.2318
      6 O          -0.7960   -1.5790    0.0000 O.2     1  LIG1       -0.2745
      7 C          -1.9000    1.7790    0.0000 C.3     1  LIG1        0.0359
      8 C          -2.8920    1.6830    0.0000 C.ar    1  LIG1       -0.0217
      9 C          -3.2880    0.7540    0.0000 C.ar    1  LIG1       -0.0046
     10 C          -4.2880    0.6540    0.0000 C.ar    1  LIG1       -0.0046
     11 C          -4.8830    1.4420    0.0000 C.ar    1  LIG1       -0.0219
     12 C          -4.4710    2.3750    0.0000 C.ar    1  LIG1       -0.0046
     13 C          -3.4630    2.4830    0.0000 C.ar    1  LIG1       -0.0046
     14 C          -5.8790    1.3170    0.0000 C.3     1  LIG1        0.0310
     15 O           0.2630    1.7670    0.0000 O.2     1  LIG1       -0.2745
     16 C           0.9750   -0.1750    0.0000 C.3     1  LIG1        0.1055
     17 C           1.2880   -1.1290    0.0000 C.3     1  LIG1        0.0484
     18 C           2.2710   -1.3290    0.0000 C.ar    1  LIG1       -0.0172
     19 C           2.9210   -0.5830    0.0000 C.ar    1  LIG1        0.0358
     20 C           3.8920   -0.7750    0.0000 C.ar    1  LIG1        0.1721
     21 C           4.2170   -1.7250    0.0000 C.ar    1  LIG1        0.1724
     22 C           3.5540   -2.4790    0.0000 C.ar    1  LIG1        0.0397
     23 C           2.5830   -2.2750    0.0000 C.ar    1  LIG1       -0.0009
     24 O           5.2130   -1.9500    0.0000 O.3     1  LIG1       -0.4684
     25 C           5.8750   -1.1920    0.0000 C.3     1  LIG1        0.2526
     26 O           4.5380   -0.0080    0.0000 O.3     1  LIG1       -0.4684
     27 C           5.5250   -0.1750    0.0000 C.3     1  LIG1        0.2526
@<TRIPOS>BOND
     1     1     2   am
     2     1     5   am
     3     1    16    1
     4     2     3    1
     5     2    15    2
     6     3     4    1
     7     3     7    1
     8     4     5    1
     9     5     6    2
    10     7     8    1
    11     8     9   ar
    12     8    13   ar
    13     9    10   ar
    14    10    11   ar
    15    11    12   ar
    16    11    14    1
    17    12    13   ar
    18    16    17    1
    19    17    18    1
    20    18    19   ar
    21    18    23   ar
    22    19    20   ar
    23    20    21   ar
    24    20    26    1
    25    21    22   ar
    26    21    24    1
    27    22    23   ar
    28    24    25    1
    29    26    27    1
