@<TRIPOS>MOLECULE
26189_ChemDiv_C301-2282
 27 29 0 0 0
SMALL
GASTEIGER
Energy = 0

@<TRIPOS>ATOM
      1 C           0.9250    2.5250    0.0000 C.3     1  LIG1        0.1771
      2 N           1.9250    2.5250    0.0000 N.am    1  LIG1       -0.1974
      3 C           2.2380    3.4830    0.0000 C.2     1  LIG1        0.2422
      4 C           1.4250    4.0580    0.0000 C.3     1  LIG1        0.0934
      5 C           0.6210    3.4830    0.0000 C.3     1  LIG1        0.0604
      6 C          -0.3330    3.7830    0.0000 C.ar    1  LIG1       -0.0199
      7 C          -0.5380    4.7580    0.0000 C.ar    1  LIG1       -0.0042
      8 C          -1.4830    5.0710    0.0000 C.ar    1  LIG1       -0.0003
      9 C          -2.2290    4.4040    0.0000 C.ar    1  LIG1       -0.0000
     10 C          -2.0170    3.4210    0.0000 C.ar    1  LIG1       -0.0003
     11 C          -1.0670    3.1170    0.0000 C.ar    1  LIG1       -0.0042
     12 O           3.1960    3.7830    0.0000 O.2     1  LIG1       -0.2733
     13 C           0.3330    1.7130    0.0000 C.2     1  LIG1        0.2616
     14 O          -0.6580    1.8210    0.0000 O.2     1  LIG1       -0.2715
     15 N           0.7420    0.8000    0.0000 N.am    1  LIG1       -0.2036
     16 C           0.1540   -0.0040    0.0000 C.3     1  LIG1        0.1199
     17 C           0.5630   -0.9250    0.0000 C.3     1  LIG1        0.0499
     18 C          -0.0290   -1.7330    0.0000 C.ar    1  LIG1       -0.0172
     19 C          -1.0290   -1.6210    0.0000 C.ar    1  LIG1        0.0358
     20 C          -1.6130   -2.4330    0.0000 C.ar    1  LIG1        0.1721
     21 C          -1.2130   -3.3420    0.0000 C.ar    1  LIG1        0.1724
     22 C          -0.2130   -3.4460    0.0000 C.ar    1  LIG1        0.0397
     23 C           0.3790   -2.6420    0.0000 C.ar    1  LIG1       -0.0009
     24 O          -1.7920   -4.1540    0.0000 O.3     1  LIG1       -0.4684
     25 C          -1.3960   -5.0710    0.0000 C.3     1  LIG1        0.2526
     26 O          -2.6080   -2.3250    0.0000 O.3     1  LIG1       -0.4684
     27 C          -3.2000   -3.1290    0.0000 C.3     1  LIG1        0.2526
@<TRIPOS>BOND
     1     1     2    1
     2     1     5    1
     3     1    13    1
     4     2     3   am
     5     3     4    1
     6     3    12    2
     7     4     5    1
     8     5     6    1
     9     6     7   ar
    10     6    11   ar
    11     7     8   ar
    12     8     9   ar
    13     9    10   ar
    14    10    11   ar
    15    13    14    2
    16    13    15   am
    17    15    16    1
    18    16    17    1
    19    17    18    1
    20    18    19   ar
    21    18    23   ar
    22    19    20   ar
    23    20    21   ar
    24    20    26    1
    25    21    22   ar
    26    21    24    1
    27    22    23   ar
    28    24    25    1
    29    26    27    1
