@<TRIPOS>MOLECULE
26188_ChemDiv_6295-0003
 26 28 0 0 0
SMALL
GASTEIGER
Energy = 0

@<TRIPOS>ATOM
      1 N          -2.4040    0.0000    0.0000 N.ar    1  LIG1       -0.3245
      2 C          -2.8920   -0.8420    0.0000 C.ar    1  LIG1        0.0600
      3 C          -3.8670   -0.8420    0.0000 C.ar    1  LIG1        0.0172
      4 C          -3.8670    0.8460    0.0000 C.ar    1  LIG1        0.0172
      5 C          -2.8920    0.8460    0.0000 C.ar    1  LIG1        0.0600
      6 C          -2.4040    1.6880    0.0000 C.ar    1  LIG1        0.0172
      7 C          -2.8920    2.5290    0.0000 C.ar    1  LIG1        0.0015
      8 C          -3.8710    2.5290    0.0000 C.ar    1  LIG1        0.0001
      9 C          -4.3540    1.6880    0.0000 C.ar    1  LIG1        0.0015
     10 C          -4.3540   -1.6790    0.0000 C.ar    1  LIG1        0.0015
     11 C          -3.8710   -2.5250    0.0000 C.ar    1  LIG1        0.0001
     12 C          -2.8920   -2.5210    0.0000 C.ar    1  LIG1        0.0015
     13 C          -2.4080   -1.6830    0.0000 C.ar    1  LIG1        0.0172
     14 C          -1.5580    0.4920    0.0000 C.3     1  LIG1        0.1403
     15 C          -0.7170    0.0080    0.0000 C.3     1  LIG1        0.1920
     16 C           0.1250    0.4960    0.0000 C.3     1  LIG1        0.1303
     17 N           0.9710    0.0170    0.0000 N.3     1  LIG1       -0.1541
     18 S           0.9710   -0.9580    0.0000 S.O2    1  LIG1        0.0458
     19 O           0.1250   -1.4460    0.0000 O.2     1  LIG1       -0.1572
     20 O           1.8210   -1.4460    0.0000 O.2     1  LIG1       -0.1572
     21 C           0.9710   -1.9330    0.0000 C.3     1  LIG1        0.1960
     22 C           1.8130    0.5040    0.0000 C.3     1  LIG1        0.1275
     23 C           2.6540    0.0170    0.0000 C.3     1  LIG1        0.1613
     24 O           3.4960    0.5040    0.0000 O.3     1  LIG1       -0.3496
     25 C           4.3500    0.0170    0.0000 C.3     1  LIG1        0.1742
     26 O          -0.7170   -0.9710    0.0000 O.3     1  LIG1       -0.2195
@<TRIPOS>BOND
     1     1     2   ar
     2     1     5   ar
     3     1    14    1
     4     2     3   ar
     5     2    13   ar
     6     3     4   ar
     7     3    10   ar
     8     4     5   ar
     9     4     9   ar
    10     5     6   ar
    11     6     7   ar
    12     7     8   ar
    13     8     9   ar
    14    10    11   ar
    15    11    12   ar
    16    12    13   ar
    17    14    15    1
    18    15    16    1
    19    15    26    1
    20    16    17    1
    21    17    18    1
    22    17    22    1
    23    18    19    2
    24    18    20    2
    25    18    21    1
    26    22    23    1
    27    23    24    1
    28    24    25    1
