@<TRIPOS>MOLECULE
26180_ChemDiv_5614-0028
 31 34 0 0 0
SMALL
GASTEIGER
Energy = 0

@<TRIPOS>ATOM
      1 S           1.3920    0.2000    0.0000 S.O2    1  LIG1        0.0634
      2 N           1.3920    1.1790    0.0000 N.3     1  LIG1       -0.1502
      3 C           0.5540    1.6710    0.0000 C.3     1  LIG1        0.1307
      4 C          -0.2960    1.1630    0.0000 C.3     1  LIG1        0.1920
      5 C          -1.1540    1.6540    0.0000 C.3     1  LIG1        0.1403
      6 N          -1.9880    1.1630    0.0000 N.ar    1  LIG1       -0.3245
      7 C          -2.4790    0.3210    0.0000 C.ar    1  LIG1        0.0600
      8 C          -3.4630    0.3290    0.0000 C.ar    1  LIG1        0.0172
      9 C          -3.4630    2.0130    0.0000 C.ar    1  LIG1        0.0172
     10 C          -2.4790    2.0130    0.0000 C.ar    1  LIG1        0.0600
     11 C          -1.9880    2.8630    0.0000 C.ar    1  LIG1        0.0172
     12 C          -2.4790    3.7080    0.0000 C.ar    1  LIG1        0.0015
     13 C          -3.4630    3.7080    0.0000 C.ar    1  LIG1        0.0001
     14 C          -3.9540    2.8630    0.0000 C.ar    1  LIG1        0.0015
     15 C          -3.9540   -0.5290    0.0000 C.ar    1  LIG1        0.0015
     16 C          -3.4630   -1.3670    0.0000 C.ar    1  LIG1        0.0001
     17 C          -2.4790   -1.3670    0.0000 C.ar    1  LIG1        0.0015
     18 C          -1.9880   -0.5290    0.0000 C.ar    1  LIG1        0.0172
     19 O          -0.2960    0.2000    0.0000 O.3     1  LIG1       -0.2195
     20 C           2.2420    1.6710    0.0000 C.3     1  LIG1        0.1314
     21 C           3.1000    1.1790    0.0000 C.3     1  LIG1        0.2012
     22 O           3.9500    1.6750    0.0000 O.3     1  LIG1       -0.2188
     23 C           1.3920   -0.7710    0.0000 C.ar    1  LIG1        0.1223
     24 C           0.5380   -1.2500    0.0000 C.ar    1  LIG1        0.0222
     25 C           0.5380   -2.2330    0.0000 C.ar    1  LIG1        0.0310
     26 C           1.3750   -2.7330    0.0000 C.ar    1  LIG1        0.1402
     27 C           2.2250   -2.2420    0.0000 C.ar    1  LIG1        0.0310
     28 C           2.2250   -1.2630    0.0000 C.ar    1  LIG1        0.0222
     29 F           1.3750   -3.7040    0.0000 F       1  LIG1       -0.2042
     30 O           2.2580   -0.2920    0.0000 O.2     1  LIG1       -0.1528
     31 O           0.5540   -0.2920    0.0000 O.2     1  LIG1       -0.1528
@<TRIPOS>BOND
     1     1     2    1
     2     1    23    1
     3     1    30    2
     4     1    31    2
     5     2     3    1
     6     2    20    1
     7     3     4    1
     8     4     5    1
     9     4    19    1
    10     5     6    1
    11     6     7   ar
    12     6    10   ar
    13     7     8   ar
    14     7    18   ar
    15     8     9   ar
    16     8    15   ar
    17     9    10   ar
    18     9    14   ar
    19    10    11   ar
    20    11    12   ar
    21    12    13   ar
    22    13    14   ar
    23    15    16   ar
    24    16    17   ar
    25    17    18   ar
    26    20    21    1
    27    21    22    1
    28    23    24   ar
    29    23    28   ar
    30    24    25   ar
    31    25    26   ar
    32    26    27   ar
    33    26    29    1
    34    27    28   ar
