@<TRIPOS>MOLECULE
26183_ChemDiv_2808-0732
 28 30 0 0 0
SMALL
GASTEIGER
Energy = 0

@<TRIPOS>ATOM
      1 N           0.0880    0.2040    0.0000 N.am    1  LIG1       -0.2296
      2 C          -0.2080    1.1540    0.0000 C.2     1  LIG1        0.2317
      3 C          -1.1920    1.1540    0.0000 C.3     1  LIG1        0.0900
      4 C          -1.5040    0.2210    0.0000 C.3     1  LIG1        0.0860
      5 C          -0.7000   -0.3790    0.0000 C.2     1  LIG1        0.2313
      6 O          -0.7000   -1.3960    0.0000 O.2     1  LIG1       -0.2745
      7 C          -2.4210   -0.1880    0.0000 C.3     1  LIG1        0.0101
      8 C          -1.8000    1.9670    0.0000 C.3     1  LIG1        0.0359
      9 C          -2.7960    1.8670    0.0000 C.ar    1  LIG1       -0.0217
     10 C          -3.3630    2.6710    0.0000 C.ar    1  LIG1       -0.0046
     11 C          -4.3750    2.5630    0.0000 C.ar    1  LIG1       -0.0046
     12 C          -4.7880    1.6290    0.0000 C.ar    1  LIG1       -0.0219
     13 C          -4.1920    0.8420    0.0000 C.ar    1  LIG1       -0.0046
     14 C          -3.1920    0.9380    0.0000 C.ar    1  LIG1       -0.0046
     15 C          -5.7830    1.5000    0.0000 C.3     1  LIG1        0.0310
     16 O           0.3580    1.9500    0.0000 O.2     1  LIG1       -0.2745
     17 C           1.0290   -0.1000    0.0000 C.3     1  LIG1        0.1055
     18 C           1.2290   -1.0750    0.0000 C.3     1  LIG1        0.0484
     19 C           2.1750   -1.3790    0.0000 C.ar    1  LIG1       -0.0172
     20 C           2.9210   -0.7040    0.0000 C.ar    1  LIG1        0.0358
     21 C           3.8750   -1.0040    0.0000 C.ar    1  LIG1        0.1721
     22 C           4.1000   -1.9920    0.0000 C.ar    1  LIG1        0.1724
     23 C           3.3540   -2.6670    0.0000 C.ar    1  LIG1        0.0397
     24 C           2.3790   -2.3710    0.0000 C.ar    1  LIG1       -0.0009
     25 O           5.0460   -2.2960    0.0000 O.3     1  LIG1       -0.4684
     26 C           5.7790   -1.6250    0.0000 C.3     1  LIG1        0.2526
     27 O           4.6080   -0.3250    0.0000 O.3     1  LIG1       -0.4684
     28 C           4.3830    0.6460    0.0000 C.3     1  LIG1        0.2526
@<TRIPOS>BOND
     1     1     2   am
     2     1     5   am
     3     1    17    1
     4     2     3    1
     5     2    16    2
     6     3     4    1
     7     3     8    1
     8     4     5    1
     9     4     7    1
    10     5     6    2
    11     8     9    1
    12     9    10   ar
    13     9    14   ar
    14    10    11   ar
    15    11    12   ar
    16    12    13   ar
    17    12    15    1
    18    13    14   ar
    19    17    18    1
    20    18    19    1
    21    19    20   ar
    22    19    24   ar
    23    20    21   ar
    24    21    22   ar
    25    21    27    1
    26    22    23   ar
    27    22    25    1
    28    23    24   ar
    29    25    26    1
    30    27    28    1
