@<TRIPOS>MOLECULE
26187_ChemDiv_C301-1425
 30 32 0 0 0
SMALL
GASTEIGER
Energy = 0

@<TRIPOS>ATOM
      1 N          -1.6500   -2.2330    0.0000 N.am    1  LIG1       -0.2709
      2 C          -0.8380   -2.8130    0.0000 C.2     1  LIG1        0.2264
      3 C          -1.1420   -3.7750    0.0000 C.3     1  LIG1        0.0913
      4 C          -2.1500   -3.7750    0.0000 C.3     1  LIG1        0.0512
      5 C          -2.4580   -2.8130    0.0000 C.3     1  LIG1        0.0987
      6 C          -2.7420   -4.5750    0.0000 C.ar    1  LIG1       -0.0204
      7 C          -2.3210   -5.4920    0.0000 C.ar    1  LIG1       -0.0042
      8 C          -2.9130   -6.3000    0.0000 C.ar    1  LIG1       -0.0003
      9 C          -3.9080   -6.1960    0.0000 C.ar    1  LIG1       -0.0000
     10 C          -4.3210   -5.2790    0.0000 C.ar    1  LIG1       -0.0003
     11 C          -3.7380   -4.4670    0.0000 C.ar    1  LIG1       -0.0042
     12 O           0.0330   -2.3080    0.0000 O.2     1  LIG1       -0.2748
     13 C          -1.6540   -1.2250    0.0000 C.3     1  LIG1        0.1808
     14 C          -0.7920   -0.7210    0.0000 C.2     1  LIG1        0.2617
     15 O           0.0790   -1.2080    0.0000 O.2     1  LIG1       -0.2715
     16 N          -0.8080    0.2790    0.0000 N.am    1  LIG1       -0.2036
     17 C           0.0500    0.7880    0.0000 C.3     1  LIG1        0.1199
     18 C           0.0460    1.7830    0.0000 C.3     1  LIG1        0.0499
     19 C           0.9000    2.3000    0.0000 C.ar    1  LIG1       -0.0172
     20 C           0.8880    3.2880    0.0000 C.ar    1  LIG1        0.0358
     21 C           1.7460    3.7960    0.0000 C.ar    1  LIG1        0.1719
     22 C           2.6170    3.3130    0.0000 C.ar    1  LIG1        0.1722
     23 C           2.6210    2.3130    0.0000 C.ar    1  LIG1        0.0397
     24 C           1.7670    1.8000    0.0000 C.ar    1  LIG1       -0.0009
     25 O           3.4630    3.8130    0.0000 O.3     1  LIG1       -0.4724
     26 C           3.4580    4.8040    0.0000 C.3     1  LIG1        0.2057
     27 C           4.3170    5.3170    0.0000 C.3     1  LIG1        0.0512
     28 O           1.7290    4.7880    0.0000 O.3     1  LIG1       -0.4724
     29 C           1.7130    5.7880    0.0000 C.3     1  LIG1        0.2057
     30 C           2.5710    6.3000    0.0000 C.3     1  LIG1        0.0512
@<TRIPOS>BOND
     1     1     2   am
     2     1     5    1
     3     1    13    1
     4     2     3    1
     5     2    12    2
     6     3     4    1
     7     4     5    1
     8     4     6    1
     9     6     7   ar
    10     6    11   ar
    11     7     8   ar
    12     8     9   ar
    13     9    10   ar
    14    10    11   ar
    15    13    14    1
    16    14    15    2
    17    14    16   am
    18    16    17    1
    19    17    18    1
    20    18    19    1
    21    19    20   ar
    22    19    24   ar
    23    20    21   ar
    24    21    22   ar
    25    21    28    1
    26    22    23   ar
    27    22    25    1
    28    23    24   ar
    29    25    26    1
    30    26    27    1
    31    28    29    1
    32    29    30    1
