@<TRIPOS>MOLECULE
26182_ChemDiv_5615-1516
 37 41 0 0 0
SMALL
GASTEIGER
Energy = 0

@<TRIPOS>ATOM
      1 S           0.1080   -0.8210    0.0000 S.O2    1  LIG1        0.0766
      2 N           0.6290    0.0380    0.0000 N.pl3   1  LIG1       -0.1879
      3 C           1.6250    0.0130    0.0000 C.ar    1  LIG1        0.0690
      4 C           2.1290    0.8750    0.0000 C.ar    1  LIG1        0.0208
      5 C           3.1250    0.8630    0.0000 C.ar    1  LIG1        0.0579
      6 C           3.6290    1.7250    0.0000 C.2     1  LIG1        0.2842
      7 O           3.1460    2.6000    0.0000 O.2     1  LIG1       -0.2667
      8 N           4.6420    1.7080    0.0000 N.am    1  LIG1       -0.0837
      9 C           3.6250   -0.0080    0.0000 C.ar    1  LIG1        0.0047
     10 C           3.1000   -0.8710    0.0000 C.ar    1  LIG1        0.0015
     11 C           2.1080   -0.8580    0.0000 C.ar    1  LIG1        0.0161
     12 C           0.1460    0.9170    0.0000 C.3     1  LIG1        0.1506
     13 C          -0.8630    0.9210    0.0000 C.3     1  LIG1        0.1959
     14 C          -1.3460    1.7960    0.0000 C.3     1  LIG1        0.1406
     15 N          -2.3580    1.8130    0.0000 N.ar    1  LIG1       -0.3245
     16 C          -2.9210    2.6330    0.0000 C.ar    1  LIG1        0.0600
     17 C          -3.8880    2.3420    0.0000 C.ar    1  LIG1        0.0172
     18 C          -3.8920    1.3420    0.0000 C.ar    1  LIG1        0.0172
     19 C          -2.9460    1.0210    0.0000 C.ar    1  LIG1        0.0600
     20 C          -2.7540    0.0380    0.0000 C.ar    1  LIG1        0.0172
     21 C          -3.5080   -0.6290    0.0000 C.ar    1  LIG1        0.0015
     22 C          -4.4540   -0.2960    0.0000 C.ar    1  LIG1        0.0001
     23 C          -4.6460    0.6790    0.0000 C.ar    1  LIG1        0.0015
     24 C          -4.6170    3.0080    0.0000 C.ar    1  LIG1        0.0015
     25 C          -4.3920    3.9790    0.0000 C.ar    1  LIG1        0.0001
     26 C          -3.4330    4.2670    0.0000 C.ar    1  LIG1        0.0015
     27 C          -2.6960    3.5880    0.0000 C.ar    1  LIG1        0.0172
     28 O          -1.3710    0.0670    0.0000 O.3     1  LIG1       -0.2191
     29 C          -0.3920   -1.6830    0.0000 C.ar    1  LIG1        0.1254
     30 C          -1.4000   -1.6710    0.0000 C.ar    1  LIG1        0.0199
     31 C          -1.9080   -2.5330    0.0000 C.ar    1  LIG1       -0.0029
     32 C          -1.4080   -3.4040    0.0000 C.ar    1  LIG1       -0.0218
     33 C          -0.4170   -3.4170    0.0000 C.ar    1  LIG1       -0.0029
     34 C           0.0960   -2.5540    0.0000 C.ar    1  LIG1        0.0199
     35 C          -1.9330   -4.2670    0.0000 C.3     1  LIG1        0.0310
     36 O          -0.8880   -0.8130    0.0000 O.2     1  LIG1       -0.1497
     37 O           0.6000   -1.6920    0.0000 O.2     1  LIG1       -0.1497
@<TRIPOS>BOND
     1     1     2    1
     2     1    29    1
     3     1    36    2
     4     1    37    2
     5     2     3    1
     6     2    12    1
     7     3     4   ar
     8     3    11   ar
     9     4     5   ar
    10     5     6    1
    11     5     9   ar
    12     6     7    2
    13     6     8   am
    14     9    10   ar
    15    10    11   ar
    16    12    13    1
    17    13    14    1
    18    13    28    1
    19    14    15    1
    20    15    16   ar
    21    15    19   ar
    22    16    17   ar
    23    16    27   ar
    24    17    18   ar
    25    17    24   ar
    26    18    19   ar
    27    18    23   ar
    28    19    20   ar
    29    20    21   ar
    30    21    22   ar
    31    22    23   ar
    32    24    25   ar
    33    25    26   ar
    34    26    27   ar
    35    29    30   ar
    36    29    34   ar
    37    30    31   ar
    38    31    32   ar
    39    32    33   ar
    40    32    35    1
    41    33    34   ar
