@<TRIPOS>MOLECULE
26186_ChemDiv_6096-0045
 37 41 0 0 0
SMALL
GASTEIGER
Energy = 0

@<TRIPOS>ATOM
      1 S           0.7380   -0.0500    0.0000 S.O2    1  LIG1        0.0638
      2 N           0.7380    0.9380    0.0000 N.3     1  LIG1       -0.1436
      3 C           1.5880    1.4290    0.0000 C.3     1  LIG1        0.1806
      4 C           2.5750    1.4290    0.0000 C.2     1  LIG1        0.2437
      5 N           3.0670    2.2880    0.0000 N.am    1  LIG1       -0.2784
      6 C           4.0330    2.1750    0.0000 C.3     1  LIG1        0.0934
      7 C           4.6330    2.9540    0.0000 C.3     1  LIG1        0.0216
      8 C           4.2420    3.8540    0.0000 C.3     1  LIG1        0.0035
      9 C           3.2580    3.9790    0.0000 C.3     1  LIG1        0.0216
     10 C           2.6710    3.1830    0.0000 C.3     1  LIG1        0.0934
     11 O           3.0670    0.5790    0.0000 O.2     1  LIG1       -0.2733
     12 C          -0.1130    1.4250    0.0000 C.3     1  LIG1        0.1312
     13 C          -0.9670    0.9330    0.0000 C.3     1  LIG1        0.1920
     14 C          -1.8170    1.4170    0.0000 C.3     1  LIG1        0.1403
     15 N          -2.6630    0.9210    0.0000 N.ar    1  LIG1       -0.3245
     16 C          -3.1580    1.7710    0.0000 C.ar    1  LIG1        0.0600
     17 C          -4.1420    1.7710    0.0000 C.ar    1  LIG1        0.0172
     18 C          -4.1460    0.0710    0.0000 C.ar    1  LIG1        0.0172
     19 C          -3.1580    0.0710    0.0000 C.ar    1  LIG1        0.0600
     20 C          -2.6790   -0.7750    0.0000 C.ar    1  LIG1        0.0172
     21 C          -3.1580   -1.6170    0.0000 C.ar    1  LIG1        0.0015
     22 C          -4.1460   -1.6330    0.0000 C.ar    1  LIG1        0.0001
     23 C          -4.6380   -0.7750    0.0000 C.ar    1  LIG1        0.0015
     24 C          -4.6380    2.6210    0.0000 C.ar    1  LIG1        0.0015
     25 C          -4.1420    3.4710    0.0000 C.ar    1  LIG1        0.0001
     26 C          -3.1580    3.4710    0.0000 C.ar    1  LIG1        0.0015
     27 C          -2.6630    2.6210    0.0000 C.ar    1  LIG1        0.0172
     28 O          -0.9670   -0.0540    0.0000 O.3     1  LIG1       -0.2195
     29 C           0.7380   -1.0330    0.0000 C.ar    1  LIG1        0.1222
     30 C           1.5750   -1.5170    0.0000 C.ar    1  LIG1        0.0196
     31 C           1.5750   -2.4960    0.0000 C.ar    1  LIG1       -0.0029
     32 C           0.7170   -2.9880    0.0000 C.ar    1  LIG1       -0.0218
     33 C          -0.1290   -2.4880    0.0000 C.ar    1  LIG1       -0.0029
     34 C          -0.1170   -1.5130    0.0000 C.ar    1  LIG1        0.0196
     35 C           0.7080   -3.9750    0.0000 C.3     1  LIG1        0.0310
     36 O           1.5960   -0.5420    0.0000 O.2     1  LIG1       -0.1528
     37 O          -0.1130   -0.5460    0.0000 O.2     1  LIG1       -0.1528
@<TRIPOS>BOND
     1     1     2    1
     2     1    29    1
     3     1    36    2
     4     1    37    2
     5     2     3    1
     6     2    12    1
     7     3     4    1
     8     4     5   am
     9     4    11    2
    10     5     6    1
    11     5    10    1
    12     6     7    1
    13     7     8    1
    14     8     9    1
    15     9    10    1
    16    12    13    1
    17    13    14    1
    18    13    28    1
    19    14    15    1
    20    15    16   ar
    21    15    19   ar
    22    16    17   ar
    23    16    27   ar
    24    17    18   ar
    25    17    24   ar
    26    18    19   ar
    27    18    23   ar
    28    19    20   ar
    29    20    21   ar
    30    21    22   ar
    31    22    23   ar
    32    24    25   ar
    33    25    26   ar
    34    26    27   ar
    35    29    30   ar
    36    29    34   ar
    37    30    31   ar
    38    31    32   ar
    39    32    33   ar
    40    32    35    1
    41    33    34   ar
