@<TRIPOS>MOLECULE
26185_ChemDiv_8014-1568
 28 30 0 0 0
SMALL
GASTEIGER
Energy = 0

@<TRIPOS>ATOM
      1 N          -0.9750   -0.8670    0.0000 N.am    1  LIG1       -0.2296
      2 C          -1.6500   -0.1130    0.0000 C.2     1  LIG1        0.2317
      3 C          -2.5540   -0.5290    0.0000 C.3     1  LIG1        0.0905
      4 C          -2.4500   -1.5250    0.0000 C.3     1  LIG1        0.0951
      5 C          -1.4830   -1.7290    0.0000 C.2     1  LIG1        0.2318
      6 O          -0.9750   -2.5960    0.0000 O.2     1  LIG1       -0.2745
      7 C          -3.4330   -0.0290    0.0000 C.3     1  LIG1        0.0359
      8 C          -4.2960   -0.5290    0.0000 C.ar    1  LIG1       -0.0217
      9 C          -4.2960   -1.5250    0.0000 C.ar    1  LIG1       -0.0043
     10 C          -5.1630   -2.0290    0.0000 C.ar    1  LIG1       -0.0003
     11 C          -6.0290   -1.5250    0.0000 C.ar    1  LIG1       -0.0000
     12 C          -6.0290   -0.5290    0.0000 C.ar    1  LIG1       -0.0003
     13 C          -5.1630   -0.0290    0.0000 C.ar    1  LIG1       -0.0043
     14 O          -1.6500    0.8750    0.0000 O.2     1  LIG1       -0.2745
     15 C           0.0210   -0.8670    0.0000 C.3     1  LIG1        0.1055
     16 C           0.5210    0.0000    0.0000 C.3     1  LIG1        0.0484
     17 C           1.5170    0.0000    0.0000 C.ar    1  LIG1       -0.0172
     18 C           2.0210    0.8670    0.0000 C.ar    1  LIG1        0.0358
     19 C           3.0130    0.8670    0.0000 C.ar    1  LIG1        0.1719
     20 C           3.5210    0.0000    0.0000 C.ar    1  LIG1        0.1722
     21 C           3.0130   -0.8670    0.0000 C.ar    1  LIG1        0.0397
     22 C           2.0210   -0.8670    0.0000 C.ar    1  LIG1       -0.0009
     23 O           4.5130    0.0000    0.0000 O.3     1  LIG1       -0.4724
     24 C           5.0170    0.8670    0.0000 C.3     1  LIG1        0.2057
     25 C           6.0290    0.8670    0.0000 C.3     1  LIG1        0.0512
     26 O           3.5210    1.7330    0.0000 O.3     1  LIG1       -0.4724
     27 C           4.5130    1.7330    0.0000 C.3     1  LIG1        0.2057
     28 C           5.0170    2.6000    0.0000 C.3     1  LIG1        0.0512
@<TRIPOS>BOND
     1     1     2   am
     2     1     5   am
     3     1    15    1
     4     2     3    1
     5     2    14    2
     6     3     4    1
     7     3     7    1
     8     4     5    1
     9     5     6    2
    10     7     8    1
    11     8     9   ar
    12     8    13   ar
    13     9    10   ar
    14    10    11   ar
    15    11    12   ar
    16    12    13   ar
    17    15    16    1
    18    16    17    1
    19    17    18   ar
    20    17    22   ar
    21    18    19   ar
    22    19    20   ar
    23    19    26    1
    24    20    21   ar
    25    20    23    1
    26    21    22   ar
    27    23    24    1
    28    24    25    1
    29    26    27    1
    30    27    28    1
