@<TRIPOS>MOLECULE
26192_ChemDiv_6295-0021
 30 33 0 0 0
SMALL
GASTEIGER
Energy = 0

@<TRIPOS>ATOM
      1 N          -2.4040    0.1960    0.0000 N.ar    1  LIG1       -0.3245
      2 C          -2.9000    1.0420    0.0000 C.ar    1  LIG1        0.0600
      3 C          -3.8790    1.0420    0.0000 C.ar    1  LIG1        0.0172
      4 C          -3.8790   -0.6500    0.0000 C.ar    1  LIG1        0.0172
      5 C          -2.9000   -0.6500    0.0000 C.ar    1  LIG1        0.0600
      6 C          -2.4210   -1.5000    0.0000 C.ar    1  LIG1        0.0172
      7 C          -2.9000   -2.3380    0.0000 C.ar    1  LIG1        0.0015
      8 C          -3.8920   -2.3460    0.0000 C.ar    1  LIG1        0.0001
      9 C          -4.3710   -1.4920    0.0000 C.ar    1  LIG1        0.0015
     10 C          -4.3710    1.8880    0.0000 C.ar    1  LIG1        0.0015
     11 C          -3.8920    2.7330    0.0000 C.ar    1  LIG1        0.0001
     12 C          -2.8960    2.7330    0.0000 C.ar    1  LIG1        0.0015
     13 C          -2.4130    1.8880    0.0000 C.ar    1  LIG1        0.0172
     14 C          -1.5580    0.6830    0.0000 C.3     1  LIG1        0.1405
     15 C          -0.7130    0.2000    0.0000 C.3     1  LIG1        0.1941
     16 C           0.1330    0.6920    0.0000 C.3     1  LIG1        0.1286
     17 N           0.9790    0.2080    0.0000 N.am    1  LIG1       -0.2708
     18 C           1.8290    0.7000    0.0000 C.2     1  LIG1        0.2492
     19 O           1.8210    1.6790    0.0000 O.2     1  LIG1       -0.2699
     20 C           2.6750    0.2170    0.0000 C.ar    1  LIG1        0.0536
     21 C           2.6750   -0.7670    0.0000 C.ar    1  LIG1        0.0045
     22 C           3.5210   -1.2460    0.0000 C.ar    1  LIG1        0.0001
     23 C           4.3670   -0.7540    0.0000 C.ar    1  LIG1        0.0000
     24 C           4.3670    0.2250    0.0000 C.ar    1  LIG1        0.0001
     25 C           3.5170    0.7170    0.0000 C.ar    1  LIG1        0.0045
     26 C           0.9790   -0.7710    0.0000 C.3     1  LIG1        0.1258
     27 C           0.1330   -1.2580    0.0000 C.3     1  LIG1        0.1637
     28 O           0.1290   -2.2420    0.0000 O.3     1  LIG1       -0.3493
     29 C           0.9670   -2.7290    0.0000 C.3     1  LIG1        0.1742
     30 O          -0.7130   -0.7790    0.0000 O.3     1  LIG1       -0.2192
@<TRIPOS>BOND
     1     1     2   ar
     2     1     5   ar
     3     1    14    1
     4     2     3   ar
     5     2    13   ar
     6     3     4   ar
     7     3    10   ar
     8     4     5   ar
     9     4     9   ar
    10     5     6   ar
    11     6     7   ar
    12     7     8   ar
    13     8     9   ar
    14    10    11   ar
    15    11    12   ar
    16    12    13   ar
    17    14    15    1
    18    15    16    1
    19    15    30    1
    20    16    17    1
    21    17    18   am
    22    17    26    1
    23    18    19    2
    24    18    20    1
    25    20    21   ar
    26    20    25   ar
    27    21    22   ar
    28    22    23   ar
    29    23    24   ar
    30    24    25   ar
    31    26    27    1
    32    27    28    1
    33    28    29    1
