@<TRIPOS>MOLECULE
26195_ChemDiv_5610-0600
 28 29 0 0 0
SMALL
GASTEIGER
Energy = 0

@<TRIPOS>ATOM
      1 C          -3.9040   -1.3420    0.0000 C.3     1  LIG1        0.0471
      2 C          -3.9040   -0.3500    0.0000 C.3     1  LIG1        0.1042
      3 C          -3.0420    0.1540    0.0000 C.2     1  LIG1        0.3168
      4 O          -3.0420    1.1460    0.0000 O.2     1  LIG1       -0.2501
      5 O          -2.1540   -0.3210    0.0000 O.3     1  LIG1       -0.4485
      6 C          -1.3210    0.2080    0.0000 C.3     1  LIG1        0.2086
      7 C          -0.4290   -0.2670    0.0000 C.3     1  LIG1        0.0513
      8 C           0.4080    0.2580    0.0000 C.3     1  LIG1        0.0513
      9 C           1.3000   -0.2000    0.0000 C.3     1  LIG1        0.2086
     10 O           2.1460    0.3130    0.0000 O.3     1  LIG1       -0.4485
     11 C           3.0330   -0.1580    0.0000 C.2     1  LIG1        0.3168
     12 C           3.9080    0.3420    0.0000 C.3     1  LIG1        0.1042
     13 C           3.9080    1.3540    0.0000 C.3     1  LIG1        0.0471
     14 C           3.0330    1.8540    0.0000 C.2     1  LIG1        0.0505
     15 O           2.1630    1.3880    0.0000 O.co2   1  LIG1       -0.5492
     16 O           3.0250    2.8670    0.0000 O.co2   1  LIG1       -0.5492
     17 C           4.7630    1.8540    0.0000 C.3     1  LIG1        0.0061
     18 C           5.6330    1.3540    0.0000 C.3     1  LIG1        0.0004
     19 C           5.6330    0.3420    0.0000 C.3     1  LIG1        0.0006
     20 C           4.7630   -0.1580    0.0000 C.3     1  LIG1        0.0115
     21 O           3.0170   -1.1540    0.0000 O.2     1  LIG1       -0.2501
     22 C          -4.7710    0.1540    0.0000 C.3     1  LIG1        0.0115
     23 C          -5.6380   -0.3500    0.0000 C.3     1  LIG1        0.0006
     24 C          -5.6380   -1.3420    0.0000 C.3     1  LIG1        0.0004
     25 C          -4.7710   -1.8500    0.0000 C.3     1  LIG1        0.0061
     26 C          -3.0420   -1.8500    0.0000 C.2     1  LIG1        0.0505
     27 O          -2.1670   -1.3750    0.0000 O.co2   1  LIG1       -0.5492
     28 O          -3.0420   -2.8630    0.0000 O.co2   1  LIG1       -0.5492
@<TRIPOS>BOND
     1     1     2    1
     2     1    25    1
     3     1    26    1
     4     2     3    1
     5     2    22    1
     6     3     4    2
     7     3     5    1
     8     5     6    1
     9     6     7    1
    10     7     8    1
    11     8     9    1
    12     9    10    1
    13    10    11    1
    14    11    12    1
    15    11    21    2
    16    12    13    1
    17    12    20    1
    18    13    14    1
    19    13    17    1
    20    14    15   ar
    21    14    16   ar
    22    17    18    1
    23    18    19    1
    24    19    20    1
    25    22    23    1
    26    23    24    1
    27    24    25    1
    28    26    27   ar
    29    26    28   ar
