@<TRIPOS>MOLECULE
26190_ChemDiv_6295-0004
 23 25 0 0 0
SMALL
GASTEIGER
Energy = 0

@<TRIPOS>ATOM
      1 N          -1.1330    0.0000    0.0000 N.ar    1  LIG1       -0.3245
      2 C          -1.6210   -0.8380    0.0000 C.ar    1  LIG1        0.0600
      3 C          -2.5960   -0.8380    0.0000 C.ar    1  LIG1        0.0172
      4 C          -2.5960    0.8330    0.0000 C.ar    1  LIG1        0.0172
      5 C          -1.6210    0.8330    0.0000 C.ar    1  LIG1        0.0600
      6 C          -1.1330    1.6750    0.0000 C.ar    1  LIG1        0.0172
      7 C          -1.6210    2.5250    0.0000 C.ar    1  LIG1        0.0015
      8 C          -2.6000    2.5250    0.0000 C.ar    1  LIG1        0.0001
      9 C          -3.0830    1.6750    0.0000 C.ar    1  LIG1        0.0015
     10 C          -3.0830   -1.6790    0.0000 C.ar    1  LIG1        0.0015
     11 C          -2.6000   -2.5210    0.0000 C.ar    1  LIG1        0.0001
     12 C          -1.6210   -2.5210    0.0000 C.ar    1  LIG1        0.0015
     13 C          -1.1420   -1.6790    0.0000 C.ar    1  LIG1        0.0172
     14 C          -0.2960    0.4880    0.0000 C.3     1  LIG1        0.1403
     15 C           0.5460    0.0000    0.0000 C.3     1  LIG1        0.1920
     16 C           1.3880    0.4880    0.0000 C.3     1  LIG1        0.1303
     17 N           2.2290    0.0080    0.0000 N.3     1  LIG1       -0.1552
     18 S           2.2290   -0.9670    0.0000 S.O2    1  LIG1        0.0458
     19 O           1.3880   -1.4540    0.0000 O.2     1  LIG1       -0.1572
     20 O           3.0790   -1.4420    0.0000 O.2     1  LIG1       -0.1572
     21 C           2.2290   -1.9290    0.0000 C.3     1  LIG1        0.1960
     22 C           3.0670    0.4920    0.0000 C.3     1  LIG1        0.1146
     23 O           0.5460   -0.9710    0.0000 O.3     1  LIG1       -0.2195
@<TRIPOS>BOND
     1     1     2   ar
     2     1     5   ar
     3     1    14    1
     4     2     3   ar
     5     2    13   ar
     6     3     4   ar
     7     3    10   ar
     8     4     5   ar
     9     4     9   ar
    10     5     6   ar
    11     6     7   ar
    12     7     8   ar
    13     8     9   ar
    14    10    11   ar
    15    11    12   ar
    16    12    13   ar
    17    14    15    1
    18    15    16    1
    19    15    23    1
    20    16    17    1
    21    17    18    1
    22    17    22    1
    23    18    19    2
    24    18    20    2
    25    18    21    1
