@<TRIPOS>MOLECULE
26193_ChemDiv_5554-0791
 20 22 0 0 0
SMALL
GASTEIGER
Energy = 0

@<TRIPOS>ATOM
      1 C          -2.2580    0.9000    0.0000 C.3     1  LIG1        0.0250
      2 C          -2.6250    1.8630    0.0000 C.3     1  LIG1        0.0023
      3 C          -2.4580    0.3830    0.0000 C.3     1  LIG1        0.0025
      4 C          -1.3710   -0.0290    0.0000 C.3     1  LIG1        0.0296
      5 C          -1.1710    0.4290    0.0000 C.3     1  LIG1        0.1154
      6 O          -0.1750    0.3880    0.0000 O.3     1  LIG1       -0.3501
      7 C           0.3170   -0.4670    0.0000 C.3     1  LIG1        0.2028
      8 C           1.2920   -0.5130    0.0000 C.3     1  LIG1        0.1415
      9 N           1.7170   -1.3250    0.0000 N.4     1  LIG1        0.3073
     10 C           2.4500   -0.6580    0.0000 C.3     1  LIG1        0.1415
     11 C           3.4040   -0.9670    0.0000 C.3     1  LIG1        0.2030
     12 O           3.6250   -1.9330    0.0000 O.3     1  LIG1       -0.3412
     13 C           2.8960   -2.6040    0.0000 C.3     1  LIG1        0.2030
     14 C           1.9080   -2.2790    0.0000 C.3     1  LIG1        0.1415
     15 C           0.8460   -1.8380    0.0000 C.3     1  LIG1        0.1707
     16 C          -3.6290   -0.2380    0.0000 C.3     1  LIG1        0.0002
     17 C          -3.3880    0.2630    0.0000 C.3     1  LIG1        0.0023
     18 C          -3.4080    2.4210    0.0000 C.3     1  LIG1        0.0001
     19 C          -2.0250    2.6080    0.0000 C.3     1  LIG1        0.0001
     20 C          -1.7040    1.2630    0.0000 C.3     1  LIG1        0.0024
@<TRIPOS>BOND
     1     1     2    1
     2     1     5    1
     3     1    17    1
     4     1    20    1
     5     2     3    1
     6     2    18    1
     7     2    19    1
     8     3     4    1
     9     3    16    1
    10     4     5    1
    11     5     6    1
    12     6     7    1
    13     7     8    1
    14     8     9    1
    15     9    10    1
    16     9    14    1
    17     9    15    1
    18    10    11    1
    19    11    12    1
    20    12    13    1
    21    13    14    1
    22    16    17    1
