@<TRIPOS>MOLECULE
26194_ChemDiv_8012-9828
 33 38 0 0 0
SMALL
GASTEIGER
Energy = 0

@<TRIPOS>ATOM
      1 C          -1.4580   -1.1710    0.0000 C.ar    1  LIG1        0.1708
      2 C          -1.4460   -0.2210    0.0000 C.ar    1  LIG1        0.1539
      3 N           0.1380   -0.2210    0.0000 N.ar    1  LIG1       -0.2873
      4 C           0.1380   -1.1420    0.0000 C.ar    1  LIG1        0.2030
      5 N          -0.6380   -1.6250    0.0000 N.ar    1  LIG1       -0.1958
      6 N           0.9960   -1.6130    0.0000 N.pl3   1  LIG1       -0.2795
      7 C           1.8710   -1.1170    0.0000 C.3     1  LIG1        0.0936
      8 C           2.7670   -1.5960    0.0000 C.3     1  LIG1        0.0216
      9 C           2.7670   -2.6380    0.0000 C.3     1  LIG1        0.0034
     10 C           1.8790   -3.1460    0.0000 C.3     1  LIG1        0.0216
     11 C           0.9960   -2.6460    0.0000 C.3     1  LIG1        0.0936
     12 C           3.6210   -3.1290    0.0000 C.3     1  LIG1        0.0001
     13 C           0.9880    0.2580    0.0000 C.3     1  LIG1        0.1732
     14 C           0.9880    1.2330    0.0000 C.2     1  LIG1        0.1726
     15 C           1.8040    1.8170    0.0000 C.3     1  LIG1        0.0534
     16 C           2.2000    3.0960    0.0000 C.3     1  LIG1        0.0070
     17 C           3.1040    2.6830    0.0000 C.3     1  LIG1        0.0004
     18 C           3.9880    3.1500    0.0000 C.3     1  LIG1        0.0000
     19 C           3.6130    2.2290    0.0000 C.3     1  LIG1        0.0004
     20 C           2.6330    2.4000    0.0000 C.3     1  LIG1        0.0070
     21 C           3.7420    1.2540    0.0000 C.3     1  LIG1        0.0000
     22 C           2.8420    0.8210    0.0000 C.3     1  LIG1        0.0004
     23 C           2.1040    0.8750    0.0000 C.3     1  LIG1        0.0070
     24 C           3.2750    1.7040    0.0000 C.3     1  LIG1        0.0000
     25 O           0.1380    1.7330    0.0000 O.2     1  LIG1       -0.2940
     26 C          -2.2750    0.2290    0.0000 C.ar    1  LIG1        0.2832
     27 N          -3.1210   -0.2420    0.0000 N.ar    1  LIG1       -0.2454
     28 C          -3.1210   -1.1790    0.0000 C.ar    1  LIG1        0.3350
     29 N          -2.3000   -1.6420    0.0000 N.ar    1  LIG1       -0.2628
     30 C          -2.3000   -2.6080    0.0000 C.3     1  LIG1        0.1366
     31 O          -3.9830   -1.6880    0.0000 O.2     1  LIG1       -0.2461
     32 C          -3.9920    0.2210    0.0000 C.3     1  LIG1        0.1383
     33 O          -2.2750    1.1580    0.0000 O.2     1  LIG1       -0.2652
@<TRIPOS>BOND
     1     1     2   ar
     2     1     5   ar
     3     1    29   ar
     4     2     3   ar
     5     2    26   ar
     6     3     4   ar
     7     3    13    1
     8     4     5   ar
     9     4     6    1
    10     6     7    1
    11     6    11    1
    12     7     8    1
    13     8     9    1
    14     9    10    1
    15     9    12    1
    16    10    11    1
    17    13    14    1
    18    14    15    1
    19    14    25    2
    20    15    16    1
    21    15    20    1
    22    15    23    1
    23    16    17    1
    24    17    18    1
    25    17    24    1
    26    18    19    1
    27    19    20    1
    28    19    21    1
    29    21    22    1
    30    22    23    1
    31    22    24    1
    32    26    27   ar
    33    26    33    2
    34    27    28   ar
    35    27    32    1
    36    28    29   ar
    37    28    31    2
    38    29    30    1
