@<TRIPOS>MOLECULE
26197_ChemDiv_6431-0004
 17 17 0 0 0
SMALL
GASTEIGER
Energy = 0

@<TRIPOS>ATOM
      1 C          -0.5000   -0.7580    0.0000 C.3     1  LIG1        0.1154
      2 C          -1.3630   -0.2580    0.0000 C.3     1  LIG1        0.0272
      3 C          -2.2290   -0.7580    0.0000 C.3     1  LIG1        0.0024
      4 C          -2.2290   -1.7630    0.0000 C.3     1  LIG1        0.0002
      5 C          -1.3630   -2.2580    0.0000 C.3     1  LIG1        0.0024
      6 C          -0.5000   -1.7630    0.0000 C.3     1  LIG1        0.0296
      7 C          -1.3630   -3.2580    0.0000 C.3     1  LIG1        0.0001
      8 C          -1.3630    0.7420    0.0000 C.3     1  LIG1        0.0023
      9 C          -2.2290    1.2380    0.0000 C.3     1  LIG1        0.0001
     10 C          -0.5000    1.2380    0.0000 C.3     1  LIG1        0.0001
     11 O           0.3750   -0.2460    0.0000 O.3     1  LIG1       -0.3501
     12 C           0.3670    0.7630    0.0000 C.3     1  LIG1        0.2028
     13 C           1.2250    1.2580    0.0000 C.3     1  LIG1        0.1419
     14 N           1.2290    2.2670    0.0000 N.4     1  LIG1        0.3125
     15 C           2.2250    2.2630    0.0000 C.3     1  LIG1        0.1711
     16 C           1.2290    3.2630    0.0000 C.3     1  LIG1        0.1711
     17 C           0.2290    2.2630    0.0000 C.3     1  LIG1        0.1711
@<TRIPOS>BOND
     1     1     2    1
     2     1     6    1
     3     1    11    1
     4     2     3    1
     5     2     8    1
     6     3     4    1
     7     4     5    1
     8     5     6    1
     9     5     7    1
    10     8     9    1
    11     8    10    1
    12    11    12    1
    13    12    13    1
    14    13    14    1
    15    14    15    1
    16    14    16    1
    17    14    17    1
