@<TRIPOS>MOLECULE
26198_ChemDiv_8013-3671
 23 25 0 0 0
SMALL
GASTEIGER
Energy = 0

@<TRIPOS>ATOM
      1 C          -0.8750   -0.4670    0.0000 C.ar    1  LIG1        0.1708
      2 C          -0.8750    0.4500    0.0000 C.ar    1  LIG1        0.1539
      3 N           0.7380    0.4500    0.0000 N.ar    1  LIG1       -0.2873
      4 C           0.7380   -0.4670    0.0000 C.ar    1  LIG1        0.2031
      5 N          -0.0630   -0.9210    0.0000 N.ar    1  LIG1       -0.1958
      6 N           1.6040   -0.9580    0.0000 N.pl3   1  LIG1       -0.2743
      7 C           2.4580   -0.4540    0.0000 C.3     1  LIG1        0.1256
      8 C           3.3790   -0.9500    0.0000 C.3     1  LIG1        0.1637
      9 O           3.3710   -1.9460    0.0000 O.3     1  LIG1       -0.3501
     10 C           2.5040   -2.4580    0.0000 C.3     1  LIG1        0.1637
     11 C           1.5960   -1.9290    0.0000 C.3     1  LIG1        0.1256
     12 C           1.6210    0.9630    0.0000 C.3     1  LIG1        0.1732
     13 C           1.6130    1.9380    0.0000 C.2     1  LIG1        0.1739
     14 O           0.7920    2.4630    0.0000 O.2     1  LIG1       -0.2940
     15 C           2.4540    2.3960    0.0000 C.3     1  LIG1        0.0744
     16 C          -1.6790    0.9130    0.0000 C.ar    1  LIG1        0.2832
     17 N          -2.4880    0.4500    0.0000 N.ar    1  LIG1       -0.2454
     18 C          -2.4880   -0.4670    0.0000 C.ar    1  LIG1        0.3350
     19 N          -1.6790   -0.9210    0.0000 N.ar    1  LIG1       -0.2628
     20 C          -1.6790   -1.9460    0.0000 C.3     1  LIG1        0.1366
     21 O          -3.3830   -0.9670    0.0000 O.2     1  LIG1       -0.2461
     22 C          -3.3830    0.9540    0.0000 C.3     1  LIG1        0.1383
     23 O          -1.6790    1.9250    0.0000 O.2     1  LIG1       -0.2652
@<TRIPOS>BOND
     1     1     2   ar
     2     1     5   ar
     3     1    19   ar
     4     2     3   ar
     5     2    16   ar
     6     3     4   ar
     7     3    12    1
     8     4     5   ar
     9     4     6    1
    10     6     7    1
    11     6    11    1
    12     7     8    1
    13     8     9    1
    14     9    10    1
    15    10    11    1
    16    12    13    1
    17    13    14    2
    18    13    15    1
    19    16    17   ar
    20    16    23    2
    21    17    18   ar
    22    17    22    1
    23    18    19   ar
    24    18    21    2
    25    19    20    1
