@<TRIPOS>MOLECULE
26196_ChemDiv_8012-9829
 33 38 0 0 0
SMALL
GASTEIGER
Energy = 0

@<TRIPOS>ATOM
      1 C          -1.4330   -1.2460    0.0000 C.ar    1  LIG1        0.1708
      2 C          -1.4250   -0.3000    0.0000 C.ar    1  LIG1        0.1539
      3 N           0.1670   -0.3000    0.0000 N.ar    1  LIG1       -0.2873
      4 C           0.1670   -1.2210    0.0000 C.ar    1  LIG1        0.2033
      5 N          -0.6170   -1.7000    0.0000 N.ar    1  LIG1       -0.1958
      6 N           1.0210   -1.6920    0.0000 N.pl3   1  LIG1       -0.2680
      7 C           1.0210   -2.7250    0.0000 C.3     1  LIG1        0.1566
      8 C           1.9080   -3.2210    0.0000 C.3     1  LIG1        0.1608
      9 N           2.7920   -2.7170    0.0000 N.4     1  LIG1        0.3847
     10 C           2.7920   -1.6710    0.0000 C.3     1  LIG1        0.1608
     11 C           1.8960   -1.1920    0.0000 C.3     1  LIG1        0.1566
     12 C           3.6460   -3.2040    0.0000 C.3     1  LIG1        0.2024
     13 C           1.0080    0.1790    0.0000 C.3     1  LIG1        0.1732
     14 C           1.0080    1.1580    0.0000 C.2     1  LIG1        0.1726
     15 C           1.8790    1.6540    0.0000 C.3     1  LIG1        0.0534
     16 C           2.1130    2.7000    0.0000 C.3     1  LIG1        0.0070
     17 C           3.1000    2.5960    0.0000 C.3     1  LIG1        0.0004
     18 C           3.4540    1.6330    0.0000 C.3     1  LIG1        0.0000
     19 C           3.2960    0.6000    0.0000 C.3     1  LIG1        0.0004
     20 C           2.2040    0.7420    0.0000 C.3     1  LIG1        0.0070
     21 C           3.9670    1.2290    0.0000 C.3     1  LIG1        0.0000
     22 C           3.5960    2.1920    0.0000 C.3     1  LIG1        0.0004
     23 C           2.5920    2.2540    0.0000 C.3     1  LIG1        0.0070
     24 C           3.7210    3.2250    0.0000 C.3     1  LIG1        0.0000
     25 O           0.1670    1.6540    0.0000 O.2     1  LIG1       -0.2940
     26 C          -2.2460    0.1500    0.0000 C.ar    1  LIG1        0.2832
     27 N          -3.0960   -0.3170    0.0000 N.ar    1  LIG1       -0.2454
     28 C          -3.0960   -1.2580    0.0000 C.ar    1  LIG1        0.3350
     29 N          -2.2750   -1.7170    0.0000 N.ar    1  LIG1       -0.2628
     30 C          -2.2750   -2.6880    0.0000 C.3     1  LIG1        0.1366
     31 O          -3.9580   -1.7670    0.0000 O.2     1  LIG1       -0.2461
     32 C          -3.9710    0.1380    0.0000 C.3     1  LIG1        0.1383
     33 O          -2.2460    1.0790    0.0000 O.2     1  LIG1       -0.2652
@<TRIPOS>BOND
     1     1     2   ar
     2     1     5   ar
     3     1    29   ar
     4     2     3   ar
     5     2    26   ar
     6     3     4   ar
     7     3    13    1
     8     4     5   ar
     9     4     6    1
    10     6     7    1
    11     6    11    1
    12     7     8    1
    13     8     9    1
    14     9    10    1
    15     9    12    1
    16    10    11    1
    17    13    14    1
    18    14    15    1
    19    14    25    2
    20    15    16    1
    21    15    20    1
    22    15    23    1
    23    16    17    1
    24    17    18    1
    25    17    24    1
    26    18    19    1
    27    19    20    1
    28    19    21    1
    29    21    22    1
    30    22    23    1
    31    22    24    1
    32    26    27   ar
    33    26    33    2
    34    27    28   ar
    35    27    32    1
    36    28    29   ar
    37    28    31    2
    38    29    30    1
