@<TRIPOS>MOLECULE
26200_ChemDiv_8015-3780
 30 33 0 0 0
SMALL
GASTEIGER
Energy = 0

@<TRIPOS>ATOM
      1 C          -1.5960   -0.6920    0.0000 C.ar    1  LIG1        0.1709
      2 C          -1.5960    0.3290    0.0000 C.ar    1  LIG1        0.1540
      3 N          -0.6630    0.6290    0.0000 N.ar    1  LIG1       -0.2844
      4 C          -0.0710   -0.1670    0.0000 C.ar    1  LIG1        0.2193
      5 N          -0.6630   -0.9790    0.0000 N.ar    1  LIG1       -0.1946
      6 N           0.9630   -0.1670    0.0000 N.pl3   1  LIG1       -0.2070
      7 C           1.4170   -1.0040    0.0000 C.3     1  LIG1        0.0955
      8 C           0.9630   -1.8920    0.0000 C.3     1  LIG1        0.0217
      9 C           1.4380   -2.7500    0.0000 C.3     1  LIG1        0.0018
     10 C           2.4170   -2.7500    0.0000 C.3     1  LIG1        0.0001
     11 C           2.9130   -1.8920    0.0000 C.3     1  LIG1        0.0018
     12 C           2.3830   -1.0040    0.0000 C.3     1  LIG1        0.0217
     13 C          -0.3380    1.5830    0.0000 C.3     1  LIG1        0.1957
     14 C           0.6170    1.8040    0.0000 C.2     1  LIG1        0.2645
     15 N           1.3040    1.0670    0.0000 N.am    1  LIG1       -0.2056
     16 C           2.2750    1.2830    0.0000 C.3     1  LIG1        0.0954
     17 C           2.5540    2.2330    0.0000 C.3     1  LIG1        0.0217
     18 C           3.5290    2.4790    0.0000 C.3     1  LIG1        0.0018
     19 C           4.2290    1.7580    0.0000 C.3     1  LIG1        0.0001
     20 C           3.9500    0.8040    0.0000 C.3     1  LIG1        0.0018
     21 C           2.9790    0.5710    0.0000 C.3     1  LIG1        0.0217
     22 O           0.8750    2.7540    0.0000 O.2     1  LIG1       -0.2712
     23 C          -2.4830    0.8290    0.0000 C.ar    1  LIG1        0.2832
     24 N          -3.3580    0.3290    0.0000 N.ar    1  LIG1       -0.2454
     25 C          -3.3580   -0.6920    0.0000 C.ar    1  LIG1        0.3350
     26 N          -2.4830   -1.1920    0.0000 N.ar    1  LIG1       -0.2628
     27 C          -2.4830   -2.1920    0.0000 C.3     1  LIG1        0.1366
     28 O          -4.2330   -1.1920    0.0000 O.2     1  LIG1       -0.2461
     29 C          -4.2330    0.8670    0.0000 C.3     1  LIG1        0.1383
     30 O          -2.4830    1.8290    0.0000 O.2     1  LIG1       -0.2652
@<TRIPOS>BOND
     1     1     2   ar
     2     1     5   ar
     3     1    26   ar
     4     2     3   ar
     5     2    23   ar
     6     3     4   ar
     7     3    13    1
     8     4     5   ar
     9     4     6    1
    10     6     7    1
    11     7     8    1
    12     7    12    1
    13     8     9    1
    14     9    10    1
    15    10    11    1
    16    11    12    1
    17    13    14    1
    18    14    15   am
    19    14    22    2
    20    15    16    1
    21    16    17    1
    22    16    21    1
    23    17    18    1
    24    18    19    1
    25    19    20    1
    26    20    21    1
    27    23    24   ar
    28    23    30    2
    29    24    25   ar
    30    24    29    1
    31    25    26   ar
    32    25    28    2
    33    26    27    1
