@<TRIPOS>MOLECULE
26204_ChemDiv_8015-8758
 21 22 0 0 0
SMALL
GASTEIGER
Energy = 0

@<TRIPOS>ATOM
      1 C          -0.9750   -0.7670    0.0000 C.ar    1  LIG1        0.1709
      2 C          -0.9750    0.2330    0.0000 C.ar    1  LIG1        0.1540
      3 N          -0.0250    0.5460    0.0000 N.ar    1  LIG1       -0.2844
      4 C           0.5670   -0.2670    0.0000 C.ar    1  LIG1        0.2195
      5 N          -0.0250   -1.0750    0.0000 N.ar    1  LIG1       -0.1946
      6 N           1.5630   -0.2670    0.0000 N.pl3   1  LIG1       -0.2024
      7 C           2.0670   -1.1290    0.0000 C.3     1  LIG1        0.1508
      8 C           3.0710   -1.1290    0.0000 C.3     1  LIG1        0.2054
      9 O           3.5710   -0.2670    0.0000 O.3     1  LIG1       -0.2184
     10 C           0.4790    1.4080    0.0000 C.3     1  LIG1        0.1975
     11 C           1.4750    1.4080    0.0000 C.2     1  LIG1        0.2839
     12 O           1.9750    2.2710    0.0000 O.2     1  LIG1       -0.2695
     13 N           1.9750    0.5460    0.0000 N.am    1  LIG1       -0.0861
     14 C          -1.8420    0.7330    0.0000 C.ar    1  LIG1        0.2832
     15 N          -2.7130    0.2330    0.0000 N.ar    1  LIG1       -0.2454
     16 C          -2.7130   -0.7670    0.0000 C.ar    1  LIG1        0.3350
     17 N          -1.8420   -1.2670    0.0000 N.ar    1  LIG1       -0.2628
     18 C          -1.8420   -2.2670    0.0000 C.3     1  LIG1        0.1366
     19 O          -3.5750   -1.2670    0.0000 O.2     1  LIG1       -0.2461
     20 C          -3.5750    0.7330    0.0000 C.3     1  LIG1        0.1383
     21 O          -1.8420    1.7330    0.0000 O.2     1  LIG1       -0.2652
@<TRIPOS>BOND
     1     1     2   ar
     2     1     5   ar
     3     1    17   ar
     4     2     3   ar
     5     2    14   ar
     6     3     4   ar
     7     3    10    1
     8     4     5   ar
     9     4     6    1
    10     6     7    1
    11     7     8    1
    12     8     9    1
    13    10    11    1
    14    11    12    2
    15    11    13   am
    16    14    15   ar
    17    14    21    2
    18    15    16   ar
    19    15    20    1
    20    16    17   ar
    21    16    19    2
    22    17    18    1
