@<TRIPOS>MOLECULE
26208_ChemDiv_8015-9156
 23 25 0 0 0
SMALL
GASTEIGER
Energy = 0

@<TRIPOS>ATOM
      1 C          -1.7080   -0.2380    0.0000 C.ar    1  LIG1        0.1708
      2 C          -1.7080    0.7420    0.0000 C.ar    1  LIG1        0.1536
      3 C          -2.5420    1.2290    0.0000 C.ar    1  LIG1        0.2832
      4 N          -3.3670    0.7420    0.0000 N.ar    1  LIG1       -0.2454
      5 C          -3.3670   -0.2380    0.0000 C.ar    1  LIG1        0.3350
      6 N          -2.5420   -0.7250    0.0000 N.ar    1  LIG1       -0.2628
      7 C          -2.5420   -1.6880    0.0000 C.3     1  LIG1        0.1366
      8 O          -4.2000   -0.7170    0.0000 O.2     1  LIG1       -0.2461
      9 C          -4.2000    1.2210    0.0000 C.3     1  LIG1        0.1383
     10 O          -2.5420    2.1920    0.0000 O.2     1  LIG1       -0.2652
     11 N          -0.0210    0.7420    0.0000 N.ar    1  LIG1       -0.2934
     12 C          -0.0210   -0.2380    0.0000 C.ar    1  LIG1        0.2193
     13 N          -0.8670   -0.7250    0.0000 N.ar    1  LIG1       -0.1946
     14 N           0.8170   -0.7250    0.0000 N.pl3   1  LIG1       -0.2003
     15 C           1.6670   -0.2380    0.0000 C.3     1  LIG1        0.1416
     16 C           2.5040   -0.7250    0.0000 C.ar    1  LIG1       -0.0006
     17 C           2.5040   -1.7000    0.0000 C.ar    1  LIG1       -0.0026
     18 C           3.3540   -2.1880    0.0000 C.ar    1  LIG1       -0.0003
     19 C           4.1960   -1.7000    0.0000 C.ar    1  LIG1       -0.0000
     20 C           4.1960   -0.7250    0.0000 C.ar    1  LIG1       -0.0003
     21 C           3.3540   -0.2380    0.0000 C.ar    1  LIG1       -0.0026
     22 C           0.8170    1.2290    0.0000 C.3     1  LIG1        0.1090
     23 C           1.6670    0.7420    0.0000 C.3     1  LIG1        0.0266
@<TRIPOS>BOND
     1     1     2   ar
     2     1     6   ar
     3     1    13   ar
     4     2     3   ar
     5     2    11   ar
     6     3     4   ar
     7     3    10    2
     8     4     5   ar
     9     4     9    1
    10     5     6   ar
    11     5     8    2
    12     6     7    1
    13    11    12   ar
    14    11    22    1
    15    12    13   ar
    16    12    14    1
    17    14    15    1
    18    15    16    1
    19    16    17   ar
    20    16    21   ar
    21    17    18   ar
    22    18    19   ar
    23    19    20   ar
    24    20    21   ar
    25    22    23    1
