@<TRIPOS>MOLECULE
26209_ChemDiv_N081-0771
 26 29 0 0 0
SMALL
GASTEIGER
Energy = 0

@<TRIPOS>ATOM
      1 N           0.1790    0.0250    0.0000 N.am    1  LIG1       -0.2296
      2 C          -0.4290    0.7960    0.0000 C.2     1  LIG1        0.2317
      3 C          -1.3790    0.5130    0.0000 C.3     1  LIG1        0.0905
      4 C          -1.3790   -0.5210    0.0000 C.3     1  LIG1        0.0951
      5 C          -0.4170   -0.8170    0.0000 C.2     1  LIG1        0.2318
      6 O          -0.1080   -1.7540    0.0000 O.2     1  LIG1       -0.2745
      7 C          -2.2750    1.0210    0.0000 C.3     1  LIG1        0.0359
      8 C          -3.1420    0.5130    0.0000 C.ar    1  LIG1       -0.0216
      9 C          -3.1420   -0.4830    0.0000 C.ar    1  LIG1       -0.0034
     10 C          -3.9880   -0.9670    0.0000 C.ar    1  LIG1        0.0111
     11 C          -4.8500   -0.4830    0.0000 C.ar    1  LIG1        0.0577
     12 CL         -5.7290   -0.9670    0.0000 Cl      1  LIG1       -0.0822
     13 C          -4.8500    0.5130    0.0000 C.ar    1  LIG1        0.0111
     14 C          -3.9960    0.9960    0.0000 C.ar    1  LIG1       -0.0034
     15 O          -0.1420    1.7580    0.0000 O.2     1  LIG1       -0.2745
     16 C           1.1630    0.0250    0.0000 C.3     1  LIG1        0.1055
     17 C           1.6580   -0.8750    0.0000 C.3     1  LIG1        0.0484
     18 C           2.6540   -0.8750    0.0000 C.ar    1  LIG1       -0.0172
     19 C           3.1790   -0.0210    0.0000 C.ar    1  LIG1        0.0360
     20 C           4.1580   -0.0330    0.0000 C.ar    1  LIG1        0.1761
     21 C           4.6710   -0.8920    0.0000 C.ar    1  LIG1        0.1764
     22 O           5.6540   -0.6540    0.0000 O.3     1  LIG1       -0.4346
     23 C           5.7250    0.3460    0.0000 C.3     1  LIG1        0.4294
     24 O           4.7630    0.7250    0.0000 O.3     1  LIG1       -0.4346
     25 C           4.1500   -1.7540    0.0000 C.ar    1  LIG1        0.0399
     26 C           3.1630   -1.7380    0.0000 C.ar    1  LIG1       -0.0009
@<TRIPOS>BOND
     1     1     2   am
     2     1     5   am
     3     1    16    1
     4     2     3    1
     5     2    15    2
     6     3     4    1
     7     3     7    1
     8     4     5    1
     9     5     6    2
    10     7     8    1
    11     8     9   ar
    12     8    14   ar
    13     9    10   ar
    14    10    11   ar
    15    11    12    1
    16    11    13   ar
    17    13    14   ar
    18    16    17    1
    19    17    18    1
    20    18    19   ar
    21    18    26   ar
    22    19    20   ar
    23    20    21   ar
    24    20    24    1
    25    21    22    1
    26    21    25   ar
    27    22    23    1
    28    23    24    1
    29    25    26   ar
