@<TRIPOS>MOLECULE
26206_ChemDiv_8015-8929
 22 23 0 0 0
SMALL
GASTEIGER
Energy = 0

@<TRIPOS>ATOM
      1 C          -1.4830   -0.7670    0.0000 C.ar    1  LIG1        0.1709
      2 C          -1.4830    0.2330    0.0000 C.ar    1  LIG1        0.1540
      3 N          -0.5250    0.5460    0.0000 N.ar    1  LIG1       -0.2844
      4 C           0.0630   -0.2670    0.0000 C.ar    1  LIG1        0.2194
      5 N          -0.5250   -1.0750    0.0000 N.ar    1  LIG1       -0.1946
      6 N           1.0630   -0.2670    0.0000 N.pl3   1  LIG1       -0.2051
      7 C           1.5630   -1.1290    0.0000 C.3     1  LIG1        0.1180
      8 C           2.5670   -1.1290    0.0000 C.3     1  LIG1        0.0590
      9 C           3.0630   -0.2670    0.0000 C.3     1  LIG1        0.1839
     10 O           4.0670   -0.2670    0.0000 O.3     1  LIG1       -0.2204
     11 C          -0.0250    1.4080    0.0000 C.3     1  LIG1        0.1975
     12 C           0.9750    1.4080    0.0000 C.2     1  LIG1        0.2839
     13 O           1.4790    2.2710    0.0000 O.2     1  LIG1       -0.2695
     14 N           1.4790    0.5460    0.0000 N.am    1  LIG1       -0.0861
     15 C          -2.3380    0.7330    0.0000 C.ar    1  LIG1        0.2832
     16 N          -3.2080    0.2330    0.0000 N.ar    1  LIG1       -0.2454
     17 C          -3.2080   -0.7670    0.0000 C.ar    1  LIG1        0.3350
     18 N          -2.3380   -1.2670    0.0000 N.ar    1  LIG1       -0.2628
     19 C          -2.3380   -2.2670    0.0000 C.3     1  LIG1        0.1366
     20 O          -4.0710   -1.2670    0.0000 O.2     1  LIG1       -0.2461
     21 C          -4.0710    0.7330    0.0000 C.3     1  LIG1        0.1383
     22 O          -2.3380    1.7330    0.0000 O.2     1  LIG1       -0.2652
@<TRIPOS>BOND
     1     1     2   ar
     2     1     5   ar
     3     1    18   ar
     4     2     3   ar
     5     2    15   ar
     6     3     4   ar
     7     3    11    1
     8     4     5   ar
     9     4     6    1
    10     6     7    1
    11     7     8    1
    12     8     9    1
    13     9    10    1
    14    11    12    1
    15    12    13    2
    16    12    14   am
    17    15    16   ar
    18    15    22    2
    19    16    17   ar
    20    16    21    1
    21    17    18   ar
    22    17    20    2
    23    18    19    1
