@<TRIPOS>MOLECULE
26205_ChemDiv_8010-3847
 25 26 0 0 0
SMALL
GASTEIGER
Energy = 0

@<TRIPOS>ATOM
      1 C          -1.6830    0.8630    0.0000 C.3     1  LIG1        0.0250
      2 C          -1.9460    1.8540    0.0000 C.3     1  LIG1        0.0023
      3 C          -1.9460    0.4080    0.0000 C.3     1  LIG1        0.0025
      4 C          -0.9290   -0.1420    0.0000 C.3     1  LIG1        0.0296
      5 C          -0.6670    0.3080    0.0000 C.3     1  LIG1        0.1154
      6 O           0.3210    0.3080    0.0000 O.3     1  LIG1       -0.3501
      7 C           0.7580    1.1290    0.0000 C.3     1  LIG1        0.2028
      8 C           1.7790    1.1250    0.0000 C.3     1  LIG1        0.1423
      9 N           2.3130    0.2670    0.0000 N.4     1  LIG1        0.3165
     10 C           2.7750   -0.5580    0.0000 C.3     1  LIG1        0.2199
     11 C           2.2920   -1.3420    0.0000 C.2     1  LIG1        0.3739
     12 O           2.7750   -2.2000    0.0000 O.2     1  LIG1       -0.2435
     13 O           1.2330   -1.3330    0.0000 O.3     1  LIG1       -0.4445
     14 C           0.7420   -2.2080    0.0000 C.3     1  LIG1        0.2086
     15 C          -0.2630   -2.2080    0.0000 C.3     1  LIG1        0.0474
     16 C          -0.7920   -1.3330    0.0000 C.3     1  LIG1        0.0037
     17 C          -0.2540   -0.4880    0.0000 C.3     1  LIG1        0.0001
     18 C          -1.8670   -1.3330    0.0000 C.3     1  LIG1        0.0001
     19 C           3.1710    0.8000    0.0000 C.3     1  LIG1        0.1715
     20 C           1.4540   -0.2540    0.0000 C.3     1  LIG1        0.1715
     21 C          -3.1750   -0.0830    0.0000 C.3     1  LIG1        0.0002
     22 C          -2.8540    0.4080    0.0000 C.3     1  LIG1        0.0023
     23 C          -2.6500    2.1880    0.0000 C.3     1  LIG1        0.0001
     24 C          -1.1710    2.2130    0.0000 C.3     1  LIG1        0.0001
     25 C          -0.8210    1.1580    0.0000 C.3     1  LIG1        0.0024
@<TRIPOS>BOND
     1     1     2    1
     2     1     5    1
     3     1    22    1
     4     1    25    1
     5     2     3    1
     6     2    23    1
     7     2    24    1
     8     3     4    1
     9     3    21    1
    10     4     5    1
    11     5     6    1
    12     6     7    1
    13     7     8    1
    14     8     9    1
    15     9    10    1
    16     9    19    1
    17     9    20    1
    18    10    11    1
    19    11    12    2
    20    11    13    1
    21    13    14    1
    22    14    15    1
    23    15    16    1
    24    16    17    1
    25    16    18    1
    26    21    22    1
