@<TRIPOS>MOLECULE
26207_ChemDiv_8016-8415
 13 14 0 0 0
SMALL
GASTEIGER
Energy = 0

@<TRIPOS>ATOM
      1 C          -0.5380    0.0960    0.0000 C.3     1  LIG1        0.1274
      2 C          -0.5460   -0.8040    0.0000 C.3     1  LIG1        0.1446
      3 O           0.2330   -1.2420    0.0000 O.3     1  LIG1       -0.4552
      4 C           1.0040   -0.7960    0.0000 C.2     1  LIG1        0.3174
      5 C           1.0040    0.0960    0.0000 C.3     1  LIG1        0.1222
      6 O           1.8830   -0.7960    0.0000 O.2     1  LIG1       -0.2501
      7 C          -0.9960   -1.5580    0.0000 C.3     1  LIG1        0.0406
      8 C          -1.8880   -1.5460    0.0000 C.3     1  LIG1        0.0037
      9 C          -1.8630   -0.0040    0.0000 C.3     1  LIG1        0.0037
     10 C          -0.9710   -0.0210    0.0000 C.3     1  LIG1        0.0406
     11 C          -0.5460    1.0750    0.0000 C.2     1  LIG1        0.2642
     12 O          -1.3960    1.5580    0.0000 O.2     1  LIG1       -0.2715
     13 N           0.2960    1.5630    0.0000 N.am    1  LIG1       -0.0877
@<TRIPOS>BOND
     1     1     2    1
     2     1     5    1
     3     1    11    1
     4     2     3    1
     5     2     7    1
     6     2    10    1
     7     3     4    1
     8     4     5    1
     9     4     6    2
    10     7     8    1
    11     8     9    1
    12     9    10    1
    13    11    12    2
    14    11    13   am
