@<TRIPOS>MOLECULE
26202_ChemDiv_8015-8306
 20 22 0 0 0
SMALL
GASTEIGER
Energy = 0

@<TRIPOS>ATOM
      1 C          -0.9460   -0.8080    0.0000 C.ar    1  LIG1        0.2306
      2 C          -0.9460    0.1960    0.0000 C.ar    1  LIG1        0.3896
      3 C          -1.8210    0.6830    0.0000 C.ar    1  LIG1        0.3381
      4 N          -2.6960    0.1960    0.0000 N.ar    1  LIG1       -0.2415
      5 C          -2.6960   -0.8080    0.0000 C.ar    1  LIG1        0.3352
      6 N          -1.8210   -1.2960    0.0000 N.ar    1  LIG1       -0.2588
      7 C          -1.8210   -2.2960    0.0000 C.3     1  LIG1        0.1368
      8 O          -3.5880   -1.2960    0.0000 O.2     1  LIG1       -0.2461
      9 C          -3.5880    0.6830    0.0000 C.3     1  LIG1        0.1384
     10 O          -1.8210    1.6830    0.0000 O.2     1  LIG1       -0.2599
     11 N          -0.0040    0.5080    0.0000 N.ar    1  LIG1        0.1245
     12 C           0.5960   -0.2960    0.0000 C.ar    1  LIG1        0.4637
     13 N          -0.0040   -1.1210    0.0000 N.ar    1  LIG1       -0.1402
     14 N           1.5830   -0.2960    0.0000 N.pl3   1  LIG1       -0.1576
     15 C           2.0830    0.5630    0.0000 C.3     1  LIG1        0.1000
     16 C           3.0830    0.5830    0.0000 C.3     1  LIG1        0.0218
     17 C           3.5830    1.4330    0.0000 C.3     1  LIG1        0.0018
     18 C           3.0960    2.3000    0.0000 C.3     1  LIG1        0.0001
     19 C           2.0960    2.3000    0.0000 C.3     1  LIG1        0.0018
     20 C           1.5960    1.4210    0.0000 C.3     1  LIG1        0.0218
@<TRIPOS>BOND
     1     1     2   ar
     2     1     6   ar
     3     1    13   ar
     4     2     3   ar
     5     2    11   ar
     6     3     4   ar
     7     3    10    2
     8     4     5   ar
     9     4     9    1
    10     5     6   ar
    11     5     8    2
    12     6     7    1
    13    11    12   ar
    14    12    13   ar
    15    12    14    1
    16    14    15    1
    17    15    16    1
    18    15    20    1
    19    16    17    1
    20    17    18    1
    21    18    19    1
    22    19    20    1
