@<TRIPOS>MOLECULE
26218_ChemDiv_8016-9038
 28 31 0 0 0
SMALL
GASTEIGER
Energy = 0

@<TRIPOS>ATOM
      1 N           2.4630   -0.1750    0.0000 N.ar    1  LIG1       -0.3271
      2 C           2.5540    0.8210    0.0000 C.ar    1  LIG1        0.0599
      3 C           3.5290    1.0330    0.0000 C.ar    1  LIG1        0.0172
      4 C           4.0370    0.1710    0.0000 C.ar    1  LIG1        0.0172
      5 C           3.3670   -0.5750    0.0000 C.ar    1  LIG1        0.0599
      6 C           3.6790   -1.5170    0.0000 C.ar    1  LIG1        0.0172
      7 C           4.6670   -1.7250    0.0000 C.ar    1  LIG1        0.0015
      8 C           5.3290   -0.9670    0.0000 C.ar    1  LIG1        0.0001
      9 C           5.0130   -0.0290    0.0000 C.ar    1  LIG1        0.0015
     10 C           3.8290    1.9830    0.0000 C.ar    1  LIG1        0.0015
     11 C           3.1540    2.7210    0.0000 C.ar    1  LIG1        0.0001
     12 C           2.1790    2.5080    0.0000 C.ar    1  LIG1        0.0015
     13 C           1.8790    1.5580    0.0000 C.ar    1  LIG1        0.0172
     14 C           1.6000   -0.6790    0.0000 C.3     1  LIG1        0.1079
     15 C           0.7290   -0.1880    0.0000 C.3     1  LIG1        0.0479
     16 C          -0.1330   -0.6920    0.0000 C.3     1  LIG1        0.1188
     17 N          -1.0080   -0.2000    0.0000 N.am    1  LIG1       -0.1869
     18 C          -1.8710   -0.7040    0.0000 C.2     1  LIG1        0.3435
     19 N          -2.7380   -0.2040    0.0000 N.am    1  LIG1       -0.1603
     20 C          -3.6000   -0.7130    0.0000 C.ar    1  LIG1        0.0845
     21 C          -3.5960   -1.7170    0.0000 C.ar    1  LIG1        0.0838
     22 C          -2.7330   -2.2170    0.0000 C.1     1  LIG1        0.1017
     23 N          -1.8580   -2.7170    0.0000 N.1     1  LIG1       -0.1908
     24 C          -4.4710   -2.2170    0.0000 C.ar    1  LIG1        0.0116
     25 C          -5.3330   -1.7170    0.0000 C.ar    1  LIG1        0.0008
     26 C          -5.3330   -0.7170    0.0000 C.ar    1  LIG1        0.0014
     27 C          -4.4710   -0.2130    0.0000 C.ar    1  LIG1        0.0173
     28 O          -1.8630   -1.7040    0.0000 O.2     1  LIG1       -0.2488
@<TRIPOS>BOND
     1     1     2   ar
     2     1     5   ar
     3     1    14    1
     4     2     3   ar
     5     2    13   ar
     6     3     4   ar
     7     3    10   ar
     8     4     5   ar
     9     4     9   ar
    10     5     6   ar
    11     6     7   ar
    12     7     8   ar
    13     8     9   ar
    14    10    11   ar
    15    11    12   ar
    16    12    13   ar
    17    14    15    1
    18    15    16    1
    19    16    17    1
    20    17    18   am
    21    18    19   am
    22    18    28    2
    23    19    20    1
    24    20    21   ar
    25    20    27   ar
    26    21    22    1
    27    21    24   ar
    28    22    23    3
    29    24    25   ar
    30    25    26   ar
    31    26    27   ar
