@<TRIPOS>MOLECULE
26212_ChemDiv_7208-0037
 24 26 0 0 0
SMALL
GASTEIGER
Energy = 0

@<TRIPOS>ATOM
      1 N          -1.0710    0.7080    0.0000 N.ar    1  LIG1       -0.3243
      2 C          -0.9670    1.7040    0.0000 C.ar    1  LIG1        0.0600
      3 C          -1.8790    2.1170    0.0000 C.ar    1  LIG1        0.0172
      4 C          -2.5460    1.3710    0.0000 C.ar    1  LIG1        0.0172
      5 C          -2.0460    0.5040    0.0000 C.ar    1  LIG1        0.0600
      6 C          -2.5460   -0.3580    0.0000 C.ar    1  LIG1        0.0172
      7 C          -3.5380   -0.3580    0.0000 C.ar    1  LIG1        0.0015
      8 C          -4.0420    0.5080    0.0000 C.ar    1  LIG1        0.0001
      9 C          -3.5380    1.3710    0.0000 C.ar    1  LIG1        0.0015
     10 C          -1.9790    3.0960    0.0000 C.ar    1  LIG1        0.0015
     11 C          -1.1670    3.6830    0.0000 C.ar    1  LIG1        0.0001
     12 C          -0.2540    3.2750    0.0000 C.ar    1  LIG1        0.0015
     13 C          -0.1580    2.2880    0.0000 C.ar    1  LIG1        0.0172
     14 C          -0.1000    0.4500    0.0000 C.3     1  LIG1        0.1452
     15 C           0.1580   -0.5130    0.0000 C.3     1  LIG1        0.2365
     16 C           1.1250   -0.7710    0.0000 C.3     1  LIG1        0.2361
     17 N           1.3830   -1.7460    0.0000 N.4     1  LIG1        0.4499
     18 CA          2.3500   -2.0040    0.0000 C.3     1  LIG1        0.1807
     19 C           3.0630   -1.2880    0.0000 C.2     1  LIG1        0.1073
     20 O           4.0370   -1.5460    0.0000 O.co2   1  LIG1       -0.5436
     21 OXT         2.8040   -0.3170    0.0000 O.co2   1  LIG1       -0.5436
     22 C           2.6080   -2.9750    0.0000 C.3     1  LIG1        0.0687
     23 C           1.9040   -3.6790    0.0000 C.3     1  LIG1        0.0068
     24 O          -0.5540   -1.2290    0.0000 O.3     1  LIG1       -0.2144
@<TRIPOS>BOND
     1     1     2   ar
     2     1     5   ar
     3     1    14    1
     4     2     3   ar
     5     2    13   ar
     6     3     4   ar
     7     3    10   ar
     8     4     5   ar
     9     4     9   ar
    10     5     6   ar
    11     6     7   ar
    12     7     8   ar
    13     8     9   ar
    14    10    11   ar
    15    11    12   ar
    16    12    13   ar
    17    14    15    1
    18    15    16    1
    19    15    24    1
    20    16    17    1
    21    17    18    1
    22    18    19    1
    23    18    22    1
    24    19    20   ar
    25    19    21   ar
    26    22    23    1
