@<TRIPOS>MOLECULE
26214_ChemDiv_8005-2428
 24 27 0 0 0
SMALL
GASTEIGER
Energy = 0

@<TRIPOS>ATOM
      1 N          -2.0460    0.6040    0.0000 N.ar    1  LIG1       -0.2795
      2 C          -2.1830   -0.3580    0.0000 C.ar    1  LIG1        0.0648
      3 C          -3.1460   -0.5250    0.0000 C.ar    1  LIG1        0.0174
      4 C          -3.6000    0.3250    0.0000 C.ar    1  LIG1        0.0174
      5 C          -2.9000    1.0580    0.0000 C.ar    1  LIG1        0.0648
      6 C          -3.1460    2.0000    0.0000 C.ar    1  LIG1        0.0174
      7 C          -4.1130    2.2630    0.0000 C.ar    1  LIG1        0.0015
      8 C          -4.8500    1.5380    0.0000 C.ar    1  LIG1        0.0001
      9 C          -4.5670    0.6040    0.0000 C.ar    1  LIG1        0.0015
     10 C          -3.5210   -1.4790    0.0000 C.ar    1  LIG1        0.0015
     11 C          -2.8710   -2.2580    0.0000 C.ar    1  LIG1        0.0001
     12 C          -1.8880   -2.0750    0.0000 C.ar    1  LIG1        0.0015
     13 C          -1.5420   -1.1330    0.0000 C.ar    1  LIG1        0.0174
     14 C          -1.1540    1.0580    0.0000 C.3     1  LIG1        0.2579
     15 N          -0.2880    0.4960    0.0000 N.4     1  LIG1        0.3978
     16 C          -0.3580   -0.4920    0.0000 C.3     1  LIG1        0.1591
     17 C           0.4580   -1.0500    0.0000 C.3     1  LIG1        0.1360
     18 N           1.3670   -0.5630    0.0000 N.3     1  LIG1       -0.2617
     19 C           1.4250    0.3960    0.0000 C.3     1  LIG1        0.1360
     20 C           0.6000    0.9540    0.0000 C.3     1  LIG1        0.1591
     21 C           2.2630   -1.1330    0.0000 C.3     1  LIG1        0.0887
     22 C           3.1170   -0.6290    0.0000 C.3     1  LIG1        0.1227
     23 C           3.9750   -1.1500    0.0000 C.1     1  LIG1        0.0746
     24 N           4.8460   -1.6630    0.0000 N.1     1  LIG1       -0.1958
@<TRIPOS>BOND
     1     1     2   ar
     2     1     5   ar
     3     1    14    1
     4     2     3   ar
     5     2    13   ar
     6     3     4   ar
     7     3    10   ar
     8     4     5   ar
     9     4     9   ar
    10     5     6   ar
    11     6     7   ar
    12     7     8   ar
    13     8     9   ar
    14    10    11   ar
    15    11    12   ar
    16    12    13   ar
    17    14    15    1
    18    15    16    1
    19    15    20    1
    20    16    17    1
    21    17    18    1
    22    18    19    1
    23    18    21    1
    24    19    20    1
    25    21    22    1
    26    22    23    1
    27    23    24    3
