@<TRIPOS>MOLECULE
26210_ChemDiv_6573-0015
 32 35 0 0 0
SMALL
GASTEIGER
Energy = 0

@<TRIPOS>ATOM
      1 S           1.7580    0.1540    0.0000 S.O2    1  LIG1        0.0638
      2 N           0.7540    0.1040    0.0000 N.3     1  LIG1       -0.1434
      3 C           0.2080    0.9420    0.0000 C.3     1  LIG1        0.1839
      4 C           0.6580    1.8330    0.0000 C.2     1  LIG1        0.2788
      5 O           1.6630    1.8880    0.0000 O.2     1  LIG1       -0.2701
      6 N           0.1210    2.6790    0.0000 N.am    1  LIG1       -0.0865
      7 C           0.2960   -0.7880    0.0000 C.3     1  LIG1        0.1312
      8 C          -0.7000   -0.8460    0.0000 C.3     1  LIG1        0.1920
      9 C          -1.2500    0.0000    0.0000 C.3     1  LIG1        0.1403
     10 N          -2.2500   -0.0540    0.0000 N.ar    1  LIG1       -0.3245
     11 C          -2.7880   -0.8960    0.0000 C.ar    1  LIG1        0.0600
     12 C          -3.7580   -0.6330    0.0000 C.ar    1  LIG1        0.0172
     13 C          -3.8130    0.3670    0.0000 C.ar    1  LIG1        0.0172
     14 C          -2.8750    0.7210    0.0000 C.ar    1  LIG1        0.0600
     15 C          -2.7130    1.7130    0.0000 C.ar    1  LIG1        0.0172
     16 C          -3.4920    2.3420    0.0000 C.ar    1  LIG1        0.0015
     17 C          -4.4330    1.9790    0.0000 C.ar    1  LIG1        0.0001
     18 C          -4.5880    0.9920    0.0000 C.ar    1  LIG1        0.0015
     19 C          -4.4580   -1.3330    0.0000 C.ar    1  LIG1        0.0015
     20 C          -4.2000   -2.2960    0.0000 C.ar    1  LIG1        0.0001
     21 C          -3.2380   -2.5540    0.0000 C.ar    1  LIG1        0.0015
     22 C          -2.5380   -1.8500    0.0000 C.ar    1  LIG1        0.0172
     23 O          -1.1540   -1.7330    0.0000 O.3     1  LIG1       -0.2195
     24 C           2.4670   -0.5580    0.0000 C.ar    1  LIG1        0.1222
     25 C           2.2040   -1.5170    0.0000 C.ar    1  LIG1        0.0196
     26 C           2.9080   -2.2250    0.0000 C.ar    1  LIG1       -0.0029
     27 C           3.8750   -1.9670    0.0000 C.ar    1  LIG1       -0.0218
     28 C           4.1290   -0.9960    0.0000 C.ar    1  LIG1       -0.0029
     29 C           3.4210   -0.2920    0.0000 C.ar    1  LIG1        0.0196
     30 C           4.5830   -2.6750    0.0000 C.3     1  LIG1        0.0310
     31 O           2.7580    0.2040    0.0000 O.2     1  LIG1       -0.1528
     32 O           1.3040   -0.7380    0.0000 O.2     1  LIG1       -0.1528
@<TRIPOS>BOND
     1     1     2    1
     2     1    24    1
     3     1    31    2
     4     1    32    2
     5     2     3    1
     6     2     7    1
     7     3     4    1
     8     4     5    2
     9     4     6   am
    10     7     8    1
    11     8     9    1
    12     8    23    1
    13     9    10    1
    14    10    11   ar
    15    10    14   ar
    16    11    12   ar
    17    11    22   ar
    18    12    13   ar
    19    12    19   ar
    20    13    14   ar
    21    13    18   ar
    22    14    15   ar
    23    15    16   ar
    24    16    17   ar
    25    17    18   ar
    26    19    20   ar
    27    20    21   ar
    28    21    22   ar
    29    24    25   ar
    30    24    29   ar
    31    25    26   ar
    32    26    27   ar
    33    27    28   ar
    34    27    30    1
    35    28    29   ar
