@<TRIPOS>MOLECULE
26213_ChemDiv_N081-0889
 27 29 0 0 0
SMALL
GASTEIGER
Energy = 0

@<TRIPOS>ATOM
      1 N          -0.0460    0.0250    0.0000 N.am    1  LIG1       -0.2296
      2 C          -0.6540    0.7960    0.0000 C.2     1  LIG1        0.2317
      3 C          -1.6080    0.5170    0.0000 C.3     1  LIG1        0.0905
      4 C          -1.6080   -0.5210    0.0000 C.3     1  LIG1        0.0951
      5 C          -0.6420   -0.8170    0.0000 C.2     1  LIG1        0.2318
      6 O          -0.3330   -1.7580    0.0000 O.2     1  LIG1       -0.2745
      7 C          -2.5080    1.0250    0.0000 C.3     1  LIG1        0.0359
      8 C          -3.3750    0.5170    0.0000 C.ar    1  LIG1       -0.0220
      9 C          -4.2330    1.0000    0.0000 C.ar    1  LIG1       -0.0085
     10 C          -5.0920    0.5170    0.0000 C.ar    1  LIG1       -0.0222
     11 C          -5.0920   -0.4880    0.0000 C.ar    1  LIG1       -0.0043
     12 C          -4.2210   -0.9710    0.0000 C.ar    1  LIG1       -0.0006
     13 C          -3.3750   -0.4880    0.0000 C.ar    1  LIG1       -0.0043
     14 C          -5.9460    1.0250    0.0000 C.3     1  LIG1        0.0310
     15 O          -0.3670    1.7630    0.0000 O.2     1  LIG1       -0.2745
     16 C           0.9380    0.0250    0.0000 C.3     1  LIG1        0.1055
     17 C           1.4380   -0.8790    0.0000 C.3     1  LIG1        0.0484
     18 C           2.4330   -0.8790    0.0000 C.ar    1  LIG1       -0.0172
     19 C           2.9630   -0.0210    0.0000 C.ar    1  LIG1        0.0358
     20 C           3.9460   -0.0330    0.0000 C.ar    1  LIG1        0.1721
     21 C           4.4580   -0.8920    0.0000 C.ar    1  LIG1        0.1724
     22 C           3.9380   -1.7580    0.0000 C.ar    1  LIG1        0.0397
     23 C           2.9460   -1.7460    0.0000 C.ar    1  LIG1       -0.0009
     24 O           5.4420   -0.8920    0.0000 O.3     1  LIG1       -0.4684
     25 C           5.9420   -1.7330    0.0000 C.3     1  LIG1        0.2526
     26 O           4.4330    0.8330    0.0000 O.3     1  LIG1       -0.4684
     27 C           5.4330    0.8460    0.0000 C.3     1  LIG1        0.2526
@<TRIPOS>BOND
     1     1     2   am
     2     1     5   am
     3     1    16    1
     4     2     3    1
     5     2    15    2
     6     3     4    1
     7     3     7    1
     8     4     5    1
     9     5     6    2
    10     7     8    1
    11     8     9   ar
    12     8    13   ar
    13     9    10   ar
    14    10    11   ar
    15    10    14    1
    16    11    12   ar
    17    12    13   ar
    18    16    17    1
    19    17    18    1
    20    18    19   ar
    21    18    23   ar
    22    19    20   ar
    23    20    21   ar
    24    20    26    1
    25    21    22   ar
    26    21    24    1
    27    22    23   ar
    28    24    25    1
    29    26    27    1
