@<TRIPOS>MOLECULE
26216_ChemDiv_8006-2273
 20 23 0 0 0
SMALL
GASTEIGER
Energy = 0

@<TRIPOS>ATOM
      1 N          -0.2290   -0.0380    0.0000 N.ar    1  LIG1       -0.2795
      2 C          -1.1710    0.3080    0.0000 C.ar    1  LIG1        0.0648
      3 C          -1.1130    1.3170    0.0000 C.ar    1  LIG1        0.0174
      4 C          -0.1460    1.5540    0.0000 C.ar    1  LIG1        0.0174
      5 C           0.3830    0.6960    0.0000 C.ar    1  LIG1        0.0648
      6 C           1.3880    0.7500    0.0000 C.ar    1  LIG1        0.0174
      7 C           1.8830    1.6460    0.0000 C.ar    1  LIG1        0.0015
      8 C           1.3250    2.4920    0.0000 C.ar    1  LIG1        0.0001
      9 C           0.3210    2.4710    0.0000 C.ar    1  LIG1        0.0015
     10 C          -1.9630    1.8460    0.0000 C.ar    1  LIG1        0.0015
     11 C          -2.8460    1.4040    0.0000 C.ar    1  LIG1        0.0001
     12 C          -2.9130    0.4000    0.0000 C.ar    1  LIG1        0.0015
     13 C          -2.0830   -0.1540    0.0000 C.ar    1  LIG1        0.0174
     14 C           0.0290   -1.0330    0.0000 C.3     1  LIG1        0.2578
     15 N           0.9790   -1.2880    0.0000 N.4     1  LIG1        0.3955
     16 C           1.2380   -2.2420    0.0000 C.3     1  LIG1        0.1414
     17 C           2.1920   -2.4880    0.0000 C.3     1  LIG1        0.0630
     18 C           2.9080   -1.8000    0.0000 C.3     1  LIG1        0.0123
     19 C           2.6460   -0.8630    0.0000 C.3     1  LIG1        0.0630
     20 C           1.6920   -0.5960    0.0000 C.3     1  LIG1        0.1414
@<TRIPOS>BOND
     1     1     2   ar
     2     1     5   ar
     3     1    14    1
     4     2     3   ar
     5     2    13   ar
     6     3     4   ar
     7     3    10   ar
     8     4     5   ar
     9     4     9   ar
    10     5     6   ar
    11     6     7   ar
    12     7     8   ar
    13     8     9   ar
    14    10    11   ar
    15    11    12   ar
    16    12    13   ar
    17    14    15    1
    18    15    16    1
    19    15    20    1
    20    16    17    1
    21    17    18    1
    22    18    19    1
    23    19    20    1
