@<TRIPOS>MOLECULE
26217_ChemDiv_0908-0110
 20 22 0 0 0
SMALL
GASTEIGER
Energy = 0

@<TRIPOS>ATOM
      1 N          -2.5670    2.6630    0.0000 N.4     1  LIG1        0.3736
      2 C          -2.5380    1.3420    0.0000 C.3     1  LIG1        0.0907
      3 C          -1.7170    0.9790    0.0000 C.3     1  LIG1        0.1004
      4 C          -0.8040    0.8290    0.0000 C.3     1  LIG1        0.1806
      5 O           0.0920    0.4250    0.0000 O.3     1  LIG1       -0.4488
      6 C           0.1790   -0.5920    0.0000 C.2     1  LIG1        0.3411
      7 C           1.0630   -1.0380    0.0000 C.ar    1  LIG1        0.0750
      8 C           1.9130   -0.5000    0.0000 C.ar    1  LIG1        0.0022
      9 C           2.8130   -0.9750    0.0000 C.ar    1  LIG1       -0.0220
     10 C           2.8670   -1.9710    0.0000 C.ar    1  LIG1       -0.0085
     11 C           2.0170   -2.5170    0.0000 C.ar    1  LIG1       -0.0220
     12 C           1.0920   -2.0380    0.0000 C.ar    1  LIG1        0.0022
     13 C           2.0460   -3.5210    0.0000 C.3     1  LIG1        0.0310
     14 C           3.6630   -0.4210    0.0000 C.3     1  LIG1        0.0310
     15 O          -0.6500   -1.1040    0.0000 O.2     1  LIG1       -0.2449
     16 C          -1.5210    1.4040    0.0000 C.3     1  LIG1        0.1004
     17 C          -2.3500    1.7880    0.0000 C.3     1  LIG1        0.0907
     18 C          -3.1830    1.4250    0.0000 C.3     1  LIG1        0.0627
     19 C          -3.6670    0.6380    0.0000 C.3     1  LIG1        0.0627
     20 C          -2.3130    3.5250    0.0000 C.3     1  LIG1        0.2016
@<TRIPOS>BOND
     1     1     2    1
     2     1    17    1
     3     1    20    1
     4     2     3    1
     5     2    19    1
     6     3     4    1
     7     4     5    1
     8     4    16    1
     9     5     6    1
    10     6     7    1
    11     6    15    2
    12     7     8   ar
    13     7    12   ar
    14     8     9   ar
    15     9    10   ar
    16     9    14    1
    17    10    11   ar
    18    11    12   ar
    19    11    13    1
    20    16    17    1
    21    17    18    1
    22    18    19    1
