@<TRIPOS>MOLECULE
26211_ChemDiv_N081-0775
 27 30 0 0 0
SMALL
GASTEIGER
Energy = 0

@<TRIPOS>ATOM
      1 N           0.1670    0.1250    0.0000 N.am    1  LIG1       -0.2296
      2 C          -0.4420    0.8960    0.0000 C.2     1  LIG1        0.2317
      3 C          -1.3920    0.6170    0.0000 C.3     1  LIG1        0.0905
      4 C          -1.3920   -0.4170    0.0000 C.3     1  LIG1        0.0951
      5 C          -0.4290   -0.7170    0.0000 C.2     1  LIG1        0.2318
      6 O          -0.1210   -1.6540    0.0000 O.2     1  LIG1       -0.2745
      7 C          -2.2920    1.1250    0.0000 C.3     1  LIG1        0.0359
      8 C          -3.1580    0.6170    0.0000 C.ar    1  LIG1       -0.0223
      9 C          -3.1580   -0.3830    0.0000 C.ar    1  LIG1       -0.0085
     10 C          -4.0000   -0.8670    0.0000 C.ar    1  LIG1       -0.0225
     11 C          -4.8670   -0.3830    0.0000 C.ar    1  LIG1       -0.0085
     12 C          -4.8670    0.6170    0.0000 C.ar    1  LIG1       -0.0225
     13 C          -4.0130    1.1000    0.0000 C.ar    1  LIG1       -0.0085
     14 C          -5.7210    1.1250    0.0000 C.3     1  LIG1        0.0310
     15 C          -3.9750   -1.8580    0.0000 C.3     1  LIG1        0.0310
     16 O          -0.1540    1.8630    0.0000 O.2     1  LIG1       -0.2745
     17 C           1.1500    0.1250    0.0000 C.3     1  LIG1        0.1055
     18 C           1.6500   -0.7750    0.0000 C.3     1  LIG1        0.0484
     19 C           2.6420   -0.7750    0.0000 C.ar    1  LIG1       -0.0172
     20 C           3.1670    0.0790    0.0000 C.ar    1  LIG1        0.0360
     21 C           4.1500    0.0670    0.0000 C.ar    1  LIG1        0.1761
     22 C           4.6580   -0.7880    0.0000 C.ar    1  LIG1        0.1764
     23 O           5.6420   -0.5500    0.0000 O.3     1  LIG1       -0.4346
     24 C           5.7170    0.4460    0.0000 C.3     1  LIG1        0.4294
     25 O           4.7540    0.8290    0.0000 O.3     1  LIG1       -0.4346
     26 C           4.1420   -1.6540    0.0000 C.ar    1  LIG1        0.0399
     27 C           3.1500   -1.6380    0.0000 C.ar    1  LIG1       -0.0009
@<TRIPOS>BOND
     1     1     2   am
     2     1     5   am
     3     1    17    1
     4     2     3    1
     5     2    16    2
     6     3     4    1
     7     3     7    1
     8     4     5    1
     9     5     6    2
    10     7     8    1
    11     8     9   ar
    12     8    13   ar
    13     9    10   ar
    14    10    11   ar
    15    10    15    1
    16    11    12   ar
    17    12    13   ar
    18    12    14    1
    19    17    18    1
    20    18    19    1
    21    19    20   ar
    22    19    27   ar
    23    20    21   ar
    24    21    22   ar
    25    21    25    1
    26    22    23    1
    27    22    26   ar
    28    23    24    1
    29    24    25    1
    30    26    27   ar
