@<TRIPOS>MOLECULE
26221_ChemDiv_3886-1224
 18 20 0 0 0
SMALL
GASTEIGER
Energy = 0

@<TRIPOS>ATOM
      1 N          -1.8210    0.1540    0.0000 N.4     1  LIG1        0.2980
      2 C          -2.3210    1.0130    0.0000 C.3     1  LIG1        0.0625
      3 C          -0.3540    1.0130    0.0000 C.3     1  LIG1        0.0988
      4 C           0.2500    0.1960    0.0000 C.3     1  LIG1        0.1807
      5 C          -0.3540   -0.7040    0.0000 C.3     1  LIG1        0.0988
      6 C          -2.3210   -0.7040    0.0000 C.3     1  LIG1        0.0625
      7 C          -3.2790   -0.7040    0.0000 C.3     1  LIG1        0.0611
      8 C          -3.2790    1.0130    0.0000 C.3     1  LIG1        0.0611
      9 O           0.9580    0.2540    0.0000 O.3     1  LIG1       -0.4467
     10 C           1.3130   -0.3580    0.0000 C.2     1  LIG1        0.3762
     11 C           2.0630   -0.3580    0.0000 C.ar    1  LIG1        0.2206
     12 O           2.6790   -0.7040    0.0000 O.2     1  LIG1       -0.4439
     13 C           3.2750   -0.3580    0.0000 C.ar    1  LIG1        0.1799
     14 C           3.2750    0.3460    0.0000 C.ar    1  LIG1        0.0440
     15 C           2.0630    0.3460    0.0000 C.ar    1  LIG1        0.0475
     16 O           0.9580   -1.0080    0.0000 O.2     1  LIG1       -0.2414
     17 C          -2.5210    0.1540    0.0000 C.3     1  LIG1        0.1702
     18 C          -1.1080    0.1540    0.0000 C.3     1  LIG1        0.1702
@<TRIPOS>BOND
     1     1     2    1
     2     1     6    1
     3     1    17    1
     4     1    18    1
     5     2     3    1
     6     2     8    1
     7     3     4    1
     8     4     5    1
     9     4     9    1
    10     5     6    1
    11     6     7    1
    12     7     8    1
    13     9    10    1
    14    10    11    1
    15    10    16    2
    16    11    12   ar
    17    11    15   ar
    18    12    13   ar
    19    13    14   ar
    20    14    15   ar
