@<TRIPOS>MOLECULE
26226_ChemDiv_D226-0007
 23 25 0 0 0
SMALL
GASTEIGER
Energy = 0

@<TRIPOS>ATOM
      1 C          -1.0290   -0.9040    0.0000 C.ar    1  LIG1        0.1709
      2 C          -1.0290    0.1040    0.0000 C.ar    1  LIG1        0.1557
      3 N          -0.0710    0.4000    0.0000 N.ar    1  LIG1       -0.2855
      4 C           0.4750   -0.3540    0.0000 C.ar    1  LIG1        0.2030
      5 N          -0.0710   -1.2040    0.0000 N.ar    1  LIG1       -0.1958
      6 N           1.4880   -0.4420    0.0000 N.pl3   1  LIG1       -0.2795
      7 C           1.9500   -1.3420    0.0000 C.3     1  LIG1        0.0936
      8 C           2.9000   -1.5540    0.0000 C.3     1  LIG1        0.0215
      9 C           3.6670   -0.9040    0.0000 C.3     1  LIG1        0.0018
     10 C           3.6670    0.0750    0.0000 C.3     1  LIG1        0.0018
     11 C           2.8750    0.7000    0.0000 C.3     1  LIG1        0.0215
     12 C           1.9210    0.4630    0.0000 C.3     1  LIG1        0.0936
     13 C           0.2880    1.3630    0.0000 C.3     1  LIG1        0.1974
     14 C           1.2710    1.5170    0.0000 C.2     1  LIG1        0.2839
     15 O           1.6080    2.4330    0.0000 O.2     1  LIG1       -0.2695
     16 N           1.9000    0.7750    0.0000 N.am    1  LIG1       -0.0861
     17 C          -1.8920    0.6250    0.0000 C.ar    1  LIG1        0.3019
     18 N          -2.7670    0.1040    0.0000 N.ar    1  LIG1       -0.1518
     19 C          -2.7670   -0.9040    0.0000 C.ar    1  LIG1        0.3540
     20 N          -1.8920   -1.3920    0.0000 N.ar    1  LIG1       -0.2614
     21 C          -1.8920   -2.4290    0.0000 C.3     1  LIG1        0.1367
     22 O          -3.6710   -1.3920    0.0000 O.2     1  LIG1       -0.2443
     23 O          -1.8920    1.6250    0.0000 O.2     1  LIG1       -0.2634
@<TRIPOS>BOND
     1     1     2   ar
     2     1     5   ar
     3     1    20   ar
     4     2     3   ar
     5     2    17   ar
     6     3     4   ar
     7     3    13    1
     8     4     5   ar
     9     4     6    1
    10     6     7    1
    11     6    12    1
    12     7     8    1
    13     8     9    1
    14     9    10    1
    15    10    11    1
    16    11    12    1
    17    13    14    1
    18    14    15    2
    19    14    16   am
    20    17    18   ar
    21    17    23    2
    22    18    19   ar
    23    19    20   ar
    24    19    22    2
    25    20    21    1
