@<TRIPOS>MOLECULE
26228_ChemDiv_D226-0027
 22 24 0 0 0
SMALL
GASTEIGER
Energy = 0

@<TRIPOS>ATOM
      1 C          -0.9380   -0.9420    0.0000 C.ar    1  LIG1        0.1709
      2 C          -0.9380    0.0630    0.0000 C.ar    1  LIG1        0.1557
      3 N           0.0080    0.3710    0.0000 N.ar    1  LIG1       -0.2855
      4 C           0.5750   -0.4290    0.0000 C.ar    1  LIG1        0.2032
      5 N           0.0080   -1.2540    0.0000 N.ar    1  LIG1       -0.1958
      6 N           1.5710   -0.4250    0.0000 N.pl3   1  LIG1       -0.2743
      7 C           2.0710    0.4460    0.0000 C.3     1  LIG1        0.1256
      8 C           3.0630    0.4500    0.0000 C.3     1  LIG1        0.1637
      9 O           3.5830   -0.4170    0.0000 O.3     1  LIG1       -0.3501
     10 C           3.0750   -1.2750    0.0000 C.3     1  LIG1        0.1637
     11 C           2.0750   -1.2790    0.0000 C.3     1  LIG1        0.1256
     12 C           0.3380    1.3210    0.0000 C.3     1  LIG1        0.1974
     13 C           1.3250    1.5080    0.0000 C.2     1  LIG1        0.2839
     14 O           1.9830    0.7750    0.0000 O.2     1  LIG1       -0.2695
     15 N           1.6380    2.4460    0.0000 N.am    1  LIG1       -0.0861
     16 C          -1.8130    0.5500    0.0000 C.ar    1  LIG1        0.3019
     17 N          -2.6880    0.0500    0.0000 N.ar    1  LIG1       -0.1518
     18 C          -2.6880   -0.9380    0.0000 C.ar    1  LIG1        0.3540
     19 N          -1.8130   -1.4420    0.0000 N.ar    1  LIG1       -0.2614
     20 C          -1.8130   -2.4420    0.0000 C.3     1  LIG1        0.1367
     21 O          -3.5880   -1.4170    0.0000 O.2     1  LIG1       -0.2443
     22 O          -1.8130    1.5710    0.0000 O.2     1  LIG1       -0.2634
@<TRIPOS>BOND
     1     1     2   ar
     2     1     5   ar
     3     1    19   ar
     4     2     3   ar
     5     2    16   ar
     6     3     4   ar
     7     3    12    1
     8     4     5   ar
     9     4     6    1
    10     6     7    1
    11     6    11    1
    12     7     8    1
    13     8     9    1
    14     9    10    1
    15    10    11    1
    16    12    13    1
    17    13    14    2
    18    13    15   am
    19    16    17   ar
    20    16    22    2
    21    17    18   ar
    22    18    19   ar
    23    18    21    2
    24    19    20    1
