@<TRIPOS>MOLECULE
26227_ChemDiv_N008-0005
 17 19 0 0 0
SMALL
GASTEIGER
Energy = 0

@<TRIPOS>ATOM
      1 C          -0.4290   -0.2000    0.0000 C.3     1  LIG1        0.0039
      2 C           0.4420    0.3040    0.0000 C.3     1  LIG1        0.0512
      3 C           1.3080   -0.2000    0.0000 C.3     1  LIG1        0.1693
      4 O           2.0710    0.4880    0.0000 O.3     1  LIG1       -0.4523
      5 C           1.6500    1.3750    0.0000 C.2     1  LIG1        0.3170
      6 C           0.6630    1.2960    0.0000 C.3     1  LIG1        0.1131
      7 O           2.1540    2.2290    0.0000 O.2     1  LIG1       -0.2501
      8 C           1.3080   -1.2080    0.0000 C.3     1  LIG1        0.0436
      9 C           0.4420   -1.7080    0.0000 C.3     1  LIG1        0.0037
     10 C          -0.4290   -1.2080    0.0000 C.3     1  LIG1        0.0002
     11 C          -1.2920   -1.7080    0.0000 C.3     1  LIG1        0.0000
     12 C          -2.1580   -1.2080    0.0000 C.3     1  LIG1        0.0000
     13 C          -2.1580   -0.2000    0.0000 C.3     1  LIG1        0.0000
     14 C          -1.2920    0.3040    0.0000 C.3     1  LIG1        0.0001
     15 C          -0.4460   -2.2250    0.0000 C.3     1  LIG1        0.0000
     16 C          -2.1580   -2.1790    0.0000 C.3     1  LIG1        0.0000
     17 C          -0.4130    0.7830    0.0000 C.3     1  LIG1        0.0001
@<TRIPOS>BOND
     1     1     2    1
     2     1    10    1
     3     1    14    1
     4     1    17    1
     5     2     3    1
     6     2     6    1
     7     3     4    1
     8     3     8    1
     9     4     5    1
    10     5     6    1
    11     5     7    2
    12     8     9    1
    13     9    10    1
    14    10    11    1
    15    11    12    1
    16    11    15    1
    17    11    16    1
    18    12    13    1
    19    13    14    1
