@<TRIPOS>MOLECULE
26223_ChemDiv_3886-1225
 19 21 0 0 0
SMALL
GASTEIGER
Energy = 0

@<TRIPOS>ATOM
      1 N          -2.0040    0.1830    0.0000 N.4     1  LIG1        0.2980
      2 C          -2.5250    1.0290    0.0000 C.3     1  LIG1        0.0625
      3 C          -0.4750    1.0290    0.0000 C.3     1  LIG1        0.0988
      4 C           0.1580    0.2380    0.0000 C.3     1  LIG1        0.1806
      5 C          -0.4750   -0.7170    0.0000 C.3     1  LIG1        0.0988
      6 C          -2.5250   -0.7170    0.0000 C.3     1  LIG1        0.0625
      7 C          -3.5290   -0.7170    0.0000 C.3     1  LIG1        0.0611
      8 C          -3.5290    1.0290    0.0000 C.3     1  LIG1        0.0611
      9 O           0.8960    0.2380    0.0000 O.3     1  LIG1       -0.4488
     10 C           1.2630   -0.3960    0.0000 C.2     1  LIG1        0.3411
     11 O           0.8960   -1.0250    0.0000 O.2     1  LIG1       -0.2449
     12 C           2.0540   -0.3420    0.0000 C.ar    1  LIG1        0.0756
     13 C           2.4250   -1.0250    0.0000 C.ar    1  LIG1        0.0064
     14 C           3.1540   -1.0250    0.0000 C.ar    1  LIG1        0.0002
     15 C           3.5250   -0.3420    0.0000 C.ar    1  LIG1        0.0000
     16 C           3.1540    0.2880    0.0000 C.ar    1  LIG1        0.0002
     17 C           2.4250    0.2880    0.0000 C.ar    1  LIG1        0.0064
     18 C          -2.7460    0.1830    0.0000 C.3     1  LIG1        0.1702
     19 C          -1.2670    0.1830    0.0000 C.3     1  LIG1        0.1702
@<TRIPOS>BOND
     1     1     2    1
     2     1     6    1
     3     1    18    1
     4     1    19    1
     5     2     3    1
     6     2     8    1
     7     3     4    1
     8     4     5    1
     9     4     9    1
    10     5     6    1
    11     6     7    1
    12     7     8    1
    13     9    10    1
    14    10    11    2
    15    10    12    1
    16    12    13   ar
    17    12    17   ar
    18    13    14   ar
    19    14    15   ar
    20    15    16   ar
    21    16    17   ar
