@<TRIPOS>MOLECULE
26230_ChemDiv_D226-0053
 23 25 0 0 0
SMALL
GASTEIGER
Energy = 0

@<TRIPOS>ATOM
      1 C          -0.9170   -1.2250    0.0000 C.ar    1  LIG1        0.1708
      2 C          -0.9170   -0.2290    0.0000 C.ar    1  LIG1        0.1536
      3 C          -1.7920    0.2750    0.0000 C.ar    1  LIG1        0.2832
      4 N          -2.6670   -0.2290    0.0000 N.ar    1  LIG1       -0.2454
      5 C          -2.6670   -1.2250    0.0000 C.ar    1  LIG1        0.3350
      6 N          -1.7920   -1.7250    0.0000 N.ar    1  LIG1       -0.2628
      7 C          -1.7920   -2.7130    0.0000 C.3     1  LIG1        0.1366
      8 O          -3.5500   -1.7250    0.0000 O.2     1  LIG1       -0.2461
      9 C          -3.5250    0.2670    0.0000 C.3     1  LIG1        0.1383
     10 O          -1.7920    1.2670    0.0000 O.2     1  LIG1       -0.2652
     11 N           0.0880    0.1500    0.0000 N.ar    1  LIG1       -0.2946
     12 C           0.5880   -0.7130    0.0000 C.ar    1  LIG1        0.2026
     13 N           0.0130   -1.5380    0.0000 N.ar    1  LIG1       -0.1958
     14 N           1.5880   -0.7130    0.0000 N.pl3   1  LIG1       -0.2795
     15 C           2.1750   -1.5210    0.0000 C.3     1  LIG1        0.0936
     16 C           3.1250   -1.2080    0.0000 C.3     1  LIG1        0.0233
     17 C           3.1250   -0.2130    0.0000 C.3     1  LIG1        0.0233
     18 C           2.1750    0.0960    0.0000 C.3     1  LIG1        0.0936
     19 C           0.5750    1.0000    0.0000 C.3     1  LIG1        0.1089
     20 C           1.5710    1.0000    0.0000 C.3     1  LIG1        0.0246
     21 C           2.0630    1.8540    0.0000 C.3     1  LIG1        0.0020
     22 C           3.0500    1.8540    0.0000 C.3     1  LIG1        0.0001
     23 C           3.5460    2.7130    0.0000 C.3     1  LIG1        0.0000
@<TRIPOS>BOND
     1     1     2   ar
     2     1     6   ar
     3     1    13   ar
     4     2     3   ar
     5     2    11   ar
     6     3     4   ar
     7     3    10    2
     8     4     5   ar
     9     4     9    1
    10     5     6   ar
    11     5     8    2
    12     6     7    1
    13    11    12   ar
    14    11    19    1
    15    12    13   ar
    16    12    14    1
    17    14    15    1
    18    14    18    1
    19    15    16    1
    20    16    17    1
    21    17    18    1
    22    19    20    1
    23    20    21    1
    24    21    22    1
    25    22    23    1
