@<TRIPOS>MOLECULE
26232_ChemDiv_D226-0056
 23 25 0 0 0
SMALL
GASTEIGER
Energy = 0

@<TRIPOS>ATOM
      1 C          -0.9290   -1.0580    0.0000 C.ar    1  LIG1        0.1708
      2 C          -0.9290   -0.0580    0.0000 C.ar    1  LIG1        0.1537
      3 C          -1.8130    0.4500    0.0000 C.ar    1  LIG1        0.2832
      4 N          -2.6880   -0.0580    0.0000 N.ar    1  LIG1       -0.2454
      5 C          -2.6880   -1.0580    0.0000 C.ar    1  LIG1        0.3350
      6 N          -1.8130   -1.5580    0.0000 N.ar    1  LIG1       -0.2628
      7 C          -1.8130   -2.5500    0.0000 C.3     1  LIG1        0.1366
      8 O          -3.5750   -1.5580    0.0000 O.2     1  LIG1       -0.2461
      9 C          -3.5500    0.4420    0.0000 C.3     1  LIG1        0.1383
     10 O          -1.8130    1.4420    0.0000 O.2     1  LIG1       -0.2652
     11 N           0.0790    0.3250    0.0000 N.ar    1  LIG1       -0.2920
     12 C           0.5830   -0.5460    0.0000 C.ar    1  LIG1        0.2028
     13 N           0.0130   -1.3750    0.0000 N.ar    1  LIG1       -0.1958
     14 N           1.5830   -0.5460    0.0000 N.pl3   1  LIG1       -0.2743
     15 C           2.0790   -1.4080    0.0000 C.3     1  LIG1        0.1256
     16 C           3.0710   -1.4080    0.0000 C.3     1  LIG1        0.1637
     17 O           3.5710   -0.5500    0.0000 O.3     1  LIG1       -0.3501
     18 C           3.0710    0.3250    0.0000 C.3     1  LIG1        0.1637
     19 C           2.0710    0.3250    0.0000 C.3     1  LIG1        0.1256
     20 C           0.3080    1.2000    0.0000 C.3     1  LIG1        0.1409
     21 C           1.2830    1.4000    0.0000 C.3     1  LIG1        0.1667
     22 O           1.5830    2.3500    0.0000 O.3     1  LIG1       -0.3490
     23 C           2.5460    2.5540    0.0000 C.3     1  LIG1        0.1742
@<TRIPOS>BOND
     1     1     2   ar
     2     1     6   ar
     3     1    13   ar
     4     2     3   ar
     5     2    11   ar
     6     3     4   ar
     7     3    10    2
     8     4     5   ar
     9     4     9    1
    10     5     6   ar
    11     5     8    2
    12     6     7    1
    13    11    12   ar
    14    11    20    1
    15    12    13   ar
    16    12    14    1
    17    14    15    1
    18    14    19    1
    19    15    16    1
    20    16    17    1
    21    17    18    1
    22    18    19    1
    23    20    21    1
    24    21    22    1
    25    22    23    1
