@<TRIPOS>MOLECULE
26236_ChemDiv_1030-0092
 19 21 0 0 0
SMALL
GASTEIGER
Energy = 0

@<TRIPOS>ATOM
      1 C          -1.4380   -0.4630    0.0000 C.3     1  LIG1        0.0705
      2 C          -0.4540   -0.4630    0.0000 C.2     1  LIG1        0.2412
      3 N           0.0420    0.4080    0.0000 N.am    1  LIG1       -0.1933
      4 C           1.0250    0.3920    0.0000 C.3     1  LIG1        0.1729
      5 S           1.5670   -0.4210    0.0000 S.3     1  LIG1       -0.1109
      6 C           2.5630   -0.4380    0.0000 C.3     1  LIG1        0.1007
      7 C           3.0580    0.4210    0.0000 C.2     1  LIG1        0.0613
      8 O           2.5710    1.3130    0.0000 O.co2   1  LIG1       -0.5483
      9 O           3.9920    0.4210    0.0000 O.co2   1  LIG1       -0.5483
     10 O           0.0750   -1.3080    0.0000 O.2     1  LIG1       -0.2733
     11 C          -2.2580   -0.8380    0.0000 C.3     1  LIG1        0.0087
     12 C          -3.2880   -0.4630    0.0000 C.3     1  LIG1        0.0005
     13 C          -3.2880    0.4830    0.0000 C.3     1  LIG1        0.0000
     14 C          -2.2920    0.8790    0.0000 C.3     1  LIG1        0.0005
     15 C          -1.4380    0.4420    0.0000 C.3     1  LIG1        0.0087
     16 C          -2.9710    0.0710    0.0000 C.3     1  LIG1        0.0000
     17 C          -2.9710   -0.9210    0.0000 C.3     1  LIG1        0.0005
     18 C          -2.1040   -1.2960    0.0000 C.3     1  LIG1        0.0087
     19 C          -3.9960   -1.2960    0.0000 C.3     1  LIG1        0.0000
@<TRIPOS>BOND
     1     1     2    1
     2     1    11    1
     3     1    15    1
     4     1    18    1
     5     2     3   am
     6     2    10    2
     7     3     4    1
     8     4     5    1
     9     5     6    1
    10     6     7    1
    11     7     8   ar
    12     7     9   ar
    13    11    12    1
    14    12    13    1
    15    12    19    1
    16    13    14    1
    17    14    15    1
    18    14    16    1
    19    16    17    1
    20    17    18    1
    21    17    19    1
