@<TRIPOS>MOLECULE
26234_ChemDiv_1030-0040
 22 25 0 0 0
SMALL
GASTEIGER
Energy = 0

@<TRIPOS>ATOM
      1 C          -0.8040   -0.2920    0.0000 C.ar    1  LIG1        0.0478
      2 C          -0.1920   -1.0380    0.0000 C.ar    1  LIG1        0.0398
      3 N          -0.7630   -1.8920    0.0000 N.ar    1  LIG1       -0.3285
      4 C          -1.7250   -1.6130    0.0000 C.ar    1  LIG1        0.0598
      5 C          -1.7250   -0.5830    0.0000 C.ar    1  LIG1        0.0196
      6 C          -2.5880   -0.0710    0.0000 C.ar    1  LIG1        0.0016
      7 C          -3.4540   -0.5830    0.0000 C.ar    1  LIG1        0.0001
      8 C          -3.4540   -1.6130    0.0000 C.ar    1  LIG1        0.0015
      9 C          -2.5880   -2.0960    0.0000 C.ar    1  LIG1        0.0172
     10 C          -0.4580   -2.8380    0.0000 C.3     1  LIG1        0.1301
     11 C           0.8210   -0.8960    0.0000 C.3     1  LIG1        0.0444
     12 C           1.1920    0.0460    0.0000 C.3     1  LIG1        0.0159
     13 C           0.5460    0.8330    0.0000 C.3     1  LIG1        0.0849
     14 C          -0.4580    0.6540    0.0000 C.2     1  LIG1        0.1756
     15 O          -1.1000    1.4250    0.0000 O.2     1  LIG1       -0.2912
     16 C           0.8830    1.7790    0.0000 C.3     1  LIG1        0.1149
     17 N           1.8500    1.9540    0.0000 N.ar    1  LIG1       -0.3132
     18 C           2.5920    1.2790    0.0000 C.ar    1  LIG1        0.1208
     19 N           3.4500    1.8000    0.0000 N.ar    1  LIG1       -0.2293
     20 C           3.2290    2.7420    0.0000 C.ar    1  LIG1        0.1188
     21 C           2.2380    2.8420    0.0000 C.ar    1  LIG1        0.0977
     22 C           2.5080    0.2960    0.0000 C.3     1  LIG1        0.0718
@<TRIPOS>BOND
     1     1     2   ar
     2     1     5   ar
     3     1    14    1
     4     2     3   ar
     5     2    11    1
     6     3     4   ar
     7     3    10    1
     8     4     5   ar
     9     4     9   ar
    10     5     6   ar
    11     6     7   ar
    12     7     8   ar
    13     8     9   ar
    14    11    12    1
    15    12    13    1
    16    13    14    1
    17    13    16    1
    18    14    15    2
    19    16    17    1
    20    17    18   ar
    21    17    21   ar
    22    18    19   ar
    23    18    22    1
    24    19    20   ar
    25    20    21   ar
