@<TRIPOS>MOLECULE
26249_ChemDiv_3886-1255
 25 27 0 0 0
SMALL
GASTEIGER
Energy = 0

@<TRIPOS>ATOM
      1 N          -2.5750   -1.7580    0.0000 N.4     1  LIG1        0.2975
      2 C          -2.5750   -0.7710    0.0000 C.3     1  LIG1        0.0620
      3 C          -1.7290   -0.2790    0.0000 C.3     1  LIG1        0.0935
      4 C          -1.7290    0.7750    0.0000 C.3     1  LIG1        0.2144
      5 O          -0.8830    1.2710    0.0000 O.3     1  LIG1       -0.4451
      6 C           0.0330    0.7750    0.0000 C.2     1  LIG1        0.3442
      7 C           0.8790    1.2710    0.0000 C.ar    1  LIG1        0.1097
      8 C           0.8790    2.2500    0.0000 C.ar    1  LIG1        0.1479
      9 C           1.7250    2.7500    0.0000 C.ar    1  LIG1        0.0740
     10 C           2.6420    2.2500    0.0000 C.ar    1  LIG1        0.1418
     11 C           2.6420    1.2710    0.0000 C.ar    1  LIG1        0.0373
     12 C           1.7250    0.7750    0.0000 C.ar    1  LIG1        0.0126
     13 O           3.4830    2.7500    0.0000 O.3     1  LIG1       -0.4713
     14 C           4.3290    2.2500    0.0000 C.3     1  LIG1        0.2525
     15 O           0.0330    2.7500    0.0000 O.3     1  LIG1       -0.4711
     16 C          -0.8830    2.2500    0.0000 C.3     1  LIG1        0.2525
     17 O           0.0330   -0.2790    0.0000 O.2     1  LIG1       -0.2448
     18 C          -0.8830   -0.7710    0.0000 C.3     1  LIG1        0.0155
     19 C          -0.8830   -1.7580    0.0000 C.3     1  LIG1        0.0614
     20 C          -1.7290   -2.2540    0.0000 C.3     1  LIG1        0.1084
     21 C          -3.4170   -0.2790    0.0000 C.3     1  LIG1        0.0554
     22 C          -4.3330   -0.7710    0.0000 C.3     1  LIG1        0.0120
     23 C          -4.3330   -1.7580    0.0000 C.3     1  LIG1        0.0612
     24 C          -3.4170   -2.2540    0.0000 C.3     1  LIG1        0.1084
     25 C          -2.5750   -2.7460    0.0000 C.3     1  LIG1        0.1702
@<TRIPOS>BOND
     1     1     2    1
     2     1    20    1
     3     1    24    1
     4     1    25    1
     5     2     3    1
     6     2    21    1
     7     3     4    1
     8     3    18    1
     9     4     5    1
    10     5     6    1
    11     6     7    1
    12     6    17    2
    13     7     8   ar
    14     7    12   ar
    15     8     9   ar
    16     8    15    1
    17     9    10   ar
    18    10    11   ar
    19    10    13    1
    20    11    12   ar
    21    13    14    1
    22    15    16    1
    23    18    19    1
    24    19    20    1
    25    21    22    1
    26    22    23    1
    27    23    24    1
