@<TRIPOS>MOLECULE
26245_ChemDiv_3886-1251
 26 28 0 0 0
SMALL
GASTEIGER
Energy = 0

@<TRIPOS>ATOM
      1 N          -3.0830   -1.8170    0.0000 N.4     1  LIG1        0.2975
      2 C          -3.0830   -0.8380    0.0000 C.3     1  LIG1        0.0620
      3 C          -2.2420   -0.3500    0.0000 C.3     1  LIG1        0.0935
      4 C          -2.2420    0.7000    0.0000 C.3     1  LIG1        0.2144
      5 O          -1.1920    1.3330    0.0000 O.3     1  LIG1       -0.4452
      6 C          -0.2830    1.8170    0.0000 C.2     1  LIG1        0.3412
      7 C           0.5580    1.3330    0.0000 C.ar    1  LIG1        0.0758
      8 C           0.5580    0.2830    0.0000 C.ar    1  LIG1        0.0096
      9 C           1.4000   -0.2040    0.0000 C.ar    1  LIG1        0.0371
     10 C           2.2380    0.2830    0.0000 C.ar    1  LIG1        0.1386
     11 O           3.1460   -0.2040    0.0000 O.3     1  LIG1       -0.4755
     12 C           3.1460   -1.1880    0.0000 C.3     1  LIG1        0.2053
     13 C           3.9880   -1.6790    0.0000 C.3     1  LIG1        0.0438
     14 C           3.9880   -2.6580    0.0000 C.3     1  LIG1        0.0038
     15 C           4.8290   -1.1880    0.0000 C.3     1  LIG1        0.0038
     16 C           2.2380    1.3330    0.0000 C.ar    1  LIG1        0.0371
     17 C           1.4000    1.8170    0.0000 C.ar    1  LIG1        0.0096
     18 O          -0.2830    2.8000    0.0000 O.2     1  LIG1       -0.2449
     19 C          -1.4000   -0.8380    0.0000 C.3     1  LIG1        0.0155
     20 C          -1.4000   -1.8170    0.0000 C.3     1  LIG1        0.0614
     21 C          -2.2420   -2.3080    0.0000 C.3     1  LIG1        0.1084
     22 C          -3.9210   -0.3500    0.0000 C.3     1  LIG1        0.0554
     23 C          -4.8330   -0.8380    0.0000 C.3     1  LIG1        0.0120
     24 C          -4.8330   -1.8170    0.0000 C.3     1  LIG1        0.0612
     25 C          -3.9210   -2.3080    0.0000 C.3     1  LIG1        0.1084
     26 C          -3.0830   -2.7960    0.0000 C.3     1  LIG1        0.1702
@<TRIPOS>BOND
     1     1     2    1
     2     1    21    1
     3     1    25    1
     4     1    26    1
     5     2     3    1
     6     2    22    1
     7     3     4    1
     8     3    19    1
     9     4     5    1
    10     5     6    1
    11     6     7    1
    12     6    18    2
    13     7     8   ar
    14     7    17   ar
    15     8     9   ar
    16     9    10   ar
    17    10    11    1
    18    10    16   ar
    19    11    12    1
    20    12    13    1
    21    13    14    1
    22    13    15    1
    23    16    17   ar
    24    19    20    1
    25    20    21    1
    26    22    23    1
    27    23    24    1
    28    24    25    1
