@<TRIPOS>MOLECULE
26241_ChemDiv_3886-1226
 21 23 0 0 0
SMALL
GASTEIGER
Energy = 0

@<TRIPOS>ATOM
      1 N          -2.6540    0.1630    0.0000 N.4     1  LIG1        0.3736
      2 C          -3.1790    1.0880    0.0000 C.3     1  LIG1        0.0907
      3 C          -1.7250    1.0880    0.0000 C.3     1  LIG1        0.1004
      4 C          -1.0830    0.2210    0.0000 C.3     1  LIG1        0.1806
      5 C          -1.7250   -0.7670    0.0000 C.3     1  LIG1        0.1004
      6 C          -3.1790   -0.7670    0.0000 C.3     1  LIG1        0.0907
      7 C          -4.4880   -0.7250    0.0000 C.3     1  LIG1        0.0627
      8 C          -4.4880    1.1290    0.0000 C.3     1  LIG1        0.0627
      9 O          -0.2750    0.2210    0.0000 O.3     1  LIG1       -0.4488
     10 C           0.1290   -0.4880    0.0000 C.2     1  LIG1        0.3411
     11 C           0.9420   -0.4290    0.0000 C.ar    1  LIG1        0.0758
     12 C           1.3500   -1.1250    0.0000 C.ar    1  LIG1        0.0096
     13 C           2.1040   -1.1250    0.0000 C.ar    1  LIG1        0.0371
     14 C           2.5080   -0.4290    0.0000 C.ar    1  LIG1        0.1386
     15 C           2.1040    0.2670    0.0000 C.ar    1  LIG1        0.0371
     16 C           1.3500    0.2670    0.0000 C.ar    1  LIG1        0.0096
     17 O           3.3250   -0.4290    0.0000 O.3     1  LIG1       -0.4755
     18 C           3.7250   -1.1250    0.0000 C.3     1  LIG1        0.2055
     19 C           4.4830   -1.1250    0.0000 C.3     1  LIG1        0.0512
     20 O          -0.2130   -1.1250    0.0000 O.2     1  LIG1       -0.2449
     21 C          -3.6330    0.1630    0.0000 C.3     1  LIG1        0.2016
@<TRIPOS>BOND
     1     1     2    1
     2     1     6    1
     3     1    21    1
     4     2     3    1
     5     2     8    1
     6     3     4    1
     7     4     5    1
     8     4     9    1
     9     5     6    1
    10     6     7    1
    11     7     8    1
    12     9    10    1
    13    10    11    1
    14    10    20    2
    15    11    12   ar
    16    11    16   ar
    17    12    13   ar
    18    13    14   ar
    19    14    15   ar
    20    14    17    1
    21    15    16   ar
    22    17    18    1
    23    18    19    1
