@<TRIPOS>MOLECULE
26243_ChemDiv_3886-1250
 25 27 0 0 0
SMALL
GASTEIGER
Energy = 0

@<TRIPOS>ATOM
      1 N          -2.7290   -1.8130    0.0000 N.4     1  LIG1        0.2975
      2 C          -2.7290   -0.8380    0.0000 C.3     1  LIG1        0.0620
      3 C          -1.8210   -0.3460    0.0000 C.3     1  LIG1        0.0935
      4 C          -1.8210    0.6290    0.0000 C.3     1  LIG1        0.2144
      5 O          -0.8420    1.2540    0.0000 O.3     1  LIG1       -0.4452
      6 C           0.1380    1.8130    0.0000 C.2     1  LIG1        0.3412
      7 C           0.9750    1.3290    0.0000 C.ar    1  LIG1        0.0758
      8 C           0.9750    0.2830    0.0000 C.ar    1  LIG1        0.0096
      9 C           1.8830   -0.2000    0.0000 C.ar    1  LIG1        0.0371
     10 C           2.7250    0.2830    0.0000 C.ar    1  LIG1        0.1384
     11 O           3.5630   -0.2000    0.0000 O.3     1  LIG1       -0.4792
     12 C           3.5630   -1.1880    0.0000 C.3     1  LIG1        0.1661
     13 C           4.4000   -1.6750    0.0000 C.3     1  LIG1        0.0472
     14 C           2.7250   -1.6750    0.0000 C.3     1  LIG1        0.0472
     15 C           2.7250    1.3290    0.0000 C.ar    1  LIG1        0.0371
     16 C           1.8830    1.8130    0.0000 C.ar    1  LIG1        0.0096
     17 O           0.1380    2.7960    0.0000 O.2     1  LIG1       -0.2449
     18 C          -0.9790   -0.8380    0.0000 C.3     1  LIG1        0.0155
     19 C          -0.9790   -1.8130    0.0000 C.3     1  LIG1        0.0614
     20 C          -1.8210   -2.3040    0.0000 C.3     1  LIG1        0.1084
     21 C          -3.5670   -0.3460    0.0000 C.3     1  LIG1        0.0554
     22 C          -4.4040   -0.8380    0.0000 C.3     1  LIG1        0.0120
     23 C          -4.4040   -1.8130    0.0000 C.3     1  LIG1        0.0612
     24 C          -3.5670   -2.3040    0.0000 C.3     1  LIG1        0.1084
     25 C          -2.7290   -2.7920    0.0000 C.3     1  LIG1        0.1702
@<TRIPOS>BOND
     1     1     2    1
     2     1    20    1
     3     1    24    1
     4     1    25    1
     5     2     3    1
     6     2    21    1
     7     3     4    1
     8     3    18    1
     9     4     5    1
    10     5     6    1
    11     6     7    1
    12     6    17    2
    13     7     8   ar
    14     7    16   ar
    15     8     9   ar
    16     9    10   ar
    17    10    11    1
    18    10    15   ar
    19    11    12    1
    20    12    13    1
    21    12    14    1
    22    15    16   ar
    23    18    19    1
    24    19    20    1
    25    21    22    1
    26    22    23    1
    27    23    24    1
