@<TRIPOS>MOLECULE
26247_ChemDiv_3886-1253
 24 26 0 0 0
SMALL
GASTEIGER
Energy = 0

@<TRIPOS>ATOM
      1 N          -2.9920   -1.7580    0.0000 N.4     1  LIG1        0.3729
      2 C          -2.9920   -0.7750    0.0000 C.3     1  LIG1        0.0868
      3 C          -2.1460   -0.2830    0.0000 C.3     1  LIG1        0.0551
      4 C          -2.1460    0.7710    0.0000 C.3     1  LIG1        0.0532
      5 C          -1.3080    1.2710    0.0000 C.3     1  LIG1        0.2090
      6 O          -0.3920    0.7710    0.0000 O.3     1  LIG1       -0.4454
      7 C           0.4580    1.2710    0.0000 C.2     1  LIG1        0.3412
      8 C           1.2960    0.7710    0.0000 C.ar    1  LIG1        0.0758
      9 C           1.2960   -0.2830    0.0000 C.ar    1  LIG1        0.0096
     10 C           2.2130   -0.7750    0.0000 C.ar    1  LIG1        0.0371
     11 C           3.0540   -0.2830    0.0000 C.ar    1  LIG1        0.1386
     12 C           3.0540    0.7710    0.0000 C.ar    1  LIG1        0.0371
     13 C           2.2130    1.2710    0.0000 C.ar    1  LIG1        0.0096
     14 O           3.9000   -0.7750    0.0000 O.3     1  LIG1       -0.4755
     15 C           3.9000   -1.7580    0.0000 C.3     1  LIG1        0.2055
     16 C           4.7500   -2.2540    0.0000 C.3     1  LIG1        0.0512
     17 O           0.4580    2.2580    0.0000 O.2     1  LIG1       -0.2449
     18 C          -1.3080   -0.7750    0.0000 C.3     1  LIG1        0.0120
     19 C          -1.3080   -1.7580    0.0000 C.3     1  LIG1        0.0629
     20 C          -2.1460   -2.2540    0.0000 C.3     1  LIG1        0.1383
     21 C          -3.8380   -0.2830    0.0000 C.3     1  LIG1        0.0569
     22 C          -4.7540   -0.7750    0.0000 C.3     1  LIG1        0.0120
     23 C          -4.7540   -1.7580    0.0000 C.3     1  LIG1        0.0629
     24 C          -3.8380   -2.2540    0.0000 C.3     1  LIG1        0.1383
@<TRIPOS>BOND
     1     1     2    1
     2     1    20    1
     3     1    24    1
     4     2     3    1
     5     2    21    1
     6     3     4    1
     7     3    18    1
     8     4     5    1
     9     5     6    1
    10     6     7    1
    11     7     8    1
    12     7    17    2
    13     8     9   ar
    14     8    13   ar
    15     9    10   ar
    16    10    11   ar
    17    11    12   ar
    18    11    14    1
    19    12    13   ar
    20    14    15    1
    21    15    16    1
    22    18    19    1
    23    19    20    1
    24    21    22    1
    25    22    23    1
    26    23    24    1
