@<TRIPOS>MOLECULE
26251_ChemDiv_3886-1256
 28 30 0 0 0
SMALL
GASTEIGER
Energy = 0

@<TRIPOS>ATOM
      1 N          -4.1830   -2.4460    0.0000 N.4     1  LIG1        0.2975
      2 C          -4.1830   -1.4790    0.0000 C.3     1  LIG1        0.0620
      3 C          -3.3000   -1.0000    0.0000 C.3     1  LIG1        0.0935
      4 C          -3.3000   -0.0330    0.0000 C.3     1  LIG1        0.2144
      5 O          -2.4920    0.4420    0.0000 O.3     1  LIG1       -0.4452
      6 C          -1.6130   -0.0330    0.0000 C.2     1  LIG1        0.3413
      7 C          -0.8040    0.4420    0.0000 C.ar    1  LIG1        0.0789
      8 C          -0.8040    1.4130    0.0000 C.ar    1  LIG1        0.0465
      9 C           0.0750    1.8960    0.0000 C.ar    1  LIG1        0.1726
     10 C           0.8830    1.4130    0.0000 C.ar    1  LIG1        0.1722
     11 C           0.8830    0.4420    0.0000 C.ar    1  LIG1        0.0403
     12 C           0.0750   -0.0330    0.0000 C.ar    1  LIG1        0.0098
     13 O           1.8460    1.9670    0.0000 O.3     1  LIG1       -0.4724
     14 C           2.8830    1.4130    0.0000 C.3     1  LIG1        0.2056
     15 C           3.8500    1.9670    0.0000 C.3     1  LIG1        0.0473
     16 C           4.8130    1.4130    0.0000 C.3     1  LIG1        0.0038
     17 C           5.8630    1.9670    0.0000 C.3     1  LIG1        0.0001
     18 O           0.0750    2.9290    0.0000 O.3     1  LIG1       -0.4684
     19 C          -0.8040    3.4130    0.0000 C.3     1  LIG1        0.2526
     20 O          -1.6130   -1.0000    0.0000 O.2     1  LIG1       -0.2449
     21 C          -2.4920   -1.4790    0.0000 C.3     1  LIG1        0.0155
     22 C          -2.4920   -2.4460    0.0000 C.3     1  LIG1        0.0614
     23 C          -3.3000   -2.9250    0.0000 C.3     1  LIG1        0.1084
     24 C          -4.9880   -1.0000    0.0000 C.3     1  LIG1        0.0554
     25 C          -5.8670   -1.4790    0.0000 C.3     1  LIG1        0.0120
     26 C          -5.8670   -2.4460    0.0000 C.3     1  LIG1        0.0612
     27 C          -4.9880   -2.9250    0.0000 C.3     1  LIG1        0.1084
     28 C          -4.1830   -3.4080    0.0000 C.3     1  LIG1        0.1702
@<TRIPOS>BOND
     1     1     2    1
     2     1    23    1
     3     1    27    1
     4     1    28    1
     5     2     3    1
     6     2    24    1
     7     3     4    1
     8     3    21    1
     9     4     5    1
    10     5     6    1
    11     6     7    1
    12     6    20    2
    13     7     8   ar
    14     7    12   ar
    15     8     9   ar
    16     9    10   ar
    17     9    18    1
    18    10    11   ar
    19    10    13    1
    20    11    12   ar
    21    13    14    1
    22    14    15    1
    23    15    16    1
    24    16    17    1
    25    18    19    1
    26    21    22    1
    27    22    23    1
    28    24    25    1
    29    25    26    1
    30    26    27    1
