@<TRIPOS>MOLECULE
26255_ChemDiv_4480-0826
 18 20 0 0 0
SMALL
GASTEIGER
Energy = 0

@<TRIPOS>ATOM
      1 N          -1.3420    2.8540    0.0000 N.4     1  LIG1        0.3736
      2 C          -0.7290    2.3080    0.0000 C.3     1  LIG1        0.0907
      3 C           0.3130    2.3080    0.0000 C.3     1  LIG1        0.1004
      4 C           0.7460    1.3580    0.0000 C.3     1  LIG1        0.1806
      5 C           0.0920    1.8420    0.0000 C.3     1  LIG1        0.1004
      6 C          -0.9540    1.8420    0.0000 C.3     1  LIG1        0.0907
      7 C          -2.0380    1.0960    0.0000 C.3     1  LIG1        0.0627
      8 C          -1.7540    1.7500    0.0000 C.3     1  LIG1        0.0627
      9 O           0.7460    0.5210    0.0000 O.3     1  LIG1       -0.4488
     10 C           1.2670   -0.2000    0.0000 C.2     1  LIG1        0.3411
     11 O           2.2580   -0.2000    0.0000 O.2     1  LIG1       -0.2449
     12 C           0.7460   -1.0500    0.0000 C.ar    1  LIG1        0.0756
     13 C           1.1710   -1.9670    0.0000 C.ar    1  LIG1        0.0064
     14 C           0.6540   -2.8500    0.0000 C.ar    1  LIG1        0.0002
     15 C          -0.3790   -2.8500    0.0000 C.ar    1  LIG1        0.0000
     16 C          -0.8460   -1.9000    0.0000 C.ar    1  LIG1        0.0002
     17 C          -0.3420   -1.0500    0.0000 C.ar    1  LIG1        0.0064
     18 C          -2.2630    2.4000    0.0000 C.3     1  LIG1        0.2016
@<TRIPOS>BOND
     1     1     2    1
     2     1     6    1
     3     1    18    1
     4     2     3    1
     5     2     8    1
     6     3     4    1
     7     4     5    1
     8     4     9    1
     9     5     6    1
    10     6     7    1
    11     7     8    1
    12     9    10    1
    13    10    11    2
    14    10    12    1
    15    12    13   ar
    16    12    17   ar
    17    13    14   ar
    18    14    15   ar
    19    15    16   ar
    20    16    17   ar
