@<TRIPOS>MOLECULE
26256_ChemDiv_1134-0117
 18 19 0 0 0
SMALL
GASTEIGER
Energy = 0

@<TRIPOS>ATOM
      1 C           1.0170    0.0500    0.0000 C.ar    1  LIG1        0.3316
      2 N           0.4080    0.8170    0.0000 N.ar    1  LIG1       -0.2788
      3 C          -0.5330    0.5210    0.0000 C.ar    1  LIG1        0.0797
      4 C          -0.5330   -0.5040    0.0000 C.ar    1  LIG1        0.0797
      5 N           0.4290   -0.7960    0.0000 N.ar    1  LIG1       -0.2788
      6 C           0.7460   -1.7380    0.0000 C.3     1  LIG1        0.1267
      7 C           1.7080   -1.9460    0.0000 C.3     1  LIG1        0.1299
      8 C           2.0000   -2.8960    0.0000 C.1     1  LIG1        0.0752
      9 N           2.2880   -3.8460    0.0000 N.1     1  LIG1       -0.1958
     10 C          -1.4130   -1.0130    0.0000 C.ar    1  LIG1        0.0188
     11 C          -2.2920   -0.5040    0.0000 C.ar    1  LIG1        0.0016
     12 C          -2.2920    0.5210    0.0000 C.ar    1  LIG1        0.0016
     13 C          -1.4130    1.0250    0.0000 C.ar    1  LIG1        0.0188
     14 C           0.7000    1.7710    0.0000 C.3     1  LIG1        0.1267
     15 C           1.6670    1.9830    0.0000 C.3     1  LIG1        0.1299
     16 C           1.9670    2.9290    0.0000 C.1     1  LIG1        0.0752
     17 N           2.2710    3.8500    0.0000 N.1     1  LIG1       -0.1958
     18 O           2.0000    0.0500    0.0000 O.2     1  LIG1       -0.2463
@<TRIPOS>BOND
     1     1     2   ar
     2     1     5   ar
     3     1    18    2
     4     2     3   ar
     5     2    14    1
     6     3     4   ar
     7     3    13   ar
     8     4     5   ar
     9     4    10   ar
    10     5     6    1
    11     6     7    1
    12     7     8    1
    13     8     9    3
    14    10    11   ar
    15    11    12   ar
    16    12    13   ar
    17    14    15    1
    18    15    16    1
    19    16    17    3
