@<TRIPOS>MOLECULE
26253_ChemDiv_4480-0802
 19 21 0 0 0
SMALL
GASTEIGER
Energy = 0

@<TRIPOS>ATOM
      1 N          -3.5540    0.3290    0.0000 N.4     1  LIG1        0.3736
      2 C          -3.0540    1.1880    0.0000 C.3     1  LIG1        0.0907
      3 C          -2.1420    1.1880    0.0000 C.3     1  LIG1        0.1004
      4 C          -1.5630    0.3790    0.0000 C.3     1  LIG1        0.1806
      5 C          -2.1080   -0.4380    0.0000 C.3     1  LIG1        0.1004
      6 C          -2.9830   -0.4380    0.0000 C.3     1  LIG1        0.0907
      7 C          -4.0170   -0.4380    0.0000 C.3     1  LIG1        0.0627
      8 C          -4.0170    1.1880    0.0000 C.3     1  LIG1        0.0627
      9 O          -0.5420    0.3790    0.0000 O.3     1  LIG1       -0.4488
     10 C           0.0000   -0.3420    0.0000 C.2     1  LIG1        0.3411
     11 C           1.0000   -0.3420    0.0000 C.ar    1  LIG1        0.0757
     12 C           1.5170   -1.1830    0.0000 C.ar    1  LIG1        0.0073
     13 C           2.5250   -1.1830    0.0000 C.ar    1  LIG1        0.0116
     14 C           3.0210   -0.3170    0.0000 C.ar    1  LIG1        0.0577
     15 C           2.5040    0.5250    0.0000 C.ar    1  LIG1        0.0116
     16 C           1.4670    0.5330    0.0000 C.ar    1  LIG1        0.0073
     17 CL          4.0130   -0.3170    0.0000 Cl      1  LIG1       -0.0822
     18 O          -0.5290   -1.1830    0.0000 O.2     1  LIG1       -0.2449
     19 C          -2.8210    0.3290    0.0000 C.3     1  LIG1        0.2016
@<TRIPOS>BOND
     1     1     2    1
     2     1     6    1
     3     1    19    1
     4     2     3    1
     5     2     8    1
     6     3     4    1
     7     4     5    1
     8     4     9    1
     9     5     6    1
    10     6     7    1
    11     7     8    1
    12     9    10    1
    13    10    11    1
    14    10    18    2
    15    11    12   ar
    16    11    16   ar
    17    12    13   ar
    18    13    14   ar
    19    14    15   ar
    20    14    17    1
    21    15    16   ar
