@<TRIPOS>MOLECULE
26260_ChemDiv_8008-8018
 26 29 0 0 0
SMALL
GASTEIGER
Energy = 0

@<TRIPOS>ATOM
      1 N          -0.9130    0.8710    0.0000 N.am    1  LIG1       -0.2011
      2 C          -1.4920    1.6790    0.0000 C.2     1  LIG1        0.2589
      3 C          -2.4750    1.3080    0.0000 C.ar    1  LIG1        0.0600
      4 C          -2.4420    0.3250    0.0000 C.ar    1  LIG1        0.0588
      5 C          -1.4460    0.0540    0.0000 C.2     1  LIG1        0.2589
      6 O          -1.0960   -0.8750    0.0000 O.2     1  LIG1       -0.2691
      7 C          -3.2710   -0.2130    0.0000 C.ar    1  LIG1        0.0061
      8 C          -4.1880    0.2710    0.0000 C.ar    1  LIG1        0.0182
      9 C          -4.2210    1.2500    0.0000 C.ar    1  LIG1        0.0892
     10 C          -3.3420    1.7750    0.0000 C.ar    1  LIG1        0.0227
     11 N          -5.1080    1.6790    0.0000 N.pl3   1  LIG1       -0.1281
     12 O          -1.2330    2.6250    0.0000 O.2     1  LIG1       -0.2691
     13 C           0.0830    0.8710    0.0000 C.ar    1  LIG1        0.0613
     14 C           0.5960    0.0130    0.0000 C.ar    1  LIG1        0.0158
     15 C           1.5960    0.0130    0.0000 C.ar    1  LIG1        0.0078
     16 C           2.1130    0.8710    0.0000 C.ar    1  LIG1        0.0295
     17 S           3.1040    0.8710    0.0000 S.3     1  LIG1       -0.0869
     18 C           3.6000    0.0130    0.0000 C.ar    1  LIG1        0.0295
     19 C           4.5920   -0.0040    0.0000 C.ar    1  LIG1        0.0079
     20 C           5.1040   -0.8750    0.0000 C.ar    1  LIG1        0.0186
     21 C           4.6130   -1.7500    0.0000 C.ar    1  LIG1        0.0891
     22 N           5.0920   -2.6210    0.0000 N.pl3   1  LIG1       -0.1281
     23 C           3.6170   -1.7330    0.0000 C.ar    1  LIG1        0.0186
     24 C           3.1040   -0.8630    0.0000 C.ar    1  LIG1        0.0079
     25 C           1.5960    1.7250    0.0000 C.ar    1  LIG1        0.0078
     26 C           0.5960    1.7250    0.0000 C.ar    1  LIG1        0.0158
@<TRIPOS>BOND
     1     1     2   am
     2     1     5   am
     3     1    13    1
     4     2     3    1
     5     2    12    2
     6     3     4   ar
     7     3    10   ar
     8     4     5    1
     9     4     7   ar
    10     5     6    2
    11     7     8   ar
    12     8     9   ar
    13     9    10   ar
    14     9    11    1
    15    13    14   ar
    16    13    26   ar
    17    14    15   ar
    18    15    16   ar
    19    16    17    1
    20    16    25   ar
    21    17    18    1
    22    18    19   ar
    23    18    24   ar
    24    19    20   ar
    25    20    21   ar
    26    21    22    1
    27    21    23   ar
    28    23    24   ar
    29    25    26   ar
