@<TRIPOS>MOLECULE
26262_ChemDiv_1038-3702
 28 32 0 0 0
SMALL
GASTEIGER
Energy = 0

@<TRIPOS>ATOM
      1 S           2.6080    0.1880    0.0000 S.O2    1  LIG1        0.0634
      2 N           3.5790    0.3750    0.0000 N.3     1  LIG1       -0.1504
      3 C           3.9170    1.2960    0.0000 C.3     1  LIG1        0.1279
      4 C           4.9170    1.4580    0.0000 C.3     1  LIG1        0.1613
      5 O           5.5380    0.7000    0.0000 O.3     1  LIG1       -0.3507
      6 C           5.1960   -0.2170    0.0000 C.3     1  LIG1        0.1613
      7 C           4.2130   -0.3710    0.0000 C.3     1  LIG1        0.1279
      8 C           1.6130    0.0000    0.0000 C.ar    1  LIG1        0.1222
      9 C           0.9630    0.7540    0.0000 C.ar    1  LIG1        0.0201
     10 C          -0.0380    0.5790    0.0000 C.ar    1  LIG1        0.0059
     11 C          -0.3750   -0.3670    0.0000 C.ar    1  LIG1        0.0551
     12 C          -1.3460   -0.5210    0.0000 C.2     1  LIG1        0.2647
     13 N          -2.0000    0.2250    0.0000 N.am    1  LIG1       -0.2051
     14 C          -2.9670    0.0380    0.0000 C.3     1  LIG1        0.0789
     15 C          -3.7880   -0.3460    0.0000 C.3     1  LIG1        0.0200
     16 C          -4.8580    0.0380    0.0000 C.3     1  LIG1        0.0017
     17 C          -4.8580    0.9040    0.0000 C.3     1  LIG1        0.0001
     18 C          -3.9580    1.2960    0.0000 C.3     1  LIG1        0.0017
     19 C          -2.9670    0.9540    0.0000 C.3     1  LIG1        0.0200
     20 C          -4.4880    0.6920    0.0000 C.3     1  LIG1        0.0001
     21 C          -4.4790   -0.5210    0.0000 C.3     1  LIG1        0.0017
     22 C          -3.6420   -0.8130    0.0000 C.3     1  LIG1        0.0200
     23 C          -5.5420   -0.8130    0.0000 C.3     1  LIG1        0.0001
     24 O          -1.7170   -1.4540    0.0000 O.2     1  LIG1       -0.2684
     25 C           0.2710   -1.1380    0.0000 C.ar    1  LIG1        0.0059
     26 C           1.2670   -0.9420    0.0000 C.ar    1  LIG1        0.0201
     27 O           2.8330   -0.7920    0.0000 O.2     1  LIG1       -0.1528
     28 O           2.4250    1.1960    0.0000 O.2     1  LIG1       -0.1528
@<TRIPOS>BOND
     1     1     2    1
     2     1     8    1
     3     1    27    2
     4     1    28    2
     5     2     3    1
     6     2     7    1
     7     3     4    1
     8     4     5    1
     9     5     6    1
    10     6     7    1
    11     8     9   ar
    12     8    26   ar
    13     9    10   ar
    14    10    11   ar
    15    11    12    1
    16    11    25   ar
    17    12    13   am
    18    12    24    2
    19    13    14    1
    20    14    15    1
    21    14    19    1
    22    14    22    1
    23    15    16    1
    24    16    17    1
    25    16    23    1
    26    17    18    1
    27    18    19    1
    28    18    20    1
    29    20    21    1
    30    21    22    1
    31    21    23    1
    32    25    26   ar
