@<TRIPOS>MOLECULE
26275_ChemDiv_8008-9711
 20 22 0 0 0
SMALL
GASTEIGER
Energy = 0

@<TRIPOS>ATOM
      1 N          -0.4330   -2.7500    0.0000 N.4     1  LIG1        0.3730
      2 C          -0.4330   -1.7500    0.0000 C.3     1  LIG1        0.0903
      3 C           0.4290   -1.2540    0.0000 C.3     1  LIG1        0.0951
      4 C           0.4290   -0.2540    0.0000 C.3     1  LIG1        0.2144
      5 O          -0.4330    0.2460    0.0000 O.3     1  LIG1       -0.4452
      6 C          -0.4330    1.2500    0.0000 C.2     1  LIG1        0.3412
      7 O          -1.3000    1.7500    0.0000 O.2     1  LIG1       -0.2449
      8 C           0.4290    1.7500    0.0000 C.ar    1  LIG1        0.0756
      9 C           1.2920    1.2500    0.0000 C.ar    1  LIG1        0.0064
     10 C           2.1630    1.7500    0.0000 C.ar    1  LIG1        0.0002
     11 C           2.1630    2.7540    0.0000 C.ar    1  LIG1        0.0000
     12 C           1.2920    3.2540    0.0000 C.ar    1  LIG1        0.0002
     13 C           0.4290    2.7540    0.0000 C.ar    1  LIG1        0.0064
     14 C           1.3000   -1.7500    0.0000 C.3     1  LIG1        0.0156
     15 C           1.3000   -2.7500    0.0000 C.3     1  LIG1        0.0630
     16 C           0.4290   -3.2500    0.0000 C.3     1  LIG1        0.1383
     17 C          -1.2960   -1.2540    0.0000 C.3     1  LIG1        0.0570
     18 C          -2.1670   -1.7500    0.0000 C.3     1  LIG1        0.0120
     19 C          -2.1670   -2.7500    0.0000 C.3     1  LIG1        0.0629
     20 C          -1.2960   -3.2500    0.0000 C.3     1  LIG1        0.1383
@<TRIPOS>BOND
     1     1     2    1
     2     1    16    1
     3     1    20    1
     4     2     3    1
     5     2    17    1
     6     3     4    1
     7     3    14    1
     8     4     5    1
     9     5     6    1
    10     6     7    2
    11     6     8    1
    12     8     9   ar
    13     8    13   ar
    14     9    10   ar
    15    10    11   ar
    16    11    12   ar
    17    12    13   ar
    18    14    15    1
    19    15    16    1
    20    17    18    1
    21    18    19    1
    22    19    20    1
