@<TRIPOS>MOLECULE
26270_ChemDiv_1069-0044
 23 25 0 0 0
SMALL
GASTEIGER
Energy = 0

@<TRIPOS>ATOM
      1 C           0.4330   -0.7250    0.0000 C.ar    1  LIG1        0.1500
      2 C          -0.4380   -0.2380    0.0000 C.ar    1  LIG1        0.0715
      3 C          -1.3210   -0.7250    0.0000 C.ar    1  LIG1        0.0494
      4 C          -1.3210   -1.7330    0.0000 C.ar    1  LIG1        0.1499
      5 O          -0.4380   -2.2500    0.0000 O.2     1  LIG1       -0.4201
      6 C           0.4330   -1.7630    0.0000 C.ar    1  LIG1        0.3613
      7 O           1.3080   -2.3250    0.0000 O.2     1  LIG1       -0.2430
      8 C          -2.1670   -2.2500    0.0000 C.ar    1  LIG1        0.0377
      9 C          -3.0380   -1.7630    0.0000 C.ar    1  LIG1        0.0031
     10 C          -3.0380   -0.7250    0.0000 C.ar    1  LIG1        0.0002
     11 C          -2.1670   -0.2380    0.0000 C.ar    1  LIG1        0.0043
     12 N          -0.4380    0.7630    0.0000 N.pl3   1  LIG1       -0.3063
     13 C           0.4080    1.3250    0.0000 C.3     1  LIG1        0.0909
     14 C           0.1420    2.3000    0.0000 C.3     1  LIG1        0.0232
     15 C          -0.8670    2.3290    0.0000 C.3     1  LIG1        0.0232
     16 C          -1.2170    1.3880    0.0000 C.3     1  LIG1        0.0909
     17 N           1.3080   -0.1790    0.0000 N.am    1  LIG1       -0.2008
     18 C           1.2790    0.8380    0.0000 C.2     1  LIG1        0.2358
     19 O           0.5710    1.2040    0.0000 O.2     1  LIG1       -0.2741
     20 C           2.1210    1.3540    0.0000 C.3     1  LIG1        0.0956
     21 C           2.1960   -0.6670    0.0000 C.2     1  LIG1        0.2358
     22 O           3.0330   -0.1380    0.0000 O.2     1  LIG1       -0.2741
     23 C           2.1960   -1.6750    0.0000 C.3     1  LIG1        0.0956
@<TRIPOS>BOND
     1     1     2   ar
     2     1     6   ar
     3     1    17    1
     4     2     3   ar
     5     2    12    1
     6     3     4   ar
     7     3    11   ar
     8     4     5   ar
     9     4     8   ar
    10     5     6   ar
    11     6     7    2
    12     8     9   ar
    13     9    10   ar
    14    10    11   ar
    15    12    13    1
    16    12    16    1
    17    13    14    1
    18    14    15    1
    19    15    16    1
    20    17    18   am
    21    17    21   am
    22    18    19    2
    23    18    20    1
    24    21    22    2
    25    21    23    1
