@<TRIPOS>MOLECULE
26274_ChemDiv_1503-0156
 27 30 0 0 0
SMALL
GASTEIGER
Energy = 0

@<TRIPOS>ATOM
      1 N          -1.8540   -1.9330    0.0000 N.ar    1  LIG1       -0.1548
      2 C          -2.3630   -2.7580    0.0000 C.ar    1  LIG1        0.2732
      3 N          -3.3290   -2.5710    0.0000 N.ar    1  LIG1       -0.2717
      4 C          -3.4460   -1.6000    0.0000 C.ar    1  LIG1        0.1283
      5 C          -2.5170   -1.1750    0.0000 C.ar    1  LIG1        0.2431
      6 C          -2.4250   -0.1880    0.0000 C.ar    1  LIG1        0.0708
      7 C          -3.2380    0.3830    0.0000 C.ar    1  LIG1        0.0062
      8 C          -4.1330    0.0080    0.0000 C.ar    1  LIG1        0.0019
      9 C          -4.2290   -1.0040    0.0000 C.ar    1  LIG1        0.0234
     10 C          -4.0580   -3.2540    0.0000 C.3     1  LIG1        0.1361
     11 C          -1.9330   -3.7080    0.0000 C.3     1  LIG1        0.1301
     12 C          -0.8670   -1.8420    0.0000 C.3     1  LIG1        0.3554
     13 C          -0.4210   -0.9330    0.0000 C.3     1  LIG1        0.2277
     14 O           0.5750   -0.8500    0.0000 O.3     1  LIG1       -0.3396
     15 C           1.0040    0.0790    0.0000 C.3     1  LIG1        0.2277
     16 C           2.0000    0.1670    0.0000 C.3     1  LIG1        0.3554
     17 N           2.4250    1.0670    0.0000 N.ar    1  LIG1       -0.1548
     18 C           3.3920    1.3500    0.0000 C.ar    1  LIG1        0.2732
     19 N           3.3920    2.3460    0.0000 N.ar    1  LIG1       -0.2717
     20 C           2.4670    2.6790    0.0000 C.ar    1  LIG1        0.1283
     21 C           1.8540    1.8880    0.0000 C.ar    1  LIG1        0.2431
     22 C           0.8630    1.9920    0.0000 C.ar    1  LIG1        0.0708
     23 C           0.4630    2.9170    0.0000 C.ar    1  LIG1        0.0062
     24 C           1.0750    3.7130    0.0000 C.ar    1  LIG1        0.0019
     25 C           2.0670    3.6000    0.0000 C.ar    1  LIG1        0.0234
     26 C           4.2250    2.9170    0.0000 C.3     1  LIG1        0.1361
     27 C           4.2130    0.7630    0.0000 C.3     1  LIG1        0.1301
@<TRIPOS>BOND
     1     1     2   ar
     2     1     5   ar
     3     1    12    1
     4     2     3   ar
     5     2    11    1
     6     3     4   ar
     7     3    10    1
     8     4     5   ar
     9     4     9   ar
    10     5     6   ar
    11     6     7   ar
    12     7     8   ar
    13     8     9   ar
    14    12    13    1
    15    13    14    1
    16    14    15    1
    17    15    16    1
    18    16    17    1
    19    17    18   ar
    20    17    21   ar
    21    18    19   ar
    22    18    27    1
    23    19    20   ar
    24    19    26    1
    25    20    21   ar
    26    20    25   ar
    27    21    22   ar
    28    22    23   ar
    29    23    24   ar
    30    24    25   ar
