@<TRIPOS>MOLECULE
26278_ChemDiv_2257-0553
 32 35 0 0 0
SMALL
GASTEIGER
Energy = 0

@<TRIPOS>ATOM
      1 C          -0.1130   -0.5460    0.0000 C.ar    1  LIG1        0.3323
      2 N          -0.7130    0.3330    0.0000 N.ar    1  LIG1       -0.2708
      3 C          -1.6790   -0.0330    0.0000 C.ar    1  LIG1        0.0802
      4 C          -1.6790   -1.0080    0.0000 C.ar    1  LIG1        0.0802
      5 N          -0.6790   -1.3420    0.0000 N.ar    1  LIG1       -0.2708
      6 C          -0.3460   -2.2500    0.0000 C.3     1  LIG1        0.1971
      7 C           0.6540   -2.3960    0.0000 C.2     1  LIG1        0.2649
      8 N           0.9040   -3.3290    0.0000 N.am    1  LIG1       -0.1989
      9 C           1.8670   -3.5540    0.0000 C.3     1  LIG1        0.1415
     10 C           2.1630   -4.5460    0.0000 C.ar    1  LIG1       -0.0006
     11 C           1.4500   -5.2830    0.0000 C.ar    1  LIG1       -0.0026
     12 C           1.7210   -6.2750    0.0000 C.ar    1  LIG1       -0.0003
     13 C           2.7040   -6.4880    0.0000 C.ar    1  LIG1       -0.0000
     14 C           3.3790   -5.7580    0.0000 C.ar    1  LIG1       -0.0003
     15 C           3.1080   -4.7960    0.0000 C.ar    1  LIG1       -0.0026
     16 O           1.2670   -1.6170    0.0000 O.2     1  LIG1       -0.2712
     17 C          -2.5290   -1.5790    0.0000 C.ar    1  LIG1        0.0188
     18 C          -3.3830   -1.0330    0.0000 C.ar    1  LIG1        0.0016
     19 C          -3.3830   -0.0540    0.0000 C.ar    1  LIG1        0.0016
     20 C          -2.5670    0.4000    0.0000 C.ar    1  LIG1        0.0188
     21 C          -0.4380    1.2710    0.0000 C.3     1  LIG1        0.1971
     22 C          -1.1330    1.9920    0.0000 C.2     1  LIG1        0.2649
     23 N          -0.8000    2.9000    0.0000 N.am    1  LIG1       -0.1989
     24 C          -1.4290    3.6670    0.0000 C.3     1  LIG1        0.1415
     25 C          -1.0750    4.6000    0.0000 C.ar    1  LIG1       -0.0006
     26 C          -0.0670    4.7830    0.0000 C.ar    1  LIG1       -0.0026
     27 C           0.2880    5.7130    0.0000 C.ar    1  LIG1       -0.0003
     28 C          -0.3710    6.4880    0.0000 C.ar    1  LIG1       -0.0000
     29 C          -1.3380    6.3040    0.0000 C.ar    1  LIG1       -0.0003
     30 C          -1.7040    5.3790    0.0000 C.ar    1  LIG1       -0.0026
     31 O          -2.0960    1.7500    0.0000 O.2     1  LIG1       -0.2712
     32 O           0.9040   -0.5460    0.0000 O.2     1  LIG1       -0.2462
@<TRIPOS>BOND
     1     1     2   ar
     2     1     5   ar
     3     1    32    2
     4     2     3   ar
     5     2    21    1
     6     3     4   ar
     7     3    20   ar
     8     4     5   ar
     9     4    17   ar
    10     5     6    1
    11     6     7    1
    12     7     8   am
    13     7    16    2
    14     8     9    1
    15     9    10    1
    16    10    11   ar
    17    10    15   ar
    18    11    12   ar
    19    12    13   ar
    20    13    14   ar
    21    14    15   ar
    22    17    18   ar
    23    18    19   ar
    24    19    20   ar
    25    21    22    1
    26    22    23   am
    27    22    31    2
    28    23    24    1
    29    24    25    1
    30    25    26   ar
    31    25    30   ar
    32    26    27   ar
    33    27    28   ar
    34    28    29   ar
    35    29    30   ar
