@<TRIPOS>MOLECULE
26276_ChemDiv_2211-0173
 18 19 0 0 0
SMALL
GASTEIGER
Energy = 0

@<TRIPOS>ATOM
      1 C           1.1330    3.0380    0.0000 C.ar    1  LIG1        0.3502
      2 N           0.5500    2.2040    0.0000 N.ar    1  LIG1       -0.2785
      3 C          -0.4040    2.5080    0.0000 C.ar    1  LIG1        0.0816
      4 C          -0.4040    3.5170    0.0000 C.ar    1  LIG1        0.1018
      5 N           0.5500    3.8170    0.0000 N.ar    1  LIG1       -0.1908
      6 C          -1.2630    4.0170    0.0000 C.ar    1  LIG1        0.0207
      7 C          -2.1460    3.5170    0.0000 C.ar    1  LIG1        0.0016
      8 C          -2.1460    2.5080    0.0000 C.ar    1  LIG1        0.0016
      9 C          -1.2630    2.0040    0.0000 C.ar    1  LIG1        0.0188
     10 C           0.8540    1.2710    0.0000 C.3     1  LIG1        0.1106
     11 C           1.8250    1.0710    0.0000 C.3     1  LIG1        0.0246
     12 C           2.1250    0.1210    0.0000 C.3     1  LIG1        0.0020
     13 C           1.4670   -0.6210    0.0000 C.3     1  LIG1        0.0001
     14 C           1.7750   -1.5750    0.0000 C.3     1  LIG1        0.0000
     15 C           1.1080   -2.3170    0.0000 C.3     1  LIG1        0.0000
     16 C           1.4210   -3.2670    0.0000 C.3     1  LIG1        0.0000
     17 C           0.7540   -4.0170    0.0000 C.3     1  LIG1        0.0000
     18 O           2.1420    3.0290    0.0000 O.2     1  LIG1       -0.2444
@<TRIPOS>BOND
     1     1     2   ar
     2     1     5   ar
     3     1    18    2
     4     2     3   ar
     5     2    10    1
     6     3     4   ar
     7     3     9   ar
     8     4     5   ar
     9     4     6   ar
    10     6     7   ar
    11     7     8   ar
    12     8     9   ar
    13    10    11    1
    14    11    12    1
    15    12    13    1
    16    13    14    1
    17    14    15    1
    18    15    16    1
    19    16    17    1
