@<TRIPOS>MOLECULE
26273_ChemDiv_8008-5846
 22 24 0 0 0
SMALL
GASTEIGER
Energy = 0

@<TRIPOS>ATOM
      1 N          -2.1460   -2.0630    0.0000 N.4     1  LIG1        0.3665
      2 C          -2.1460   -1.0420    0.0000 C.3     1  LIG1        0.0303
      3 C          -1.2830   -0.5710    0.0000 C.3     1  LIG1        0.0861
      4 C          -1.2830    0.4460    0.0000 C.3     1  LIG1        0.2138
      5 O          -0.4250    0.9580    0.0000 O.3     1  LIG1       -0.4452
      6 C           0.4500    0.4670    0.0000 C.2     1  LIG1        0.3412
      7 C           1.3080    0.9830    0.0000 C.ar    1  LIG1        0.0757
      8 C           1.2960    1.9880    0.0000 C.ar    1  LIG1        0.0078
      9 C           2.1380    2.5130    0.0000 C.ar    1  LIG1        0.0183
     10 C           3.0330    2.0500    0.0000 C.ar    1  LIG1        0.0891
     11 N           3.8790    2.5790    0.0000 N.pl3   1  LIG1       -0.1281
     12 C           3.0420    1.0330    0.0000 C.ar    1  LIG1        0.0183
     13 C           2.1920    0.5080    0.0000 C.ar    1  LIG1        0.0078
     14 O           0.4670   -0.4920    0.0000 O.2     1  LIG1       -0.2449
     15 C          -0.4250   -1.0420    0.0000 C.3     1  LIG1        0.0151
     16 C          -0.4250   -2.0630    0.0000 C.3     1  LIG1        0.0630
     17 C          -1.2830   -2.5750    0.0000 C.3     1  LIG1        0.1376
     18 C          -3.0130   -0.5710    0.0000 C.3     1  LIG1        0.0475
     19 C          -3.8830   -1.0420    0.0000 C.3     1  LIG1        0.0115
     20 C          -3.8830   -2.0630    0.0000 C.3     1  LIG1        0.0629
     21 C          -3.0130   -2.5750    0.0000 C.3     1  LIG1        0.1376
     22 H          -2.1460   -0.0580    0.0000 H       1  LIG1        0.0881
@<TRIPOS>BOND
     1     1     2    1
     2     1    17    1
     3     1    21    1
     4     2     3    1
     5     2    18    1
     6     2    22    1
     7     3     4    1
     8     3    15    1
     9     4     5    1
    10     5     6    1
    11     6     7    1
    12     6    14    2
    13     7     8   ar
    14     7    13   ar
    15     8     9   ar
    16     9    10   ar
    17    10    11    1
    18    10    12   ar
    19    12    13   ar
    20    15    16    1
    21    16    17    1
    22    18    19    1
    23    19    20    1
    24    20    21    1
