@<TRIPOS>MOLECULE
26279_ChemDiv_8014-5572
 19 21 0 0 0
SMALL
GASTEIGER
Energy = 0

@<TRIPOS>ATOM
      1 N          -2.2290   -1.0380    0.0000 N.4     1  LIG1        0.2997
      2 C          -1.2500   -0.5500    0.0000 C.3     1  LIG1        0.1526
      3 C          -1.2500    0.5380    0.0000 C.3     1  LIG1        0.2240
      4 O          -0.3830    1.0380    0.0000 O.3     1  LIG1       -0.4430
      5 C           0.4830    0.5380    0.0000 C.2     1  LIG1        0.3413
      6 O           0.4830   -0.4460    0.0000 O.2     1  LIG1       -0.2449
      7 C           1.3500    1.0290    0.0000 C.ar    1  LIG1        0.0756
      8 C           1.3500    2.0210    0.0000 C.ar    1  LIG1        0.0064
      9 C           2.2130    2.5290    0.0000 C.ar    1  LIG1        0.0002
     10 C           3.0920    2.0500    0.0000 C.ar    1  LIG1        0.0000
     11 C           3.0920    1.0380    0.0000 C.ar    1  LIG1        0.0002
     12 C           2.2250    0.5380    0.0000 C.ar    1  LIG1        0.0064
     13 C          -2.1830    1.0830    0.0000 C.3     1  LIG1        0.0580
     14 C          -1.8880    0.0880    0.0000 C.3     1  LIG1        0.0650
     15 C          -2.5250   -0.1710    0.0000 C.3     1  LIG1        0.1087
     16 C          -3.0960    0.5130    0.0000 C.3     1  LIG1        0.0650
     17 C          -3.0960   -0.5500    0.0000 C.3     1  LIG1        0.1087
     18 C          -2.2290   -2.0250    0.0000 C.3     1  LIG1        0.1088
     19 C          -1.3710   -2.5250    0.0000 C.3     1  LIG1        0.0671
@<TRIPOS>BOND
     1     1     2    1
     2     1    15    1
     3     1    17    1
     4     1    18    1
     5     2     3    1
     6     3     4    1
     7     3    13    1
     8     4     5    1
     9     5     6    2
    10     5     7    1
    11     7     8   ar
    12     7    12   ar
    13     8     9   ar
    14     9    10   ar
    15    10    11   ar
    16    11    12   ar
    17    13    14    1
    18    13    16    1
    19    14    15    1
    20    16    17    1
    21    18    19    1
