@<TRIPOS>MOLECULE
26287_ChemDiv_0931-0518
 32 37 0 0 0
SMALL
GASTEIGER
Energy = 0

@<TRIPOS>ATOM
      1 N           1.2830   -0.3960    0.0000 N.am    1  LIG1       -0.2107
      2 C           0.8080    0.2920    0.0000 C.2     1  LIG1        0.2333
      3 C           0.0210    0.0500    0.0000 C.3     1  LIG1        0.0944
      4 C          -0.0210   -0.7380    0.0000 C.3     1  LIG1        0.0944
      5 C           0.7630   -1.0420    0.0000 C.2     1  LIG1        0.2333
      6 O           0.9500   -1.8670    0.0000 O.2     1  LIG1       -0.2744
      7 C          -2.9380   -1.6670    0.0000 C.3     1  LIG1        0.0530
      8 C          -2.2040   -0.7420    0.0000 C.ar    1  LIG1       -0.0216
      9 C          -2.2040    0.0580    0.0000 C.ar    1  LIG1       -0.0216
     10 C          -2.9630    1.0630    0.0000 C.3     1  LIG1        0.0530
     11 C          -3.6290    0.0580    0.0000 C.ar    1  LIG1       -0.0216
     12 C          -3.6290   -0.7420    0.0000 C.ar    1  LIG1       -0.0216
     13 C          -4.3460   -1.1540    0.0000 C.ar    1  LIG1       -0.0042
     14 C          -5.0580   -0.7420    0.0000 C.ar    1  LIG1       -0.0003
     15 C          -5.0580    0.0580    0.0000 C.ar    1  LIG1       -0.0003
     16 C          -4.3460    0.4580    0.0000 C.ar    1  LIG1       -0.0042
     17 C          -1.4790    0.4580    0.0000 C.ar    1  LIG1       -0.0042
     18 C          -0.7670    0.0580    0.0000 C.ar    1  LIG1       -0.0003
     19 C          -0.7670   -0.7420    0.0000 C.ar    1  LIG1       -0.0003
     20 C          -1.4790   -1.1540    0.0000 C.ar    1  LIG1       -0.0042
     21 O           1.1130    1.0630    0.0000 O.2     1  LIG1       -0.2744
     22 C           2.0960   -0.5170    0.0000 C.3     1  LIG1        0.2031
     23 N           2.5880    0.1210    0.0000 N.am    1  LIG1       -0.2402
     24 C           2.2040    1.0290    0.0000 C.2     1  LIG1        0.2311
     25 O           2.7500    1.8710    0.0000 O.2     1  LIG1       -0.2745
     26 C           1.2080    1.2290    0.0000 C.3     1  LIG1        0.0952
     27 C           3.4170    0.0000    0.0000 C.ar    1  LIG1        0.0554
     28 C           3.7210   -0.7290    0.0000 C.ar    1  LIG1        0.0150
     29 C           4.5080   -0.8580    0.0000 C.ar    1  LIG1        0.0013
     30 C           5.0540   -0.2420    0.0000 C.ar    1  LIG1        0.0001
     31 C           4.7670    0.5460    0.0000 C.ar    1  LIG1        0.0013
     32 C           3.9380    0.6830    0.0000 C.ar    1  LIG1        0.0150
@<TRIPOS>BOND
     1     1     2   am
     2     1     5   am
     3     1    22    1
     4     2     3    1
     5     2    21    2
     6     3     4    1
     7     3    10    1
     8     4     5    1
     9     4     7    1
    10     5     6    2
    11     7     8    1
    12     7    12    1
    13     8     9   ar
    14     8    20   ar
    15     9    10    1
    16     9    17   ar
    17    10    11    1
    18    11    12   ar
    19    11    16   ar
    20    12    13   ar
    21    13    14   ar
    22    14    15   ar
    23    15    16   ar
    24    17    18   ar
    25    18    19   ar
    26    19    20   ar
    27    22    23    1
    28    23    24   am
    29    23    27    1
    30    24    25    2
    31    24    26    1
    32    27    28   ar
    33    27    32   ar
    34    28    29   ar
    35    29    30   ar
    36    30    31   ar
    37    31    32   ar
