@<TRIPOS>MOLECULE
26280_ChemDiv_5786-1441
 14 15 0 0 0
SMALL
GASTEIGER
Energy = 0

@<TRIPOS>ATOM
      1 N           0.5330    0.4380    0.0000 N.ar    1  LIG1       -0.2785
      2 C           1.1380    1.2460    0.0000 C.ar    1  LIG1        0.3502
      3 N           0.5330    2.0460    0.0000 N.ar    1  LIG1       -0.1908
      4 C          -0.4040    1.7460    0.0000 C.ar    1  LIG1        0.1018
      5 C          -0.4040    0.7420    0.0000 C.ar    1  LIG1        0.0816
      6 C          -1.2790    0.2380    0.0000 C.ar    1  LIG1        0.0188
      7 C          -2.1500    0.7420    0.0000 C.ar    1  LIG1        0.0016
      8 C          -2.1500    1.7460    0.0000 C.ar    1  LIG1        0.0016
      9 C          -1.2790    2.2170    0.0000 C.ar    1  LIG1        0.0207
     10 O           2.1460    1.2460    0.0000 O.2     1  LIG1       -0.2444
     11 C           0.8380   -0.5330    0.0000 C.3     1  LIG1        0.1106
     12 C           0.1670   -1.2710    0.0000 C.3     1  LIG1        0.0228
     13 C           0.4670   -2.2130    0.0000 C.3     1  LIG1        0.0020
     14 C          -0.8080   -1.0380    0.0000 C.3     1  LIG1        0.0020
@<TRIPOS>BOND
     1     1     2   ar
     2     1     5   ar
     3     1    11    1
     4     2     3   ar
     5     2    10    2
     6     3     4   ar
     7     4     5   ar
     8     4     9   ar
     9     5     6   ar
    10     6     7   ar
    11     7     8   ar
    12     8     9   ar
    13    11    12    1
    14    12    13    1
    15    12    14    1
