@<TRIPOS>MOLECULE
26286_ChemDiv_7011-0688
 18 19 0 0 0
SMALL
GASTEIGER
Energy = 0

@<TRIPOS>ATOM
      1 C           0.9460   -0.0040    0.0000 C.ar    1  LIG1        0.3321
      2 N           0.3670   -0.8080    0.0000 N.ar    1  LIG1       -0.2746
      3 C          -0.5960   -0.5040    0.0000 C.ar    1  LIG1        0.0801
      4 C          -0.5960    0.4960    0.0000 C.ar    1  LIG1        0.0801
      5 N           0.3670    0.8080    0.0000 N.ar    1  LIG1       -0.2746
      6 C           0.6710    1.7540    0.0000 C.3     1  LIG1        0.1522
      7 C           1.6540    1.9580    0.0000 C.2     1  LIG1        0.0734
      8 O           1.9630    2.9080    0.0000 O.co2   1  LIG1       -0.5472
      9 O           2.3210    1.2250    0.0000 O.co2   1  LIG1       -0.5472
     10 C          -1.4580    1.0130    0.0000 C.ar    1  LIG1        0.0188
     11 C          -2.3250    0.4960    0.0000 C.ar    1  LIG1        0.0016
     12 C          -2.3250   -0.5040    0.0000 C.ar    1  LIG1        0.0016
     13 C          -1.4580   -1.0040    0.0000 C.ar    1  LIG1        0.0188
     14 C           0.6710   -1.7540    0.0000 C.3     1  LIG1        0.1522
     15 C           1.6540   -1.9580    0.0000 C.2     1  LIG1        0.0734
     16 O           2.3210   -1.2210    0.0000 O.co2   1  LIG1       -0.5472
     17 O           1.9630   -2.9040    0.0000 O.co2   1  LIG1       -0.5472
     18 O           1.9460    0.0080    0.0000 O.2     1  LIG1       -0.2463
@<TRIPOS>BOND
     1     1     2   ar
     2     1     5   ar
     3     1    18    2
     4     2     3   ar
     5     2    14    1
     6     3     4   ar
     7     3    13   ar
     8     4     5   ar
     9     4    10   ar
    10     5     6    1
    11     6     7    1
    12     7     8   ar
    13     7     9   ar
    14    10    11   ar
    15    11    12   ar
    16    12    13   ar
    17    14    15    1
    18    15    16   ar
    19    15    17   ar
