@<TRIPOS>MOLECULE
26282_ChemDiv_5984-0181
 30 33 0 0 0
SMALL
GASTEIGER
Energy = 0

@<TRIPOS>ATOM
      1 N          -2.7000   -2.7920    0.0000 N.ar    1  LIG1       -0.1445
      2 C          -3.6630   -3.0580    0.0000 C.ar    1  LIG1        0.3807
      3 N          -3.7080   -4.0460    0.0000 N.ar    1  LIG1       -0.2635
      4 C          -2.7710   -4.4000    0.0000 C.ar    1  LIG1        0.1287
      5 C          -2.1500   -3.6210    0.0000 C.ar    1  LIG1        0.2436
      6 C          -1.1580   -3.7750    0.0000 C.ar    1  LIG1        0.0708
      7 C          -0.7880   -4.7040    0.0000 C.ar    1  LIG1        0.0062
      8 C          -1.4170   -5.4830    0.0000 C.ar    1  LIG1        0.0019
      9 C          -2.4080   -5.3290    0.0000 C.ar    1  LIG1        0.0234
     10 C          -4.5580   -4.5960    0.0000 C.3     1  LIG1        0.1121
     11 C          -4.5040   -5.6040    0.0000 C.3     1  LIG1        0.0267
     12 C          -2.3580   -1.8460    0.0000 C.3     1  LIG1        0.3559
     13 C          -1.3710   -1.6710    0.0000 C.3     1  LIG1        0.2276
     14 O          -1.0330   -0.7330    0.0000 O.3     1  LIG1       -0.3441
     15 C          -0.0460   -0.5580    0.0000 C.3     1  LIG1        0.1744
     16 C           0.2960    0.3790    0.0000 C.3     1  LIG1        0.1744
     17 O           1.2790    0.5540    0.0000 O.3     1  LIG1       -0.3441
     18 C           1.6210    1.4920    0.0000 C.3     1  LIG1        0.2276
     19 C           2.6040    1.6710    0.0000 C.3     1  LIG1        0.3559
     20 N           2.9460    2.6040    0.0000 N.ar    1  LIG1       -0.1445
     21 C           3.8710    2.9830    0.0000 C.ar    1  LIG1        0.3807
     22 N           3.7920    3.9790    0.0000 N.ar    1  LIG1       -0.2635
     23 C           2.8330    4.2080    0.0000 C.ar    1  LIG1        0.1287
     24 C           2.3000    3.3670    0.0000 C.ar    1  LIG1        0.2436
     25 C           1.2960    3.4040    0.0000 C.ar    1  LIG1        0.0708
     26 C           0.8210    4.2790    0.0000 C.ar    1  LIG1        0.0062
     27 C           1.3630    5.1330    0.0000 C.ar    1  LIG1        0.0019
     28 C           2.3630    5.0920    0.0000 C.ar    1  LIG1        0.0234
     29 C           4.5540    4.6290    0.0000 C.3     1  LIG1        0.1121
     30 C           4.3710    5.6040    0.0000 C.3     1  LIG1        0.0267
@<TRIPOS>BOND
     1     1     2   ar
     2     1     5   ar
     3     1    12    1
     4     2     3   ar
     5     3     4   ar
     6     3    10    1
     7     4     5   ar
     8     4     9   ar
     9     5     6   ar
    10     6     7   ar
    11     7     8   ar
    12     8     9   ar
    13    10    11    1
    14    12    13    1
    15    13    14    1
    16    14    15    1
    17    15    16    1
    18    16    17    1
    19    17    18    1
    20    18    19    1
    21    19    20    1
    22    20    21   ar
    23    20    24   ar
    24    21    22   ar
    25    22    23   ar
    26    22    29    1
    27    23    24   ar
    28    23    28   ar
    29    24    25   ar
    30    25    26   ar
    31    26    27   ar
    32    27    28   ar
    33    29    30    1
