@<TRIPOS>MOLECULE
26283_ChemDiv_0922-0088
 16 18 0 0 0
SMALL
GASTEIGER
Energy = 0

@<TRIPOS>ATOM
      1 C          -1.2040   -0.7130    0.0000 C.ar    1  LIG1        0.2205
      2 N          -0.3290   -0.1830    0.0000 N.pl3   1  LIG1       -0.2667
      3 C           0.5540   -0.6750    0.0000 C.3     1  LIG1        0.1549
      4 C           1.4330   -0.1830    0.0000 C.3     1  LIG1        0.1304
      5 N           1.4330    0.8080    0.0000 N.4     1  LIG1        0.2996
      6 C           0.5540    1.3080    0.0000 C.3     1  LIG1        0.1304
      7 C          -0.3290    0.8080    0.0000 C.3     1  LIG1        0.1549
      8 C           2.4040    0.5830    0.0000 C.3     1  LIG1        0.1088
      9 C           2.9250    1.4330    0.0000 C.3     1  LIG1        0.0671
     10 C           2.2710    2.1920    0.0000 C.3     1  LIG1        0.0671
     11 C           1.3540    1.8040    0.0000 C.3     1  LIG1        0.1088
     12 N          -1.2040   -1.6880    0.0000 N.ar    1  LIG1       -0.2121
     13 C          -2.0500   -2.1880    0.0000 C.ar    1  LIG1        0.1034
     14 C          -2.9290   -1.7290    0.0000 C.ar    1  LIG1        0.0414
     15 C          -2.9290   -0.7130    0.0000 C.ar    1  LIG1        0.1034
     16 N          -2.0500   -0.2130    0.0000 N.ar    1  LIG1       -0.2121
@<TRIPOS>BOND
     1     1     2    1
     2     1    12   ar
     3     1    16   ar
     4     2     3    1
     5     2     7    1
     6     3     4    1
     7     4     5    1
     8     5     6    1
     9     5     8    1
    10     5    11    1
    11     6     7    1
    12     8     9    1
    13     9    10    1
    14    10    11    1
    15    12    13   ar
    16    13    14   ar
    17    14    15   ar
    18    15    16   ar
