@<TRIPOS>MOLECULE
26289_ChemDiv_0S62-0043
 24 26 0 0 0
SMALL
GASTEIGER
Energy = 0

@<TRIPOS>ATOM
      1 C           0.9880    2.0460    0.0000 C.ar    1  LIG1        0.0990
      2 C           1.5750    1.2460    0.0000 C.ar    1  LIG1        0.1248
      3 S           0.9880    0.4210    0.0000 S.2     1  LIG1       -0.0658
      4 C           0.0460    0.7290    0.0000 C.ar    1  LIG1        0.0654
      5 C           0.0460    1.7420    0.0000 C.ar    1  LIG1        0.0171
      6 C          -0.8080    2.2290    0.0000 C.ar    1  LIG1        0.0015
      7 C          -1.6960    1.7210    0.0000 C.ar    1  LIG1        0.0098
      8 C          -1.6960    0.7580    0.0000 C.ar    1  LIG1        0.0690
      9 C          -0.8080    0.2290    0.0000 C.ar    1  LIG1        0.1510
     10 O          -0.8080   -0.7710    0.0000 O.3     1  LIG1       -0.4696
     11 C           0.0460   -1.2750    0.0000 C.3     1  LIG1        0.2320
     12 C           0.0460   -2.2670    0.0000 C.ar    1  LIG1        0.0212
     13 C           0.9290   -2.7880    0.0000 C.ar    1  LIG1       -0.0007
     14 C           0.9290   -3.7670    0.0000 C.ar    1  LIG1       -0.0002
     15 C           0.0460   -4.2710    0.0000 C.ar    1  LIG1       -0.0000
     16 C          -0.8080   -3.7670    0.0000 C.ar    1  LIG1       -0.0002
     17 C          -0.8080   -2.7580    0.0000 C.ar    1  LIG1       -0.0007
     18 BR         -2.5830    0.2540    0.0000 Br      1  LIG1       -0.0458
     19 N           2.5790    1.2460    0.0000 N.pl3   1  LIG1       -0.1208
     20 C           1.3170    2.9920    0.0000 C.2     1  LIG1        0.3431
     21 O           2.2790    3.2080    0.0000 O.2     1  LIG1       -0.2448
     22 O           0.6250    3.7540    0.0000 O.3     1  LIG1       -0.4454
     23 C          -0.3380    3.5420    0.0000 C.3     1  LIG1        0.2089
     24 C          -1.0080    4.2710    0.0000 C.3     1  LIG1        0.0513
@<TRIPOS>BOND
     1     1     2   ar
     2     1     5   ar
     3     1    20    1
     4     2     3   ar
     5     2    19    1
     6     3     4   ar
     7     4     5   ar
     8     4     9   ar
     9     5     6   ar
    10     6     7   ar
    11     7     8   ar
    12     8     9   ar
    13     8    18    1
    14     9    10    1
    15    10    11    1
    16    11    12    1
    17    12    13   ar
    18    12    17   ar
    19    13    14   ar
    20    14    15   ar
    21    15    16   ar
    22    16    17   ar
    23    20    21    2
    24    20    22    1
    25    22    23    1
    26    23    24    1
