@<TRIPOS>MOLECULE
26281_ChemDiv_N085-0052
 22 24 0 0 0
SMALL
GASTEIGER
Energy = 0

@<TRIPOS>ATOM
      1 N          -1.7210   -1.7580    0.0000 N.4     1  LIG1        0.2975
      2 C          -1.7250   -0.7500    0.0000 C.3     1  LIG1        0.0620
      3 C          -0.8580   -0.2500    0.0000 C.3     1  LIG1        0.0935
      4 C          -0.8630    0.7540    0.0000 C.3     1  LIG1        0.2144
      5 O           0.0000    1.2540    0.0000 O.3     1  LIG1       -0.4452
      6 C           0.8670    0.7540    0.0000 C.2     1  LIG1        0.3409
      7 C           1.7290    1.2540    0.0000 C.ar    1  LIG1        0.0717
      8 C           2.5960    0.7540    0.0000 C.ar    1  LIG1       -0.0156
      9 C           2.5960   -0.2460    0.0000 C.3     1  LIG1        0.0312
     10 C           3.4580    1.2540    0.0000 C.ar    1  LIG1       -0.0041
     11 C           3.4580    2.2500    0.0000 C.ar    1  LIG1       -0.0003
     12 C           2.5830    2.7500    0.0000 C.ar    1  LIG1        0.0002
     13 C           1.7290    2.2500    0.0000 C.ar    1  LIG1        0.0061
     14 O           0.8670   -0.2460    0.0000 O.2     1  LIG1       -0.2449
     15 C           0.0040   -0.7500    0.0000 C.3     1  LIG1        0.0155
     16 C           0.0080   -1.7540    0.0000 C.3     1  LIG1        0.0614
     17 C          -0.8580   -2.2580    0.0000 C.3     1  LIG1        0.1084
     18 C          -2.5960   -0.2500    0.0000 C.3     1  LIG1        0.0554
     19 C          -3.4630   -0.7500    0.0000 C.3     1  LIG1        0.0120
     20 C          -3.4630   -1.7580    0.0000 C.3     1  LIG1        0.0612
     21 C          -2.5960   -2.2580    0.0000 C.3     1  LIG1        0.1084
     22 C          -1.7250   -2.7460    0.0000 C.3     1  LIG1        0.1702
@<TRIPOS>BOND
     1     1     2    1
     2     1    17    1
     3     1    21    1
     4     1    22    1
     5     2     3    1
     6     2    18    1
     7     3     4    1
     8     3    15    1
     9     4     5    1
    10     5     6    1
    11     6     7    1
    12     6    14    2
    13     7     8   ar
    14     7    13   ar
    15     8     9    1
    16     8    10   ar
    17    10    11   ar
    18    11    12   ar
    19    12    13   ar
    20    15    16    1
    21    16    17    1
    22    18    19    1
    23    19    20    1
    24    20    21    1
