@<TRIPOS>MOLECULE
26288_ChemDiv_D011-2779
 16 17 0 0 0
SMALL
GASTEIGER
Energy = 0

@<TRIPOS>ATOM
      1 N           0.3040    0.7830    0.0000 N.ar    1  LIG1       -0.3144
      2 C           0.8830    1.6080    0.0000 C.ar    1  LIG1        0.1203
      3 N           0.2920    2.4210    0.0000 N.ar    1  LIG1       -0.2310
      4 C          -0.6630    2.1040    0.0000 C.ar    1  LIG1        0.0983
      5 C          -0.6540    1.0920    0.0000 C.ar    1  LIG1        0.0786
      6 C          -1.5290    0.5960    0.0000 C.ar    1  LIG1        0.0188
      7 C          -2.3920    1.0920    0.0000 C.ar    1  LIG1        0.0016
      8 C          -2.3920    2.1040    0.0000 C.ar    1  LIG1        0.0016
      9 C          -1.5290    2.5920    0.0000 C.ar    1  LIG1        0.0206
     10 C           1.8790    1.6130    0.0000 C.3     1  LIG1        0.0640
     11 C           2.3880    0.7630    0.0000 C.3     1  LIG1        0.0084
     12 C           0.6210   -0.1580    0.0000 C.3     1  LIG1        0.1169
     13 C          -0.0420   -0.9080    0.0000 C.3     1  LIG1        0.1130
     14 C           0.2790   -1.8500    0.0000 C.2     1  LIG1        0.2627
     15 O          -0.3830   -2.5880    0.0000 O.2     1  LIG1       -0.2716
     16 N           1.2540   -2.0460    0.0000 N.am    1  LIG1       -0.0877
@<TRIPOS>BOND
     1     1     2   ar
     2     1     5   ar
     3     1    12    1
     4     2     3   ar
     5     2    10    1
     6     3     4   ar
     7     4     5   ar
     8     4     9   ar
     9     5     6   ar
    10     6     7   ar
    11     7     8   ar
    12     8     9   ar
    13    10    11    1
    14    12    13    1
    15    13    14    1
    16    14    15    2
    17    14    16   am
