@<TRIPOS>MOLECULE
26285_ChemDiv_0931-0454
 19 20 0 0 0
SMALL
GASTEIGER
Energy = 0

@<TRIPOS>ATOM
      1 N          -2.7080    0.3710    0.0000 N.am    1  LIG1       -0.2098
      2 C          -3.2960   -0.4210    0.0000 C.2     1  LIG1        0.2331
      3 C          -4.2460   -0.1250    0.0000 C.3     1  LIG1        0.0953
      4 C          -4.2460    0.8710    0.0000 C.3     1  LIG1        0.0953
      5 C          -3.2960    1.1960    0.0000 C.2     1  LIG1        0.2331
      6 O          -2.9790    2.1670    0.0000 O.2     1  LIG1       -0.2744
      7 O          -2.9790   -1.4210    0.0000 O.2     1  LIG1       -0.2744
      8 C          -1.7130    0.3710    0.0000 C.3     1  LIG1        0.2146
      9 N          -1.2170   -0.4750    0.0000 N.pl3   1  LIG1       -0.2152
     10 C          -0.2170   -0.4500    0.0000 C.ar    1  LIG1        0.0674
     11 C           0.2790    0.4040    0.0000 C.ar    1  LIG1        0.0175
     12 C           1.2750    0.4040    0.0000 C.ar    1  LIG1        0.0179
     13 C           1.7710   -0.4500    0.0000 C.ar    1  LIG1        0.0734
     14 N           2.7630   -0.4500    0.0000 N.am    1  LIG1       -0.1792
     15 C           3.2380   -1.2830    0.0000 C.2     1  LIG1        0.2461
     16 O           2.6710   -2.1630    0.0000 O.2     1  LIG1       -0.2730
     17 C           4.2420   -1.2830    0.0000 C.3     1  LIG1        0.0968
     18 C           1.2750   -1.3000    0.0000 C.ar    1  LIG1        0.0179
     19 C           0.2790   -1.3290    0.0000 C.ar    1  LIG1        0.0175
@<TRIPOS>BOND
     1     1     2   am
     2     1     5   am
     3     1     8    1
     4     2     3    1
     5     2     7    2
     6     3     4    1
     7     4     5    1
     8     5     6    2
     9     8     9    1
    10     9    10    1
    11    10    11   ar
    12    10    19   ar
    13    11    12   ar
    14    12    13   ar
    15    13    14    1
    16    13    18   ar
    17    14    15   am
    18    15    16    2
    19    15    17    1
    20    18    19   ar
