@<TRIPOS>MOLECULE
26284_ChemDiv_6406-0140
 22 23 0 0 0
SMALL
GASTEIGER
Energy = 0

@<TRIPOS>ATOM
      1 C           0.0460   -0.0130    0.0000 C.ar    1  LIG1        0.3324
      2 N          -0.5540   -0.8170    0.0000 N.ar    1  LIG1       -0.2691
      3 C          -1.5000   -0.5080    0.0000 C.ar    1  LIG1        0.0803
      4 C          -1.4960    0.4920    0.0000 C.ar    1  LIG1        0.0803
      5 N          -0.5420    0.8040    0.0000 N.ar    1  LIG1       -0.2691
      6 C          -0.2830    1.7750    0.0000 C.3     1  LIG1        0.2201
      7 C           0.5790    2.2750    0.0000 C.2     1  LIG1        0.3405
      8 O           0.5670    3.2750    0.0000 O.2     1  LIG1       -0.2479
      9 O           1.4460    1.7790    0.0000 O.3     1  LIG1       -0.4472
     10 C           2.3080    2.2880    0.0000 C.3     1  LIG1        0.2086
     11 C           3.1710    1.7880    0.0000 C.3     1  LIG1        0.0513
     12 C          -2.3580    1.0000    0.0000 C.ar    1  LIG1        0.0188
     13 C          -3.2210    0.4920    0.0000 C.ar    1  LIG1        0.0016
     14 C          -3.2210   -0.5080    0.0000 C.ar    1  LIG1        0.0016
     15 C          -2.3580   -1.0080    0.0000 C.ar    1  LIG1        0.0188
     16 C          -0.2420   -1.7710    0.0000 C.3     1  LIG1        0.2201
     17 C           0.6210   -2.2710    0.0000 C.2     1  LIG1        0.3405
     18 O           0.6210   -3.2710    0.0000 O.2     1  LIG1       -0.2479
     19 O           1.4830   -1.7670    0.0000 O.3     1  LIG1       -0.4472
     20 C           2.3460   -2.2630    0.0000 C.3     1  LIG1        0.2086
     21 C           3.2170   -1.7540    0.0000 C.3     1  LIG1        0.0513
     22 O           1.0460   -0.0130    0.0000 O.2     1  LIG1       -0.2462
@<TRIPOS>BOND
     1     1     2   ar
     2     1     5   ar
     3     1    22    2
     4     2     3   ar
     5     2    16    1
     6     3     4   ar
     7     3    15   ar
     8     4     5   ar
     9     4    12   ar
    10     5     6    1
    11     6     7    1
    12     7     8    2
    13     7     9    1
    14     9    10    1
    15    10    11    1
    16    12    13   ar
    17    13    14   ar
    18    14    15   ar
    19    16    17    1
    20    17    18    2
    21    17    19    1
    22    19    20    1
    23    20    21    1
