@<TRIPOS>MOLECULE
26297_ChemDiv_2168-0053
 24 27 0 0 0
SMALL
GASTEIGER
Energy = 0

@<TRIPOS>ATOM
      1 N           0.5330    2.1920    0.0000 N.ar    1  LIG1       -0.2864
      2 C          -0.3250    1.7040    0.0000 C.ar    1  LIG1        0.1477
      3 N          -0.0960    0.7250    0.0000 N.ar    1  LIG1       -0.2264
      4 C           0.8920    0.6290    0.0000 C.ar    1  LIG1        0.1018
      5 C           1.3000    1.5670    0.0000 C.ar    1  LIG1        0.1179
      6 C           2.2500    1.8290    0.0000 C.2     1  LIG1        0.1910
      7 O           2.6210    2.8170    0.0000 O.2     1  LIG1       -0.2897
      8 C           2.9210    1.1540    0.0000 C.3     1  LIG1        0.0789
      9 C           1.3880   -0.2420    0.0000 C.ar    1  LIG1        0.0194
     10 C           0.8920   -1.1130    0.0000 C.ar    1  LIG1        0.0047
     11 C           1.3880   -1.9710    0.0000 C.ar    1  LIG1        0.0369
     12 C           2.3830   -1.9920    0.0000 C.ar    1  LIG1        0.1387
     13 C           2.8750   -1.1210    0.0000 C.ar    1  LIG1        0.0369
     14 C           2.3830   -0.2540    0.0000 C.ar    1  LIG1        0.0047
     15 O           2.8670   -2.8500    0.0000 O.3     1  LIG1       -0.4714
     16 C           2.3580   -3.7080    0.0000 C.3     1  LIG1        0.2525
     17 C          -1.1880    2.1920    0.0000 C.ar    1  LIG1        0.0345
     18 C          -1.1880    3.1920    0.0000 C.ar    1  LIG1        0.0044
     19 C          -0.3250    3.7130    0.0000 C.ar    1  LIG1        0.0191
     20 C           0.5330    3.2210    0.0000 C.ar    1  LIG1        0.0815
     21 C          -2.0580    3.7040    0.0000 C.ar    1  LIG1        0.0001
     22 C          -2.9250    3.2040    0.0000 C.ar    1  LIG1        0.0000
     23 C          -2.9250    2.1920    0.0000 C.ar    1  LIG1        0.0001
     24 C          -2.0580    1.7040    0.0000 C.ar    1  LIG1        0.0030
@<TRIPOS>BOND
     1     1     2   ar
     2     1     5   ar
     3     1    20   ar
     4     2     3   ar
     5     2    17   ar
     6     3     4   ar
     7     4     5   ar
     8     4     9    1
     9     5     6    1
    10     6     7    2
    11     6     8    1
    12     9    10   ar
    13     9    14   ar
    14    10    11   ar
    15    11    12   ar
    16    12    13   ar
    17    12    15    1
    18    13    14   ar
    19    15    16    1
    20    17    18   ar
    21    17    24   ar
    22    18    19   ar
    23    18    21   ar
    24    19    20   ar
    25    21    22   ar
    26    22    23   ar
    27    23    24   ar
