@<TRIPOS>MOLECULE
26298_ChemDiv_1070-0071
 26 27 0 0 0
SMALL
GASTEIGER
Energy = 0

@<TRIPOS>ATOM
      1 C          -1.0420   -0.4000    0.0000 C.ar    1  LIG1        0.0903
      2 C          -0.5080    0.4670    0.0000 C.ar    1  LIG1        0.0255
      3 C          -0.9960    1.3330    0.0000 C.ar    1  LIG1        0.0870
      4 C          -2.0500    1.3330    0.0000 C.ar    1  LIG1        0.0665
      5 C          -2.5420    0.4670    0.0000 C.ar    1  LIG1        0.0529
      6 C          -2.0500   -0.4000    0.0000 C.ar    1  LIG1        0.1444
      7 O          -2.5500   -1.2460    0.0000 O.3     1  LIG1       -0.4712
      8 C          -3.5250   -1.2210    0.0000 C.3     1  LIG1        0.2525
      9 N          -2.5880    2.1790    0.0000 N.pl3   1  LIG1       -0.3030
     10 C          -2.1670    3.0290    0.0000 C.3     1  LIG1        0.1123
     11 C          -3.5830    2.1880    0.0000 C.3     1  LIG1        0.1123
     12 N          -0.4790    2.1540    0.0000 N.am    1  LIG1       -0.1779
     13 C           0.5750    2.1540    0.0000 C.2     1  LIG1        0.2461
     14 O           1.0130    1.2170    0.0000 O.2     1  LIG1       -0.2730
     15 C           1.1080    2.9380    0.0000 C.3     1  LIG1        0.0968
     16 C          -0.5080   -1.2830    0.0000 C.2     1  LIG1        0.2680
     17 N           0.4580   -1.2830    0.0000 N.am    1  LIG1       -0.1954
     18 C           0.9750   -0.4170    0.0000 C.3     1  LIG1        0.1717
     19 C           2.0080   -0.4170    0.0000 C.3     1  LIG1        0.1092
     20 N           2.4920   -1.2580    0.0000 N.4     1  LIG1        0.3743
     21 C           3.4630   -1.0330    0.0000 C.3     1  LIG1        0.1385
     22 C           3.5790   -0.0710    0.0000 C.3     1  LIG1        0.0687
     23 C           2.6790    0.3330    0.0000 C.3     1  LIG1        0.0647
     24 C           2.1170   -2.2000    0.0000 C.3     1  LIG1        0.1385
     25 C           2.7580   -3.0250    0.0000 C.3     1  LIG1        0.0688
     26 O          -1.0170   -2.1380    0.0000 O.2     1  LIG1       -0.2683
@<TRIPOS>BOND
     1     1     2   ar
     2     1     6   ar
     3     1    16    1
     4     2     3   ar
     5     3     4   ar
     6     3    12    1
     7     4     5   ar
     8     4     9    1
     9     5     6   ar
    10     6     7    1
    11     7     8    1
    12     9    10    1
    13     9    11    1
    14    12    13   am
    15    13    14    2
    16    13    15    1
    17    16    17   am
    18    16    26    2
    19    17    18    1
    20    18    19    1
    21    19    20    1
    22    19    23    1
    23    20    21    1
    24    20    24    1
    25    21    22    1
    26    22    23    1
    27    24    25    1
