@<TRIPOS>MOLECULE
26294_ChemDiv_5947-0073
 17 19 0 0 0
SMALL
GASTEIGER
Energy = 0

@<TRIPOS>ATOM
      1 C           0.8710   -0.7540    0.0000 C.ar    1  LIG1        0.1640
      2 C           0.0000   -0.2540    0.0000 C.ar    1  LIG1        0.0903
      3 N           0.0000    0.7580    0.0000 N.pl3   1  LIG1       -0.2284
      4 C           0.8630    1.2670    0.0000 C.3     1  LIG1        0.1703
      5 C           1.7330    0.7670    0.0000 C.2     1  LIG1        0.2655
      6 N           1.7330   -0.2380    0.0000 N.am    1  LIG1       -0.1699
      7 O           2.5880    1.2670    0.0000 O.2     1  LIG1       -0.2711
      8 C           0.8630    2.2500    0.0000 C.3     1  LIG1        0.0333
      9 C          -0.8710   -0.7540    0.0000 C.ar    1  LIG1        0.0510
     10 C          -0.8710   -1.7500    0.0000 C.ar    1  LIG1        0.1500
     11 O           0.0000   -2.2460    0.0000 O.2     1  LIG1       -0.4201
     12 C           0.8710   -1.7500    0.0000 C.ar    1  LIG1        0.3626
     13 O           1.7630   -2.2460    0.0000 O.2     1  LIG1       -0.2430
     14 C          -1.7210   -2.2460    0.0000 C.ar    1  LIG1        0.0377
     15 C          -2.5920   -1.7500    0.0000 C.ar    1  LIG1        0.0031
     16 C          -2.5920   -0.7540    0.0000 C.ar    1  LIG1        0.0002
     17 C          -1.7210   -0.2540    0.0000 C.ar    1  LIG1        0.0044
@<TRIPOS>BOND
     1     1     2   ar
     2     1     6    1
     3     1    12   ar
     4     2     3    1
     5     2     9   ar
     6     3     4    1
     7     4     5    1
     8     4     8    1
     9     5     6   am
    10     5     7    2
    11     9    10   ar
    12     9    17   ar
    13    10    11   ar
    14    10    14   ar
    15    11    12   ar
    16    12    13    2
    17    14    15   ar
    18    15    16   ar
    19    16    17   ar
