@<TRIPOS>MOLECULE
26296_ChemDiv_G312-0116
 26 28 0 0 0
SMALL
GASTEIGER
Energy = 0

@<TRIPOS>ATOM
      1 C          -1.2210   -0.9670    0.0000 C.ar    1  LIG1        0.1639
      2 C          -2.1170   -0.4500    0.0000 C.ar    1  LIG1        0.0899
      3 C          -2.9960   -0.9670    0.0000 C.ar    1  LIG1        0.0510
      4 C          -3.0000   -2.0000    0.0000 C.ar    1  LIG1        0.1500
      5 O          -2.1170   -2.5080    0.0000 O.2     1  LIG1       -0.4201
      6 C          -1.2210   -2.0000    0.0000 C.ar    1  LIG1        0.3626
      7 O          -0.3710   -2.4960    0.0000 O.2     1  LIG1       -0.2430
      8 C          -3.8790   -2.5040    0.0000 C.ar    1  LIG1        0.0377
      9 C          -4.7630   -1.9960    0.0000 C.ar    1  LIG1        0.0031
     10 C          -4.7630   -0.9750    0.0000 C.ar    1  LIG1        0.0002
     11 C          -3.8790   -0.4540    0.0000 C.ar    1  LIG1        0.0044
     12 N          -2.1170    0.5380    0.0000 N.pl3   1  LIG1       -0.2360
     13 C          -1.2540    1.0330    0.0000 C.3     1  LIG1        0.1123
     14 C          -1.2540    2.0210    0.0000 C.3     1  LIG1        0.0233
     15 C          -0.4000    2.5130    0.0000 C.3     1  LIG1        0.0019
     16 N          -0.3580   -0.4830    0.0000 N.am    1  LIG1       -0.1713
     17 C           0.4960   -0.9750    0.0000 C.2     1  LIG1        0.2461
     18 O           0.4790   -1.9540    0.0000 O.2     1  LIG1       -0.2730
     19 C           1.3460   -0.4880    0.0000 C.3     1  LIG1        0.0919
     20 C           2.1920   -0.9790    0.0000 C.3     1  LIG1        0.0360
     21 C           3.0540   -0.4880    0.0000 C.ar    1  LIG1       -0.0217
     22 C           3.0580    0.4880    0.0000 C.ar    1  LIG1       -0.0043
     23 C           3.9170    0.9790    0.0000 C.ar    1  LIG1       -0.0003
     24 C           4.7580    0.4880    0.0000 C.ar    1  LIG1       -0.0000
     25 C           4.7580   -0.5040    0.0000 C.ar    1  LIG1       -0.0003
     26 C           3.8920   -0.9790    0.0000 C.ar    1  LIG1       -0.0043
@<TRIPOS>BOND
     1     1     2   ar
     2     1     6   ar
     3     1    16    1
     4     2     3   ar
     5     2    12    1
     6     3     4   ar
     7     3    11   ar
     8     4     5   ar
     9     4     8   ar
    10     5     6   ar
    11     6     7    2
    12     8     9   ar
    13     9    10   ar
    14    10    11   ar
    15    12    13    1
    16    13    14    1
    17    14    15    1
    18    16    17   am
    19    17    18    2
    20    17    19    1
    21    19    20    1
    22    20    21    1
    23    21    22   ar
    24    21    26   ar
    25    22    23   ar
    26    23    24   ar
    27    24    25   ar
    28    25    26   ar
