@<TRIPOS>MOLECULE
26293_ChemDiv_1003-0042
 24 27 0 0 0
SMALL
GASTEIGER
Energy = 0

@<TRIPOS>ATOM
      1 N          -2.0500    1.0040    0.0000 N.ar    1  LIG1        0.0972
      2 C          -1.8670    0.0830    0.0000 C.ar    1  LIG1        0.3160
      3 C          -2.7460   -0.4130    0.0000 C.ar    1  LIG1        0.1619
      4 N          -3.4790    0.2250    0.0000 N.ar    1  LIG1       -0.2404
      5 C          -3.0580    1.1420    0.0000 C.ar    1  LIG1        0.3692
      6 C          -3.6130    1.9540    0.0000 C.ar    1  LIG1        0.0965
      7 C          -4.5920    1.8880    0.0000 C.ar    1  LIG1        0.0096
      8 C          -5.0420    0.9750    0.0000 C.ar    1  LIG1        0.0194
      9 C          -4.4830    0.1630    0.0000 C.ar    1  LIG1        0.0859
     10 C          -1.0000   -0.4460    0.0000 C.ar    1  LIG1        0.0731
     11 C          -0.1460    0.0500    0.0000 C.ar    1  LIG1        0.0228
     12 C           0.7130   -0.4500    0.0000 C.ar    1  LIG1        0.0739
     13 N           1.5830    0.0330    0.0000 N.am    1  LIG1       -0.1754
     14 C           2.4580   -0.4460    0.0000 C.2     1  LIG1        0.2690
     15 O           2.4580   -1.4830    0.0000 O.2     1  LIG1       -0.2680
     16 C           3.2290    0.0670    0.0000 C.ar    1  LIG1        0.0554
     17 C           4.1830   -0.3710    0.0000 C.ar    1  LIG1        0.0046
     18 C           5.0380    0.1630    0.0000 C.ar    1  LIG1        0.0001
     19 C           5.0380    1.1420    0.0000 C.ar    1  LIG1        0.0000
     20 C           4.0750    1.6380    0.0000 C.ar    1  LIG1        0.0001
     21 C           3.2290    1.0830    0.0000 C.ar    1  LIG1        0.0046
     22 C           0.7130   -1.4540    0.0000 C.ar    1  LIG1        0.0166
     23 C          -0.1630   -1.9500    0.0000 C.ar    1  LIG1        0.0015
     24 C          -0.9920   -1.4540    0.0000 C.ar    1  LIG1        0.0063
@<TRIPOS>BOND
     1     1     2   ar
     2     1     5   ar
     3     2     3   ar
     4     2    10    1
     5     3     4   ar
     6     4     5   ar
     7     4     9   ar
     8     5     6   ar
     9     6     7   ar
    10     7     8   ar
    11     8     9   ar
    12    10    11   ar
    13    10    24   ar
    14    11    12   ar
    15    12    13    1
    16    12    22   ar
    17    13    14   am
    18    14    15    2
    19    14    16    1
    20    16    17   ar
    21    16    21   ar
    22    17    18   ar
    23    18    19   ar
    24    19    20   ar
    25    20    21   ar
    26    22    23   ar
    27    23    24   ar
