@<TRIPOS>MOLECULE
26299_ChemDiv_2712-3805
 22 25 0 0 0
SMALL
GASTEIGER
Energy = 0

@<TRIPOS>ATOM
      1 N          -0.4750    0.2880    0.0000 N.ar    1  LIG1       -0.2265
      2 C          -0.1380   -0.6750    0.0000 C.ar    1  LIG1        0.1477
      3 N          -0.9380   -1.2830    0.0000 N.ar    1  LIG1       -0.2888
      4 C          -1.7420   -0.7380    0.0000 C.ar    1  LIG1        0.0830
      5 C          -1.4960    0.2330    0.0000 C.ar    1  LIG1        0.0989
      6 C          -2.1040    1.0170    0.0000 C.ar    1  LIG1        0.0191
      7 C          -3.0710    0.8750    0.0000 C.ar    1  LIG1        0.0015
      8 C          -3.7000    1.6630    0.0000 C.ar    1  LIG1        0.0000
      9 C          -3.3380    2.5880    0.0000 C.ar    1  LIG1        0.0000
     10 C          -2.3460    2.7330    0.0000 C.ar    1  LIG1        0.0000
     11 C          -1.7380    1.9500    0.0000 C.ar    1  LIG1        0.0015
     12 C          -2.6500   -1.1580    0.0000 C.ar    1  LIG1        0.0191
     13 C          -2.7330   -2.1460    0.0000 C.ar    1  LIG1        0.0031
     14 C          -1.9210   -2.7290    0.0000 C.ar    1  LIG1        0.0191
     15 C          -1.0170   -2.3080    0.0000 C.ar    1  LIG1        0.0814
     16 C           0.8170   -0.9540    0.0000 C.ar    1  LIG1        0.0346
     17 C           1.0580   -1.9210    0.0000 C.ar    1  LIG1        0.0053
     18 C           2.0080   -2.1880    0.0000 C.ar    1  LIG1        0.0297
     19 C           2.7290   -1.4960    0.0000 C.ar    1  LIG1        0.1401
     20 C           2.4880   -0.5290    0.0000 C.ar    1  LIG1        0.0297
     21 C           1.5250   -0.2420    0.0000 C.ar    1  LIG1        0.0053
     22 F           3.7000   -1.7670    0.0000 F       1  LIG1       -0.2042
@<TRIPOS>BOND
     1     1     2   ar
     2     1     5   ar
     3     2     3   ar
     4     2    16    1
     5     3     4   ar
     6     3    15   ar
     7     4     5   ar
     8     4    12   ar
     9     5     6    1
    10     6     7   ar
    11     6    11   ar
    12     7     8   ar
    13     8     9   ar
    14     9    10   ar
    15    10    11   ar
    16    12    13   ar
    17    13    14   ar
    18    14    15   ar
    19    16    17   ar
    20    16    21   ar
    21    17    18   ar
    22    18    19   ar
    23    19    20   ar
    24    19    22    1
    25    20    21   ar
