@<TRIPOS>MOLECULE
26308_ChemDiv_D011-6068
 24 25 0 0 0
SMALL
GASTEIGER
Energy = 0

@<TRIPOS>ATOM
      1 C          -0.6130    2.0710    0.0000 C.ar    1  LIG1        0.1221
      2 N          -1.2170    2.8790    0.0000 N.ar    1  LIG1       -0.2309
      3 C          -2.1790    2.5630    0.0000 C.ar    1  LIG1        0.0983
      4 C          -2.1630    1.5500    0.0000 C.ar    1  LIG1        0.0786
      5 N          -1.2000    1.2540    0.0000 N.ar    1  LIG1       -0.3148
      6 C          -0.7000    0.3920    0.0000 C.3     1  LIG1        0.1072
      7 C          -1.1960   -0.4580    0.0000 C.3     1  LIG1        0.0245
      8 C          -0.6960   -1.3290    0.0000 C.3     1  LIG1        0.0020
      9 C          -1.1960   -2.1920    0.0000 C.3     1  LIG1        0.0001
     10 C          -2.1920   -2.1920    0.0000 C.3     1  LIG1        0.0000
     11 C          -2.6920   -3.0580    0.0000 C.3     1  LIG1        0.0000
     12 C          -3.0290    1.0500    0.0000 C.ar    1  LIG1        0.0188
     13 C          -3.9000    1.5540    0.0000 C.ar    1  LIG1        0.0016
     14 C          -3.9000    2.5630    0.0000 C.ar    1  LIG1        0.0016
     15 C          -3.0290    3.0630    0.0000 C.ar    1  LIG1        0.0206
     16 C           0.3880    2.0790    0.0000 C.3     1  LIG1        0.0873
     17 C           0.8880    1.2170    0.0000 C.3     1  LIG1        0.1230
     18 N           1.8880    1.2250    0.0000 N.am    1  LIG1       -0.2050
     19 C           2.3960    0.3630    0.0000 C.2     1  LIG1        0.2404
     20 C           3.3920    0.3710    0.0000 C.3     1  LIG1        0.0705
     21 C           3.8790    1.2380    0.0000 C.3     1  LIG1        0.0091
     22 C           3.1420   -0.5960    0.0000 C.3     1  LIG1        0.0091
     23 C           3.8960   -0.4880    0.0000 C.3     1  LIG1        0.0091
     24 O           1.9000   -0.5040    0.0000 O.2     1  LIG1       -0.2734
@<TRIPOS>BOND
     1     1     2   ar
     2     1     5   ar
     3     1    16    1
     4     2     3   ar
     5     3     4   ar
     6     3    15   ar
     7     4     5   ar
     8     4    12   ar
     9     5     6    1
    10     6     7    1
    11     7     8    1
    12     8     9    1
    13     9    10    1
    14    10    11    1
    15    12    13   ar
    16    13    14   ar
    17    14    15   ar
    18    16    17    1
    19    17    18    1
    20    18    19   am
    21    19    20    1
    22    19    24    2
    23    20    21    1
    24    20    22    1
    25    20    23    1
