@<TRIPOS>MOLECULE
26309_ChemDiv_3257-4430
 32 37 0 0 0
SMALL
GASTEIGER
Energy = 0

@<TRIPOS>ATOM
      1 N           1.1880    1.0290    0.0000 N.am    1  LIG1       -0.2206
      2 C           1.1210    1.9130    0.0000 C.2     1  LIG1        0.2324
      3 C           0.2130    2.0920    0.0000 C.3     1  LIG1        0.0944
      4 C          -0.2670    1.3290    0.0000 C.3     1  LIG1        0.0944
      5 C           0.3500    0.6420    0.0000 C.2     1  LIG1        0.2324
      6 O           0.1500   -0.2830    0.0000 O.2     1  LIG1       -0.2744
      7 C          -3.1540    2.4380    0.0000 C.3     1  LIG1        0.0530
      8 C          -2.5040    3.1000    0.0000 C.ar    1  LIG1       -0.0216
      9 C          -1.6290    2.8460    0.0000 C.ar    1  LIG1       -0.0216
     10 C          -1.4000    1.9580    0.0000 C.3     1  LIG1        0.0530
     11 C          -2.0500    1.3170    0.0000 C.ar    1  LIG1       -0.0216
     12 C          -2.9170    1.5420    0.0000 C.ar    1  LIG1       -0.0216
     13 C          -3.5670    0.9000    0.0000 C.ar    1  LIG1       -0.0042
     14 C          -3.3460   -0.0040    0.0000 C.ar    1  LIG1       -0.0003
     15 C          -2.4540   -0.2580    0.0000 C.ar    1  LIG1       -0.0003
     16 C          -1.8130    0.3920    0.0000 C.ar    1  LIG1       -0.0042
     17 C          -0.9750    3.4960    0.0000 C.ar    1  LIG1       -0.0042
     18 C          -1.1750    4.3580    0.0000 C.ar    1  LIG1       -0.0003
     19 C          -2.0920    4.6250    0.0000 C.ar    1  LIG1       -0.0003
     20 C          -2.7580    3.9830    0.0000 C.ar    1  LIG1       -0.0042
     21 O           1.8040    2.5330    0.0000 O.2     1  LIG1       -0.2744
     22 C           1.9790    0.5080    0.0000 C.3     1  LIG1        0.1877
     23 C           1.9790   -0.4170    0.0000 C.2     1  LIG1        0.2663
     24 N           2.7710   -0.8630    0.0000 N.am    1  LIG1       -0.1778
     25 C           2.7710   -1.7880    0.0000 C.ar    1  LIG1        0.0736
     26 C           1.9790   -2.2380    0.0000 C.ar    1  LIG1        0.0199
     27 C           1.9790   -3.1710    0.0000 C.ar    1  LIG1        0.0434
     28 C           2.7710   -3.6250    0.0000 C.ar    1  LIG1        0.1958
     29 C           3.5630   -3.1710    0.0000 C.ar    1  LIG1        0.0434
     30 C           3.5630   -2.2630    0.0000 C.ar    1  LIG1        0.0199
     31 O           2.7580   -4.6250    0.0000 O.3     1  LIG1       -0.2866
     32 O           1.1880   -0.8630    0.0000 O.2     1  LIG1       -0.2711
@<TRIPOS>BOND
     1     1     2   am
     2     1     5   am
     3     1    22    1
     4     2     3    1
     5     2    21    2
     6     3     4    1
     7     3    10    1
     8     4     5    1
     9     4     7    1
    10     5     6    2
    11     7     8    1
    12     7    12    1
    13     8     9   ar
    14     8    20   ar
    15     9    10    1
    16     9    17   ar
    17    10    11    1
    18    11    12   ar
    19    11    16   ar
    20    12    13   ar
    21    13    14   ar
    22    14    15   ar
    23    15    16   ar
    24    17    18   ar
    25    18    19   ar
    26    19    20   ar
    27    22    23    1
    28    23    24   am
    29    23    32    2
    30    24    25    1
    31    25    26   ar
    32    25    30   ar
    33    26    27   ar
    34    27    28   ar
    35    28    29   ar
    36    28    31    1
    37    29    30   ar
