@<TRIPOS>MOLECULE
26301_ChemDiv_3312-0096
 20 23 0 0 0
SMALL
GASTEIGER
Energy = 0

@<TRIPOS>ATOM
      1 C          -0.3210    1.2750    0.0000 C.ar    1  LIG1        0.3689
      2 N          -0.0920    0.2960    0.0000 N.ar    1  LIG1        0.0972
      3 C           0.9040    0.2000    0.0000 C.ar    1  LIG1        0.3160
      4 C           1.3080    1.1500    0.0000 C.ar    1  LIG1        0.1619
      5 N           0.5500    1.7670    0.0000 N.ar    1  LIG1       -0.2404
      6 C           0.5500    2.7790    0.0000 C.ar    1  LIG1        0.0859
      7 C          -0.3210    3.2750    0.0000 C.ar    1  LIG1        0.0194
      8 C          -1.1790    2.7670    0.0000 C.ar    1  LIG1        0.0091
      9 C          -1.1790    1.7670    0.0000 C.ar    1  LIG1        0.0890
     10 C          -2.0380    1.2710    0.0000 C.ar    1  LIG1        0.0078
     11 C          -2.9040    1.7670    0.0000 C.ar    1  LIG1        0.0003
     12 C          -2.9040    2.7670    0.0000 C.ar    1  LIG1        0.0000
     13 C          -2.0380    3.2750    0.0000 C.ar    1  LIG1        0.0003
     14 C           1.3920   -0.6540    0.0000 C.ar    1  LIG1        0.0719
     15 C           0.9040   -1.5380    0.0000 C.ar    1  LIG1        0.0071
     16 C           1.4040   -2.4000    0.0000 C.ar    1  LIG1        0.0116
     17 C           2.3920   -2.4000    0.0000 C.ar    1  LIG1        0.0577
     18 C           2.9000   -1.5250    0.0000 C.ar    1  LIG1        0.0116
     19 C           2.3920   -0.6670    0.0000 C.ar    1  LIG1        0.0071
     20 CL          2.8830   -3.2710    0.0000 Cl      1  LIG1       -0.0822
@<TRIPOS>BOND
     1     1     2   ar
     2     1     5   ar
     3     1     9   ar
     4     2     3   ar
     5     3     4   ar
     6     3    14    1
     7     4     5   ar
     8     5     6   ar
     9     6     7   ar
    10     7     8   ar
    11     8     9   ar
    12     8    13   ar
    13     9    10   ar
    14    10    11   ar
    15    11    12   ar
    16    12    13   ar
    17    14    15   ar
    18    14    19   ar
    19    15    16   ar
    20    16    17   ar
    21    17    18   ar
    22    17    20    1
    23    18    19   ar
