@<TRIPOS>MOLECULE
26306_ChemDiv_D011-4255
 19 20 0 0 0
SMALL
GASTEIGER
Energy = 0

@<TRIPOS>ATOM
      1 N          -0.6790    3.3170    0.0000 N.ar    1  LIG1       -0.2310
      2 C          -0.0830    2.5000    0.0000 C.ar    1  LIG1        0.1203
      3 N          -0.6750    1.6830    0.0000 N.ar    1  LIG1       -0.3149
      4 C          -1.6290    1.9830    0.0000 C.ar    1  LIG1        0.0786
      5 C          -1.6330    2.9880    0.0000 C.ar    1  LIG1        0.0983
      6 C          -2.5040    3.4960    0.0000 C.ar    1  LIG1        0.0206
      7 C          -3.3670    2.9880    0.0000 C.ar    1  LIG1        0.0016
      8 C          -3.3670    1.9830    0.0000 C.ar    1  LIG1        0.0016
      9 C          -2.5040    1.4830    0.0000 C.ar    1  LIG1        0.0188
     10 C          -0.1750    0.8210    0.0000 C.3     1  LIG1        0.1072
     11 C          -0.6670   -0.0420    0.0000 C.3     1  LIG1        0.0245
     12 C          -0.1670   -0.9040    0.0000 C.3     1  LIG1        0.0020
     13 C          -0.6580   -1.7670    0.0000 C.3     1  LIG1        0.0001
     14 C          -0.1630   -2.6290    0.0000 C.3     1  LIG1        0.0000
     15 C          -0.6580   -3.4920    0.0000 C.3     1  LIG1        0.0000
     16 C           0.7750    2.0040    0.0000 C.3     1  LIG1        0.0666
     17 C           1.6380    2.5040    0.0000 C.3     1  LIG1        0.0434
     18 C           2.5000    2.0130    0.0000 C.3     1  LIG1        0.1826
     19 O           3.3630    2.5130    0.0000 O.3     1  LIG1       -0.2204
@<TRIPOS>BOND
     1     1     2   ar
     2     1     5   ar
     3     2     3   ar
     4     2    16    1
     5     3     4   ar
     6     3    10    1
     7     4     5   ar
     8     4     9   ar
     9     5     6   ar
    10     6     7   ar
    11     7     8   ar
    12     8     9   ar
    13    10    11    1
    14    11    12    1
    15    12    13    1
    16    13    14    1
    17    14    15    1
    18    16    17    1
    19    17    18    1
    20    18    19    1
