@<TRIPOS>MOLECULE
26307_ChemDiv_1082-0529
 31 36 0 0 0
SMALL
GASTEIGER
Energy = 0

@<TRIPOS>ATOM
      1 N           0.4040    0.0500    0.0000 N.am    1  LIG1       -0.2097
      2 C          -0.0040   -0.5630    0.0000 C.2     1  LIG1        0.2333
      3 C          -0.7380   -0.3580    0.0000 C.3     1  LIG1        0.0944
      4 C          -0.7630    0.3630    0.0000 C.3     1  LIG1        0.0944
      5 C          -0.0920    0.6170    0.0000 C.2     1  LIG1        0.2333
      6 O           0.1420    1.3920    0.0000 O.2     1  LIG1       -0.2744
      7 C          -4.0790    1.1170    0.0000 C.3     1  LIG1        0.0530
      8 C          -4.7210    0.3460    0.0000 C.ar    1  LIG1       -0.0216
      9 C          -4.7210   -0.4460    0.0000 C.ar    1  LIG1       -0.0216
     10 C          -4.0960   -1.2710    0.0000 C.3     1  LIG1        0.0530
     11 C          -3.4170   -0.4460    0.0000 C.ar    1  LIG1       -0.0216
     12 C          -3.4170    0.3460    0.0000 C.ar    1  LIG1       -0.0216
     13 C          -2.7420    0.7210    0.0000 C.ar    1  LIG1       -0.0042
     14 C          -2.0920    0.3460    0.0000 C.ar    1  LIG1       -0.0003
     15 C          -2.0920   -0.4460    0.0000 C.ar    1  LIG1       -0.0003
     16 C          -2.7420   -0.8170    0.0000 C.ar    1  LIG1       -0.0042
     17 C          -5.3960   -0.8170    0.0000 C.ar    1  LIG1       -0.0042
     18 C          -6.0380   -0.4460    0.0000 C.ar    1  LIG1       -0.0003
     19 C          -6.0380    0.3460    0.0000 C.ar    1  LIG1       -0.0003
     20 C          -5.3960    0.7210    0.0000 C.ar    1  LIG1       -0.0042
     21 O           0.2540   -1.3170    0.0000 O.2     1  LIG1       -0.2744
     22 C           1.1830    0.0960    0.0000 C.3     1  LIG1        0.2146
     23 N           1.5790   -0.5460    0.0000 N.pl3   1  LIG1       -0.2152
     24 C           2.5670   -0.5330    0.0000 C.ar    1  LIG1        0.0675
     25 C           3.0830   -1.3880    0.0000 C.ar    1  LIG1        0.0193
     26 C           4.0790   -1.3630    0.0000 C.ar    1  LIG1        0.0382
     27 C           4.5670   -0.5130    0.0000 C.ar    1  LIG1        0.1388
     28 C           4.0420    0.3460    0.0000 C.ar    1  LIG1        0.0382
     29 C           3.0460    0.3290    0.0000 C.ar    1  LIG1        0.0193
     30 O           5.5540   -0.5130    0.0000 O.3     1  LIG1       -0.4714
     31 C           6.0380   -1.3750    0.0000 C.3     1  LIG1        0.2525
@<TRIPOS>BOND
     1     1     2   am
     2     1     5   am
     3     1    22    1
     4     2     3    1
     5     2    21    2
     6     3     4    1
     7     3    10    1
     8     4     5    1
     9     4     7    1
    10     5     6    2
    11     7     8    1
    12     7    12    1
    13     8     9   ar
    14     8    20   ar
    15     9    10    1
    16     9    17   ar
    17    10    11    1
    18    11    12   ar
    19    11    16   ar
    20    12    13   ar
    21    13    14   ar
    22    14    15   ar
    23    15    16   ar
    24    17    18   ar
    25    18    19   ar
    26    19    20   ar
    27    22    23    1
    28    23    24    1
    29    24    25   ar
    30    24    29   ar
    31    25    26   ar
    32    26    27   ar
    33    27    28   ar
    34    27    30    1
    35    28    29   ar
    36    30    31    1
