@<TRIPOS>MOLECULE
26311_ChemDiv_3285-0292
 34 39 0 0 0
SMALL
GASTEIGER
Energy = 0

@<TRIPOS>ATOM
      1 N           0.6710   -0.4920    0.0000 N.am    1  LIG1       -0.2107
      2 C           0.3290    0.3920    0.0000 C.2     1  LIG1        0.2333
      3 C          -0.6380    0.9460    0.0000 C.3     1  LIG1        0.0944
      4 C          -0.6380   -1.8960    0.0000 C.3     1  LIG1        0.0944
      5 C           0.3250   -1.2920    0.0000 C.2     1  LIG1        0.2333
      6 O           1.0540   -1.8500    0.0000 O.2     1  LIG1       -0.2744
      7 C          -3.5290   -1.1670    0.0000 C.3     1  LIG1        0.0530
      8 C          -4.2040   -0.7790    0.0000 C.ar    1  LIG1       -0.0216
      9 C          -4.2170   -0.0080    0.0000 C.ar    1  LIG1       -0.0216
     10 C          -3.5460    0.3920    0.0000 C.3     1  LIG1        0.0530
     11 C          -2.8670   -0.0040    0.0000 C.ar    1  LIG1       -0.0216
     12 C          -2.8630   -0.7580    0.0000 C.ar    1  LIG1       -0.0216
     13 C          -2.1830   -1.1460    0.0000 C.ar    1  LIG1       -0.0042
     14 C          -1.5080   -0.7380    0.0000 C.ar    1  LIG1       -0.0003
     15 C          -1.5080    0.0130    0.0000 C.ar    1  LIG1       -0.0003
     16 C          -2.1880    0.4000    0.0000 C.ar    1  LIG1       -0.0042
     17 C          -4.8960    0.3670    0.0000 C.ar    1  LIG1       -0.0042
     18 C          -5.5580   -0.0330    0.0000 C.ar    1  LIG1       -0.0003
     19 C          -5.5580   -0.7960    0.0000 C.ar    1  LIG1       -0.0003
     20 C          -4.8830   -1.1710    0.0000 C.ar    1  LIG1       -0.0042
     21 O           0.9540    1.0080    0.0000 O.2     1  LIG1       -0.2744
     22 C           1.4540   -0.4920    0.0000 C.3     1  LIG1        0.2031
     23 N           1.8420    0.1710    0.0000 N.am    1  LIG1       -0.2402
     24 C           1.8420    1.3500    0.0000 C.2     1  LIG1        0.2311
     25 O           2.6750    1.9000    0.0000 O.2     1  LIG1       -0.2745
     26 C           1.0080    1.9000    0.0000 C.3     1  LIG1        0.0952
     27 C           2.6290    0.1710    0.0000 C.ar    1  LIG1        0.0556
     28 C           3.0170   -0.4920    0.0000 C.ar    1  LIG1        0.0181
     29 C           3.7920   -0.4920    0.0000 C.ar    1  LIG1        0.0382
     30 C           4.1960    0.1710    0.0000 C.ar    1  LIG1        0.1388
     31 C           3.8080    0.8500    0.0000 C.ar    1  LIG1        0.0382
     32 C           3.0170    0.8500    0.0000 C.ar    1  LIG1        0.0181
     33 O           5.0210    0.1710    0.0000 O.3     1  LIG1       -0.4714
     34 C           5.5540   -0.5670    0.0000 C.3     1  LIG1        0.2525
@<TRIPOS>BOND
     1     1     2   am
     2     1     5   am
     3     1    22    1
     4     2     3    1
     5     2    21    2
     6     3     4    1
     7     3    10    1
     8     4     5    1
     9     4     7    1
    10     5     6    2
    11     7     8    1
    12     7    12    1
    13     8     9   ar
    14     8    20   ar
    15     9    10    1
    16     9    17   ar
    17    10    11    1
    18    11    12   ar
    19    11    16   ar
    20    12    13   ar
    21    13    14   ar
    22    14    15   ar
    23    15    16   ar
    24    17    18   ar
    25    18    19   ar
    26    19    20   ar
    27    22    23    1
    28    23    24   am
    29    23    27    1
    30    24    25    2
    31    24    26    1
    32    27    28   ar
    33    27    32   ar
    34    28    29   ar
    35    29    30   ar
    36    30    31   ar
    37    30    33    1
    38    31    32   ar
    39    33    34    1
