@<TRIPOS>MOLECULE
26313_ChemDiv_3359-0222
 36 41 0 0 0
SMALL
GASTEIGER
Energy = 0

@<TRIPOS>ATOM
      1 N           0.5000    0.0170    0.0000 N.am    1  LIG1       -0.2228
      2 C          -0.0040   -0.7130    0.0000 C.2     1  LIG1        0.2323
      3 C          -0.8540   -0.4250    0.0000 C.3     1  LIG1        0.0944
      4 C          -0.8540    0.4460    0.0000 C.3     1  LIG1        0.0944
      5 C          -0.0040    0.7330    0.0000 C.2     1  LIG1        0.2323
      6 O           0.2580    1.5670    0.0000 O.2     1  LIG1       -0.2744
      7 C          -4.0420    0.8130    0.0000 C.3     1  LIG1        0.0530
      8 C          -3.2880    0.3830    0.0000 C.ar    1  LIG1       -0.0216
      9 C          -3.2790   -0.5000    0.0000 C.ar    1  LIG1       -0.0216
     10 C          -4.0420   -0.9500    0.0000 C.3     1  LIG1        0.0530
     11 C          -4.8040   -0.5080    0.0000 C.ar    1  LIG1       -0.0216
     12 C          -4.8040    0.3830    0.0000 C.ar    1  LIG1       -0.0216
     13 C          -5.5750    0.8130    0.0000 C.ar    1  LIG1       -0.0042
     14 C          -6.3330    0.3830    0.0000 C.ar    1  LIG1       -0.0003
     15 C          -6.3210   -0.5250    0.0000 C.ar    1  LIG1       -0.0003
     16 C          -5.5750   -0.9500    0.0000 C.ar    1  LIG1       -0.0042
     17 C          -2.5130   -0.9330    0.0000 C.ar    1  LIG1       -0.0042
     18 C          -1.7630   -0.4830    0.0000 C.ar    1  LIG1       -0.0003
     19 C          -1.7630    0.3880    0.0000 C.ar    1  LIG1       -0.0003
     20 C          -2.5380    0.8290    0.0000 C.ar    1  LIG1       -0.0042
     21 O           0.2580   -1.5630    0.0000 O.2     1  LIG1       -0.2744
     22 C           1.3960    0.0210    0.0000 C.3     1  LIG1        0.1613
     23 C           1.8380   -0.7540    0.0000 C.2     1  LIG1        0.2641
     24 N           2.7330   -0.7540    0.0000 N.am    1  LIG1       -0.1778
     25 C           3.6880   -0.7710    0.0000 C.ar    1  LIG1        0.0734
     26 C           4.1130    0.0040    0.0000 C.ar    1  LIG1        0.0171
     27 C           4.9960    0.0170    0.0000 C.ar    1  LIG1        0.0080
     28 C           5.4630   -0.7540    0.0000 C.ar    1  LIG1        0.0347
     29 BR          6.3330   -0.7540    0.0000 Br      1  LIG1       -0.0490
     30 C           5.0380   -1.5170    0.0000 C.ar    1  LIG1        0.0080
     31 C           4.1460   -1.5580    0.0000 C.ar    1  LIG1        0.0171
     32 O           1.2170   -1.3750    0.0000 O.2     1  LIG1       -0.2712
     33 C           1.8380    0.8080    0.0000 C.3     1  LIG1        0.0413
     34 C           2.7330    0.8080    0.0000 C.3     1  LIG1        0.0598
     35 S           3.1750    1.5420    0.0000 S.3     1  LIG1       -0.1393
     36 C           4.0710    1.5420    0.0000 C.3     1  LIG1        0.0692
@<TRIPOS>BOND
     1     1     2   am
     2     1     5   am
     3     1    22    1
     4     2     3    1
     5     2    21    2
     6     3     4    1
     7     3    10    1
     8     4     5    1
     9     4     7    1
    10     5     6    2
    11     7     8    1
    12     7    12    1
    13     8     9   ar
    14     8    20   ar
    15     9    10    1
    16     9    17   ar
    17    10    11    1
    18    11    12   ar
    19    11    16   ar
    20    12    13   ar
    21    13    14   ar
    22    14    15   ar
    23    15    16   ar
    24    17    18   ar
    25    18    19   ar
    26    19    20   ar
    27    22    23    1
    28    22    33    1
    29    23    24   am
    30    23    32    2
    31    24    25    1
    32    25    26   ar
    33    25    31   ar
    34    26    27   ar
    35    27    28   ar
    36    28    29    1
    37    28    30   ar
    38    30    31   ar
    39    33    34    1
    40    34    35    1
    41    35    36    1
