@<TRIPOS>MOLECULE
26319_ChemDiv_3359-0234
 39 44 0 0 0
SMALL
GASTEIGER
Energy = 0

@<TRIPOS>ATOM
      1 N          -0.2540    0.0130    0.0000 N.am    1  LIG1       -0.2228
      2 C          -0.7750   -0.7250    0.0000 C.2     1  LIG1        0.2323
      3 C          -1.6290   -0.4380    0.0000 C.3     1  LIG1        0.0944
      4 C          -1.6290    0.4670    0.0000 C.3     1  LIG1        0.0944
      5 C          -0.7750    0.7330    0.0000 C.2     1  LIG1        0.2323
      6 O          -0.4960    1.5830    0.0000 O.2     1  LIG1       -0.2744
      7 C          -4.8500    0.8210    0.0000 C.3     1  LIG1        0.0530
      8 C          -4.0670    0.3790    0.0000 C.ar    1  LIG1       -0.0216
      9 C          -4.0670   -0.5000    0.0000 C.ar    1  LIG1       -0.0216
     10 C          -4.8330   -0.9420    0.0000 C.3     1  LIG1        0.0530
     11 C          -5.6170   -0.5000    0.0000 C.ar    1  LIG1       -0.0216
     12 C          -5.6170    0.3790    0.0000 C.ar    1  LIG1       -0.0216
     13 C          -6.3750    0.8210    0.0000 C.ar    1  LIG1       -0.0042
     14 C          -7.1500    0.3630    0.0000 C.ar    1  LIG1       -0.0003
     15 C          -7.1420   -0.5130    0.0000 C.ar    1  LIG1       -0.0003
     16 C          -6.3750   -0.9420    0.0000 C.ar    1  LIG1       -0.0042
     17 C          -3.2920   -0.9420    0.0000 C.ar    1  LIG1       -0.0042
     18 C          -2.5210   -0.5000    0.0000 C.ar    1  LIG1       -0.0003
     19 C          -2.5330    0.4040    0.0000 C.ar    1  LIG1       -0.0003
     20 C          -3.2920    0.8210    0.0000 C.ar    1  LIG1       -0.0042
     21 O          -0.4960   -1.5790    0.0000 O.2     1  LIG1       -0.2744
     22 C           0.6380    0.0210    0.0000 C.3     1  LIG1        0.1613
     23 C           1.0960   -0.7420    0.0000 C.2     1  LIG1        0.2641
     24 N           1.9830   -0.7420    0.0000 N.am    1  LIG1       -0.1778
     25 C           2.9580   -0.8000    0.0000 C.ar    1  LIG1        0.0734
     26 C           3.3880   -0.0040    0.0000 C.ar    1  LIG1        0.0168
     27 C           4.2670    0.0130    0.0000 C.ar    1  LIG1        0.0078
     28 C           4.7420   -0.7420    0.0000 C.ar    1  LIG1        0.0757
     29 C           5.6420   -0.7420    0.0000 C.2     1  LIG1        0.3413
     30 O           6.0880    0.0130    0.0000 O.2     1  LIG1       -0.2449
     31 O           6.2710   -1.3710    0.0000 O.3     1  LIG1       -0.4413
     32 C           7.1500   -1.3710    0.0000 C.3     1  LIG1        0.2560
     33 C           4.3130   -1.5420    0.0000 C.ar    1  LIG1        0.0078
     34 C           3.4250   -1.5540    0.0000 C.ar    1  LIG1        0.0168
     35 O           0.4540   -1.3710    0.0000 O.2     1  LIG1       -0.2712
     36 C           1.0960    0.7920    0.0000 C.3     1  LIG1        0.0413
     37 C           2.0000    0.7920    0.0000 C.3     1  LIG1        0.0598
     38 S           2.4540    1.5710    0.0000 S.3     1  LIG1       -0.1393
     39 C           3.3500    1.5710    0.0000 C.3     1  LIG1        0.0692
@<TRIPOS>BOND
     1     1     2   am
     2     1     5   am
     3     1    22    1
     4     2     3    1
     5     2    21    2
     6     3     4    1
     7     3    10    1
     8     4     5    1
     9     4     7    1
    10     5     6    2
    11     7     8    1
    12     7    12    1
    13     8     9   ar
    14     8    20   ar
    15     9    10    1
    16     9    17   ar
    17    10    11    1
    18    11    12   ar
    19    11    16   ar
    20    12    13   ar
    21    13    14   ar
    22    14    15   ar
    23    15    16   ar
    24    17    18   ar
    25    18    19   ar
    26    19    20   ar
    27    22    23    1
    28    22    36    1
    29    23    24   am
    30    23    35    2
    31    24    25    1
    32    25    26   ar
    33    25    34   ar
    34    26    27   ar
    35    27    28   ar
    36    28    29    1
    37    28    33   ar
    38    29    30    2
    39    29    31    1
    40    31    32    1
    41    33    34   ar
    42    36    37    1
    43    37    38    1
    44    38    39    1
