@<TRIPOS>MOLECULE
26316_ChemDiv_K783-6639
 16 17 0 0 0
SMALL
GASTEIGER
Energy = 0

@<TRIPOS>ATOM
      1 N           0.3000    0.4420    0.0000 N.ar    1  LIG1       -0.3037
      2 C           0.8880    1.2540    0.0000 C.ar    1  LIG1        0.1793
      3 N           0.2920    2.0630    0.0000 N.ar    1  LIG1       -0.2241
      4 C          -0.6580    1.7420    0.0000 C.ar    1  LIG1        0.0988
      5 C          -0.6540    0.7460    0.0000 C.ar    1  LIG1        0.0792
      6 C          -1.5290    0.2420    0.0000 C.ar    1  LIG1        0.0188
      7 C          -2.3880    0.7420    0.0000 C.ar    1  LIG1        0.0016
      8 C          -2.3880    1.7420    0.0000 C.ar    1  LIG1        0.0016
      9 C          -1.5290    2.2420    0.0000 C.ar    1  LIG1        0.0206
     10 C           1.8790    1.2580    0.0000 C.2     1  LIG1        0.2073
     11 O           2.3750    2.1250    0.0000 O.2     1  LIG1       -0.2881
     12 C           2.3830    0.3960    0.0000 C.3     1  LIG1        0.0806
     13 C           0.6130   -0.5080    0.0000 C.3     1  LIG1        0.1492
     14 C           0.1330   -1.3790    0.0000 C.2     1  LIG1        0.0732
     15 O           0.6540   -2.2380    0.0000 O.co2   1  LIG1       -0.5472
     16 O          -0.8580   -1.4040    0.0000 O.co2   1  LIG1       -0.5472
@<TRIPOS>BOND
     1     1     2   ar
     2     1     5   ar
     3     1    13    1
     4     2     3   ar
     5     2    10    1
     6     3     4   ar
     7     4     5   ar
     8     4     9   ar
     9     5     6   ar
    10     6     7   ar
    11     7     8   ar
    12     8     9   ar
    13    10    11    2
    14    10    12    1
    15    13    14    1
    16    14    15   ar
    17    14    16   ar
