@<TRIPOS>MOLECULE
26317_ChemDiv_3359-0228
 40 45 0 0 0
SMALL
GASTEIGER
Energy = 0

@<TRIPOS>ATOM
      1 N          -0.3750    0.3630    0.0000 N.am    1  LIG1       -0.2228
      2 C          -0.9000   -0.3790    0.0000 C.2     1  LIG1        0.2323
      3 C          -1.7580   -0.0750    0.0000 C.3     1  LIG1        0.0944
      4 C          -1.7580    0.8170    0.0000 C.3     1  LIG1        0.0944
      5 C          -0.9000    1.0790    0.0000 C.2     1  LIG1        0.2323
      6 O          -0.6380    1.9420    0.0000 O.2     1  LIG1       -0.2744
      7 C          -4.9920    1.1750    0.0000 C.3     1  LIG1        0.0530
      8 C          -4.2040    0.7290    0.0000 C.ar    1  LIG1       -0.0216
      9 C          -4.2040   -0.1500    0.0000 C.ar    1  LIG1       -0.0216
     10 C          -4.9630   -0.6080    0.0000 C.3     1  LIG1        0.0530
     11 C          -5.7580   -0.1500    0.0000 C.ar    1  LIG1       -0.0216
     12 C          -5.7580    0.7290    0.0000 C.ar    1  LIG1       -0.0216
     13 C          -6.5250    1.1630    0.0000 C.ar    1  LIG1       -0.0042
     14 C          -7.2960    0.7290    0.0000 C.ar    1  LIG1       -0.0003
     15 C          -7.2920   -0.1670    0.0000 C.ar    1  LIG1       -0.0003
     16 C          -6.5250   -0.6080    0.0000 C.ar    1  LIG1       -0.0042
     17 C          -3.4250   -0.5830    0.0000 C.ar    1  LIG1       -0.0042
     18 C          -2.6670   -0.1380    0.0000 C.ar    1  LIG1       -0.0003
     19 C          -2.6830    0.7460    0.0000 C.ar    1  LIG1       -0.0003
     20 C          -3.4250    1.1880    0.0000 C.ar    1  LIG1       -0.0042
     21 O          -0.6380   -1.2380    0.0000 O.2     1  LIG1       -0.2744
     22 C           0.5170    0.3750    0.0000 C.3     1  LIG1        0.1613
     23 C           0.9750   -0.3960    0.0000 C.2     1  LIG1        0.2641
     24 N           1.8710   -0.3960    0.0000 N.am    1  LIG1       -0.1778
     25 C           2.8500   -0.4380    0.0000 C.ar    1  LIG1        0.0734
     26 C           3.2790    0.3540    0.0000 C.ar    1  LIG1        0.0168
     27 C           4.1630    0.3630    0.0000 C.ar    1  LIG1        0.0078
     28 C           4.6380   -0.3960    0.0000 C.ar    1  LIG1        0.0757
     29 C           5.5380   -0.3960    0.0000 C.2     1  LIG1        0.3412
     30 O           5.9830    0.3630    0.0000 O.2     1  LIG1       -0.2449
     31 O           5.9830   -1.1750    0.0000 O.3     1  LIG1       -0.4454
     32 C           6.8670   -1.1750    0.0000 C.3     1  LIG1        0.2089
     33 C           7.2960   -1.9380    0.0000 C.3     1  LIG1        0.0513
     34 C           4.2080   -1.1830    0.0000 C.ar    1  LIG1        0.0078
     35 C           3.3170   -1.2130    0.0000 C.ar    1  LIG1        0.0168
     36 O           0.3290   -1.0380    0.0000 O.2     1  LIG1       -0.2712
     37 C           0.9750    1.1420    0.0000 C.3     1  LIG1        0.0413
     38 C           1.8830    1.1420    0.0000 C.3     1  LIG1        0.0598
     39 S           2.3420    1.9250    0.0000 S.3     1  LIG1       -0.1393
     40 C           3.2380    1.9250    0.0000 C.3     1  LIG1        0.0692
@<TRIPOS>BOND
     1     1     2   am
     2     1     5   am
     3     1    22    1
     4     2     3    1
     5     2    21    2
     6     3     4    1
     7     3    10    1
     8     4     5    1
     9     4     7    1
    10     5     6    2
    11     7     8    1
    12     7    12    1
    13     8     9   ar
    14     8    20   ar
    15     9    10    1
    16     9    17   ar
    17    10    11    1
    18    11    12   ar
    19    11    16   ar
    20    12    13   ar
    21    13    14   ar
    22    14    15   ar
    23    15    16   ar
    24    17    18   ar
    25    18    19   ar
    26    19    20   ar
    27    22    23    1
    28    22    37    1
    29    23    24   am
    30    23    36    2
    31    24    25    1
    32    25    26   ar
    33    25    35   ar
    34    26    27   ar
    35    27    28   ar
    36    28    29    1
    37    28    34   ar
    38    29    30    2
    39    29    31    1
    40    31    32    1
    41    32    33    1
    42    34    35   ar
    43    37    38    1
    44    38    39    1
    45    39    40    1
