@<TRIPOS>MOLECULE
26310_ChemDiv_D277-1669
 15 16 0 0 0
SMALL
GASTEIGER
Energy = 0

@<TRIPOS>ATOM
      1 N           0.9790    2.0460    0.0000 N.ar    1  LIG1       -0.2310
      2 C           1.5750    1.2380    0.0000 C.ar    1  LIG1        0.1207
      3 N           0.9880    0.4210    0.0000 N.ar    1  LIG1       -0.3149
      4 C           0.0380    0.7250    0.0000 C.ar    1  LIG1        0.0783
      5 C           0.0290    1.7330    0.0000 C.ar    1  LIG1        0.0980
      6 C          -0.8380    2.2330    0.0000 C.ar    1  LIG1        0.0160
      7 C          -1.6960    1.7330    0.0000 C.ar    1  LIG1       -0.0242
      8 C          -1.6960    0.7250    0.0000 C.ar    1  LIG1       -0.0243
      9 C          -0.8380    0.2250    0.0000 C.ar    1  LIG1        0.0142
     10 C          -2.5710    0.2250    0.0000 C.3     1  LIG1        0.0307
     11 C          -2.5580    2.2210    0.0000 C.3     1  LIG1        0.0307
     12 C           1.3040   -0.5250    0.0000 C.3     1  LIG1        0.1072
     13 C           0.6420   -1.2670    0.0000 C.3     1  LIG1        0.0245
     14 C           0.9000   -2.2290    0.0000 C.3     1  LIG1        0.0021
     15 C           2.5670    1.2460    0.0000 C.3     1  LIG1        0.0718
@<TRIPOS>BOND
     1     1     2   ar
     2     1     5   ar
     3     2     3   ar
     4     2    15    1
     5     3     4   ar
     6     3    12    1
     7     4     5   ar
     8     4     9   ar
     9     5     6   ar
    10     6     7   ar
    11     7     8   ar
    12     7    11    1
    13     8     9   ar
    14     8    10    1
    15    12    13    1
    16    13    14    1
