@<TRIPOS>MOLECULE
26323_ChemDiv_3464-8107
 24 26 0 0 0
SMALL
GASTEIGER
Energy = 0

@<TRIPOS>ATOM
      1 C           0.3920    1.2710    0.0000 C.ar    1  LIG1        0.3689
      2 N           1.1380    0.6040    0.0000 N.ar    1  LIG1        0.0972
      3 C           0.7380   -0.3080    0.0000 C.ar    1  LIG1        0.3160
      4 C          -0.2630   -0.2040    0.0000 C.ar    1  LIG1        0.1619
      5 N          -0.4630    0.7880    0.0000 N.ar    1  LIG1       -0.2404
      6 C          -1.3170    1.2710    0.0000 C.ar    1  LIG1        0.0856
      7 C          -1.3170    2.2670    0.0000 C.ar    1  LIG1        0.0152
      8 C          -0.4630    2.7790    0.0000 C.ar    1  LIG1       -0.0125
      9 C           0.3920    2.2670    0.0000 C.ar    1  LIG1        0.0923
     10 C          -0.4630    3.7830    0.0000 C.3     1  LIG1        0.0313
     11 C           1.2420   -1.1750    0.0000 C.ar    1  LIG1        0.0731
     12 C           0.7290   -2.0540    0.0000 C.ar    1  LIG1        0.0228
     13 C           1.2250   -2.9130    0.0000 C.ar    1  LIG1        0.0736
     14 N           0.7130   -3.7790    0.0000 N.am    1  LIG1       -0.1792
     15 C          -0.1580   -3.2750    0.0000 C.2     1  LIG1        0.2459
     16 O          -0.1580   -2.2710    0.0000 O.2     1  LIG1       -0.2730
     17 C          -1.0130   -3.7790    0.0000 C.3     1  LIG1        0.0931
     18 C          -1.8790   -3.2750    0.0000 C.3     1  LIG1        0.0513
     19 C          -1.8790   -2.2830    0.0000 C.2     1  LIG1        0.0508
     20 O          -2.7420   -1.7710    0.0000 O.co2   1  LIG1       -0.5492
     21 O          -1.0040   -1.7710    0.0000 O.co2   1  LIG1       -0.5492
     22 C           2.2210   -2.9250    0.0000 C.ar    1  LIG1        0.0166
     23 C           2.7380   -2.0540    0.0000 C.ar    1  LIG1        0.0015
     24 C           2.2330   -1.1750    0.0000 C.ar    1  LIG1        0.0063
@<TRIPOS>BOND
     1     1     2   ar
     2     1     5   ar
     3     1     9   ar
     4     2     3   ar
     5     3     4   ar
     6     3    11    1
     7     4     5   ar
     8     5     6   ar
     9     6     7   ar
    10     7     8   ar
    11     8     9   ar
    12     8    10    1
    13    11    12   ar
    14    11    24   ar
    15    12    13   ar
    16    13    14    1
    17    13    22   ar
    18    14    15   am
    19    15    16    2
    20    15    17    1
    21    17    18    1
    22    18    19    1
    23    19    20   ar
    24    19    21   ar
    25    22    23   ar
    26    23    24   ar
