@<TRIPOS>MOLECULE
26329_ChemDiv_6325-0292
 27 31 0 0 0
SMALL
GASTEIGER
Energy = 0

@<TRIPOS>ATOM
      1 C          -0.7790    0.8210    0.0000 C.ar    1  LIG1        0.1476
      2 N           0.0750    1.3210    0.0000 N.ar    1  LIG1       -0.2874
      3 C           0.8130    0.6630    0.0000 C.ar    1  LIG1        0.1175
      4 C           0.4170   -0.2540    0.0000 C.ar    1  LIG1        0.1005
      5 N          -0.5750   -0.1500    0.0000 N.ar    1  LIG1       -0.2266
      6 C           0.9210   -1.1170    0.0000 C.ar    1  LIG1        0.0191
      7 C           0.4210   -1.9920    0.0000 C.ar    1  LIG1        0.0024
      8 C           0.9210   -2.8540    0.0000 C.ar    1  LIG1        0.0114
      9 C           1.9330   -2.8500    0.0000 C.ar    1  LIG1        0.0577
     10 C           2.4290   -1.9750    0.0000 C.ar    1  LIG1        0.0114
     11 C           1.9170   -1.1040    0.0000 C.ar    1  LIG1        0.0024
     12 CL          2.4290   -3.7130    0.0000 Cl      1  LIG1       -0.0822
     13 C           1.7960    0.8670    0.0000 C.3     1  LIG1        0.1856
     14 N           2.1000    1.8170    0.0000 N.4     1  LIG1        0.3859
     15 C           1.4290    2.5540    0.0000 C.3     1  LIG1        0.1719
     16 C           1.7380    3.5040    0.0000 C.3     1  LIG1        0.2048
     17 O           2.7170    3.7170    0.0000 O.3     1  LIG1       -0.3411
     18 C           3.3830    2.9670    0.0000 C.3     1  LIG1        0.2048
     19 C           3.0750    2.0250    0.0000 C.3     1  LIG1        0.1719
     20 C           0.0750    2.3250    0.0000 C.ar    1  LIG1        0.0813
     21 C          -0.7880    2.8250    0.0000 C.ar    1  LIG1        0.0191
     22 C          -1.6500    2.3250    0.0000 C.ar    1  LIG1        0.0044
     23 C          -1.6500    1.3210    0.0000 C.ar    1  LIG1        0.0345
     24 C          -2.5170    0.8210    0.0000 C.ar    1  LIG1        0.0030
     25 C          -3.3750    1.3210    0.0000 C.ar    1  LIG1        0.0001
     26 C          -3.3880    2.3250    0.0000 C.ar    1  LIG1        0.0000
     27 C          -2.5080    2.8250    0.0000 C.ar    1  LIG1        0.0001
@<TRIPOS>BOND
     1     1     2   ar
     2     1     5   ar
     3     1    23   ar
     4     2     3   ar
     5     2    20   ar
     6     3     4   ar
     7     3    13    1
     8     4     5   ar
     9     4     6    1
    10     6     7   ar
    11     6    11   ar
    12     7     8   ar
    13     8     9   ar
    14     9    10   ar
    15     9    12    1
    16    10    11   ar
    17    13    14    1
    18    14    15    1
    19    14    19    1
    20    15    16    1
    21    16    17    1
    22    17    18    1
    23    18    19    1
    24    20    21   ar
    25    21    22   ar
    26    22    23   ar
    27    22    27   ar
    28    23    24   ar
    29    24    25   ar
    30    25    26   ar
    31    26    27   ar
