@<TRIPOS>MOLECULE
26325_ChemDiv_5166-0258
 28 32 0 0 0
SMALL
GASTEIGER
Energy = 0

@<TRIPOS>ATOM
      1 C          -0.7460    1.1790    0.0000 C.ar    1  LIG1        0.1476
      2 N           0.1380    1.6750    0.0000 N.ar    1  LIG1       -0.2874
      3 C           0.8960    1.0250    0.0000 C.ar    1  LIG1        0.1175
      4 C           0.4920    0.1080    0.0000 C.ar    1  LIG1        0.1005
      5 N          -0.5290    0.2290    0.0000 N.ar    1  LIG1       -0.2266
      6 C           0.9710   -0.7500    0.0000 C.ar    1  LIG1        0.0192
      7 C           0.5040   -1.6330    0.0000 C.ar    1  LIG1        0.0046
      8 C           1.0000   -2.4670    0.0000 C.ar    1  LIG1        0.0369
      9 C           2.0210   -2.4380    0.0000 C.ar    1  LIG1        0.1387
     10 C           2.4670   -1.5580    0.0000 C.ar    1  LIG1        0.0369
     11 C           1.9500   -0.7500    0.0000 C.ar    1  LIG1        0.0046
     12 O           2.5750   -3.2630    0.0000 O.3     1  LIG1       -0.4714
     13 C           2.1460   -4.1460    0.0000 C.3     1  LIG1        0.2525
     14 C           1.8580    1.2630    0.0000 C.3     1  LIG1        0.1854
     15 N           2.1330    2.2040    0.0000 N.4     1  LIG1        0.3819
     16 C           3.1250    2.4960    0.0000 C.3     1  LIG1        0.1391
     17 C           3.3920    3.4040    0.0000 C.3     1  LIG1        0.0629
     18 C           2.6960    4.1460    0.0000 C.3     1  LIG1        0.0123
     19 C           1.7170    3.8960    0.0000 C.3     1  LIG1        0.0629
     20 C           1.4460    2.9540    0.0000 C.3     1  LIG1        0.1391
     21 C           0.1380    2.6790    0.0000 C.ar    1  LIG1        0.0813
     22 C          -0.7460    3.1880    0.0000 C.ar    1  LIG1        0.0191
     23 C          -1.6330    2.6790    0.0000 C.ar    1  LIG1        0.0044
     24 C          -1.6330    1.6750    0.0000 C.ar    1  LIG1        0.0345
     25 C          -2.5130    1.1790    0.0000 C.ar    1  LIG1        0.0030
     26 C          -3.3960    1.6750    0.0000 C.ar    1  LIG1        0.0001
     27 C          -3.3960    2.6790    0.0000 C.ar    1  LIG1        0.0000
     28 C          -2.5130    3.1880    0.0000 C.ar    1  LIG1        0.0001
@<TRIPOS>BOND
     1     1     2   ar
     2     1     5   ar
     3     1    24   ar
     4     2     3   ar
     5     2    21   ar
     6     3     4   ar
     7     3    14    1
     8     4     5   ar
     9     4     6    1
    10     6     7   ar
    11     6    11   ar
    12     7     8   ar
    13     8     9   ar
    14     9    10   ar
    15     9    12    1
    16    10    11   ar
    17    12    13    1
    18    14    15    1
    19    15    16    1
    20    15    20    1
    21    16    17    1
    22    17    18    1
    23    18    19    1
    24    19    20    1
    25    21    22   ar
    26    22    23   ar
    27    23    24   ar
    28    23    28   ar
    29    24    25   ar
    30    25    26   ar
    31    26    27   ar
    32    27    28   ar
