@<TRIPOS>MOLECULE
26327_ChemDiv_6325-0286
 26 30 0 0 0
SMALL
GASTEIGER
Energy = 0

@<TRIPOS>ATOM
      1 C          -0.7790    0.3920    0.0000 C.ar    1  LIG1        0.1476
      2 N           0.0750    0.8920    0.0000 N.ar    1  LIG1       -0.2874
      3 C           0.8130    0.2380    0.0000 C.ar    1  LIG1        0.1175
      4 C           0.4170   -0.6790    0.0000 C.ar    1  LIG1        0.1005
      5 N          -0.5750   -0.5790    0.0000 N.ar    1  LIG1       -0.2266
      6 C           0.9210   -1.5460    0.0000 C.ar    1  LIG1        0.0190
      7 C           1.9170   -1.5290    0.0000 C.ar    1  LIG1        0.0015
      8 C           2.4290   -2.4040    0.0000 C.ar    1  LIG1        0.0000
      9 C           1.9330   -3.2790    0.0000 C.ar    1  LIG1        0.0000
     10 C           0.9210   -3.2830    0.0000 C.ar    1  LIG1        0.0000
     11 C           0.4210   -2.4170    0.0000 C.ar    1  LIG1        0.0015
     12 C           1.7960    0.4380    0.0000 C.3     1  LIG1        0.1854
     13 N           2.0960    1.3880    0.0000 N.4     1  LIG1        0.3819
     14 C           3.0750    1.5960    0.0000 C.3     1  LIG1        0.1391
     15 C           3.3830    2.5380    0.0000 C.3     1  LIG1        0.0629
     16 C           2.7170    3.2880    0.0000 C.3     1  LIG1        0.0123
     17 C           1.7330    3.0750    0.0000 C.3     1  LIG1        0.0629
     18 C           1.4290    2.1250    0.0000 C.3     1  LIG1        0.1391
     19 C           0.0750    1.9000    0.0000 C.ar    1  LIG1        0.0813
     20 C          -0.7880    2.3960    0.0000 C.ar    1  LIG1        0.0191
     21 C          -1.6500    1.9000    0.0000 C.ar    1  LIG1        0.0044
     22 C          -1.6500    0.8920    0.0000 C.ar    1  LIG1        0.0345
     23 C          -2.5130    0.3920    0.0000 C.ar    1  LIG1        0.0030
     24 C          -3.3750    0.8920    0.0000 C.ar    1  LIG1        0.0001
     25 C          -3.3880    1.9000    0.0000 C.ar    1  LIG1        0.0000
     26 C          -2.5080    2.3960    0.0000 C.ar    1  LIG1        0.0001
@<TRIPOS>BOND
     1     1     2   ar
     2     1     5   ar
     3     1    22   ar
     4     2     3   ar
     5     2    19   ar
     6     3     4   ar
     7     3    12    1
     8     4     5   ar
     9     4     6    1
    10     6     7   ar
    11     6    11   ar
    12     7     8   ar
    13     8     9   ar
    14     9    10   ar
    15    10    11   ar
    16    12    13    1
    17    13    14    1
    18    13    18    1
    19    14    15    1
    20    15    16    1
    21    16    17    1
    22    17    18    1
    23    19    20   ar
    24    20    21   ar
    25    21    22   ar
    26    21    26   ar
    27    22    23   ar
    28    23    24   ar
    29    24    25   ar
    30    25    26   ar
