@<TRIPOS>MOLECULE
26321_ChemDiv_3382-1244
 30 34 0 0 0
SMALL
GASTEIGER
Energy = 0

@<TRIPOS>ATOM
      1 C          -2.1170   -1.7000    0.0000 C.ar    1  LIG1        0.1313
      2 C          -2.1330   -2.6830    0.0000 C.ar    1  LIG1        0.3502
      3 O          -1.2960   -3.1670    0.0000 O.2     1  LIG1       -0.4209
      4 C          -0.4380   -2.6960    0.0000 C.ar    1  LIG1        0.1487
      5 C          -0.4290   -1.7210    0.0000 C.ar    1  LIG1        0.0355
      6 C          -1.2670   -1.2210    0.0000 C.ar    1  LIG1        0.0142
      7 C           0.4080   -1.2290    0.0000 C.ar    1  LIG1        0.0097
      8 C           1.2540   -1.7330    0.0000 C.ar    1  LIG1        0.0348
      9 C           1.2380   -2.7080    0.0000 C.ar    1  LIG1        0.0098
     10 C           0.3920   -3.1920    0.0000 C.ar    1  LIG1        0.0381
     11 BR          2.1080   -1.2500    0.0000 Br      1  LIG1       -0.0490
     12 O          -2.9880   -3.1630    0.0000 O.2     1  LIG1       -0.2443
     13 C          -2.9750   -1.1960    0.0000 C.2     1  LIG1        0.2753
     14 N          -2.9630   -0.2330    0.0000 N.am    1  LIG1       -0.1753
     15 C          -2.1170    0.2580    0.0000 C.ar    1  LIG1        0.0737
     16 C          -1.2580   -0.2380    0.0000 C.ar    1  LIG1        0.0168
     17 C          -0.4080    0.2420    0.0000 C.ar    1  LIG1        0.0075
     18 C          -0.4080    1.2290    0.0000 C.ar    1  LIG1        0.0719
     19 C           0.4250    1.7210    0.0000 C.ar    1  LIG1        0.3160
     20 N           1.2830    1.2130    0.0000 N.ar    1  LIG1        0.0972
     21 C           2.1290    1.7210    0.0000 C.ar    1  LIG1        0.3692
     22 N           2.1290    2.7040    0.0000 N.ar    1  LIG1       -0.2404
     23 C           0.4250    2.7040    0.0000 C.ar    1  LIG1        0.1619
     24 C           2.9750    3.1960    0.0000 C.ar    1  LIG1        0.0859
     25 C           3.8170    2.7040    0.0000 C.ar    1  LIG1        0.0194
     26 C           3.8170    1.7210    0.0000 C.ar    1  LIG1        0.0096
     27 C           2.9750    1.2290    0.0000 C.ar    1  LIG1        0.0965
     28 C          -1.2580    1.7210    0.0000 C.ar    1  LIG1        0.0075
     29 C          -2.1040    1.2290    0.0000 C.ar    1  LIG1        0.0168
     30 O          -3.8210   -1.6830    0.0000 O.2     1  LIG1       -0.2678
@<TRIPOS>BOND
     1     1     2   ar
     2     1     6   ar
     3     1    13    1
     4     2     3   ar
     5     2    12    2
     6     3     4   ar
     7     4     5   ar
     8     4    10   ar
     9     5     6   ar
    10     5     7   ar
    11     7     8   ar
    12     8     9   ar
    13     8    11    1
    14     9    10   ar
    15    13    14   am
    16    13    30    2
    17    14    15    1
    18    15    16   ar
    19    15    29   ar
    20    16    17   ar
    21    17    18   ar
    22    18    19    1
    23    18    28   ar
    24    19    20   ar
    25    19    23   ar
    26    20    21   ar
    27    21    22   ar
    28    21    27   ar
    29    22    23   ar
    30    22    24   ar
    31    24    25   ar
    32    25    26   ar
    33    26    27   ar
    34    28    29   ar
