@<TRIPOS>MOLECULE
26336_ChemDiv_C151-0413
 20 22 0 0 0
SMALL
GASTEIGER
Energy = 0

@<TRIPOS>ATOM
      1 C           0.9250    0.3330    0.0000 C.2     1  LIG1        0.0176
      2 C           0.0630    0.8380    0.0000 C.2     1  LIG1        0.1913
      3 C          -0.7920    0.3330    0.0000 C.ar    1  LIG1        0.0349
      4 C          -0.7920   -0.6500    0.0000 C.ar    1  LIG1       -0.0158
      5 C          -1.6540   -1.1500    0.0000 C.ar    1  LIG1        0.0327
      6 C          -2.5040   -0.6580    0.0000 C.ar    1  LIG1        0.1384
      7 C          -2.5040    0.3330    0.0000 C.ar    1  LIG1        0.0370
      8 C          -1.6540    0.8290    0.0000 C.ar    1  LIG1        0.0060
      9 O          -3.3920   -1.1670    0.0000 O.3     1  LIG1       -0.4714
     10 C          -4.2670   -0.6580    0.0000 C.3     1  LIG1        0.2525
     11 C           0.0830   -1.1580    0.0000 C.3     1  LIG1        0.0313
     12 C           0.9250   -0.6580    0.0000 C.3     1  LIG1        0.0343
     13 O           0.0630    1.8210    0.0000 O.2     1  LIG1       -0.2869
     14 C           1.7830    0.8250    0.0000 C.2     1  LIG1        0.0054
     15 C           2.6580    0.3170    0.0000 C.ar    1  LIG1        0.0298
     16 S           2.7670   -0.6790    0.0000 S.2     1  LIG1       -0.0801
     17 C           3.7540   -0.8960    0.0000 C.ar    1  LIG1        0.0638
     18 C           4.2630   -0.0210    0.0000 C.ar    1  LIG1        0.0137
     19 C           3.5880    0.7380    0.0000 C.ar    1  LIG1        0.0075
     20 BR          4.1670   -1.8170    0.0000 Br      1  LIG1       -0.0419
@<TRIPOS>BOND
     1     1     2    1
     2     1    12    1
     3     1    14    2
     4     2     3    1
     5     2    13    2
     6     3     4   ar
     7     3     8   ar
     8     4     5   ar
     9     4    11    1
    10     5     6   ar
    11     6     7   ar
    12     6     9    1
    13     7     8   ar
    14     9    10    1
    15    11    12    1
    16    14    15    1
    17    15    16   ar
    18    15    19   ar
    19    16    17   ar
    20    17    18   ar
    21    17    20    1
    22    18    19   ar
