@<TRIPOS>MOLECULE
26333_ChemDiv_8008-8295
 18 20 0 0 0
SMALL
GASTEIGER
Energy = 0

@<TRIPOS>ATOM
      1 N          -1.4540   -0.7960    0.0000 N.ar    1  LIG1       -0.2407
      2 C          -1.5170    0.1830    0.0000 C.ar    1  LIG1        0.3692
      3 N          -0.6000    0.5540    0.0000 N.ar    1  LIG1        0.0972
      4 C           0.0330   -0.2420    0.0000 C.ar    1  LIG1        0.3161
      5 C          -0.4790   -1.0420    0.0000 C.ar    1  LIG1        0.1619
      6 C           1.0250   -0.2420    0.0000 C.ar    1  LIG1        0.0752
      7 C           1.5380    0.6380    0.0000 C.ar    1  LIG1        0.0516
      8 C           2.5460    0.6080    0.0000 C.ar    1  LIG1        0.2345
      9 C           3.0460   -0.2420    0.0000 C.ar    1  LIG1        0.2343
     10 C           2.5330   -1.0960    0.0000 C.ar    1  LIG1        0.0456
     11 C           1.5210   -1.0960    0.0000 C.ar    1  LIG1        0.0097
     12 O           4.0420   -0.2420    0.0000 O.3     1  LIG1       -0.2831
     13 O           3.0750    1.4420    0.0000 O.3     1  LIG1       -0.2831
     14 C          -2.4080    0.6540    0.0000 C.ar    1  LIG1        0.0962
     15 C          -3.2630    0.1000    0.0000 C.ar    1  LIG1        0.0053
     16 C          -3.2040   -0.9130    0.0000 C.ar    1  LIG1       -0.0039
     17 C          -2.2960   -1.3830    0.0000 C.ar    1  LIG1        0.0816
     18 C          -4.0460   -1.4380    0.0000 C.3     1  LIG1        0.0326
@<TRIPOS>BOND
     1     1     2   ar
     2     1     5   ar
     3     1    17   ar
     4     2     3   ar
     5     2    14   ar
     6     3     4   ar
     7     4     5   ar
     8     4     6    1
     9     6     7   ar
    10     6    11   ar
    11     7     8   ar
    12     8     9   ar
    13     8    13    1
    14     9    10   ar
    15     9    12    1
    16    10    11   ar
    17    14    15   ar
    18    15    16   ar
    19    16    17   ar
    20    16    18    1
