@<TRIPOS>MOLECULE
26334_ChemDiv_1080-0008
 21 24 0 0 0
SMALL
GASTEIGER
Energy = 0

@<TRIPOS>ATOM
      1 C          -0.4000    0.5000    0.0000 C.2     1  LIG1        0.0171
      2 C          -1.2670    0.9920    0.0000 C.2     1  LIG1        0.1913
      3 C          -2.1210    0.5000    0.0000 C.ar    1  LIG1        0.0347
      4 C          -2.1210   -0.5130    0.0000 C.ar    1  LIG1       -0.0188
      5 C          -1.2670   -1.0040    0.0000 C.3     1  LIG1        0.0312
      6 C          -0.4000   -0.5130    0.0000 C.3     1  LIG1        0.0343
      7 C          -2.9880   -1.0040    0.0000 C.ar    1  LIG1       -0.0042
      8 C          -3.8540   -0.5130    0.0000 C.ar    1  LIG1       -0.0003
      9 C          -3.8540    0.5000    0.0000 C.ar    1  LIG1        0.0001
     10 C          -2.9880    0.9920    0.0000 C.ar    1  LIG1        0.0029
     11 O          -1.2670    1.9920    0.0000 O.2     1  LIG1       -0.2869
     12 C           0.4920    1.0290    0.0000 C.2     1  LIG1       -0.0010
     13 C           1.3750    0.5500    0.0000 C.ar    1  LIG1        0.0030
     14 C           1.3920   -0.4670    0.0000 C.ar    1  LIG1        0.0402
     15 C           2.2540   -0.9380    0.0000 C.ar    1  LIG1        0.1764
     16 C           3.1130   -0.4330    0.0000 C.ar    1  LIG1        0.1764
     17 O           3.8500   -1.0790    0.0000 O.3     1  LIG1       -0.4346
     18 C           3.4830   -1.9880    0.0000 C.3     1  LIG1        0.4294
     19 O           2.4790   -1.9170    0.0000 O.3     1  LIG1       -0.4346
     20 C           3.0960    0.5830    0.0000 C.ar    1  LIG1        0.0402
     21 C           2.2250    1.0630    0.0000 C.ar    1  LIG1        0.0033
@<TRIPOS>BOND
     1     1     2    1
     2     1     6    1
     3     1    12    2
     4     2     3    1
     5     2    11    2
     6     3     4   ar
     7     3    10   ar
     8     4     5    1
     9     4     7   ar
    10     5     6    1
    11     7     8   ar
    12     8     9   ar
    13     9    10   ar
    14    12    13    1
    15    13    14   ar
    16    13    21   ar
    17    14    15   ar
    18    15    16   ar
    19    15    19    1
    20    16    17    1
    21    16    20   ar
    22    17    18    1
    23    18    19    1
    24    20    21   ar
