@<TRIPOS>MOLECULE
26348_ChemDiv_1424-0022
 34 39 0 0 0
SMALL
GASTEIGER
Energy = 0

@<TRIPOS>ATOM
      1 N          -2.3000   -0.7670    0.0000 N.am    1  LIG1       -0.2159
      2 C          -2.8330    0.0460    0.0000 C.2     1  LIG1        0.2554
      3 C          -3.8170   -0.2420    0.0000 C.ar    1  LIG1        0.0584
      4 C          -3.8170   -1.2580    0.0000 C.ar    1  LIG1        0.0584
      5 C          -2.8330   -1.5460    0.0000 C.2     1  LIG1        0.2554
      6 O          -2.5000   -2.5080    0.0000 O.2     1  LIG1       -0.2695
      7 C          -4.6750   -1.7540    0.0000 C.ar    1  LIG1        0.0047
      8 C          -5.5420   -1.2290    0.0000 C.ar    1  LIG1        0.0001
      9 C          -5.5420   -0.2710    0.0000 C.ar    1  LIG1        0.0001
     10 C          -4.6750    0.2580    0.0000 C.ar    1  LIG1        0.0047
     11 O          -2.5000    1.0080    0.0000 O.2     1  LIG1       -0.2695
     12 C          -1.2830   -0.7670    0.0000 C.3     1  LIG1        0.1592
     13 C          -0.7750    0.1000    0.0000 C.2     1  LIG1        0.2445
     14 N           0.2290    0.1000    0.0000 N.am    1  LIG1       -0.2667
     15 C           0.7580   -0.7670    0.0000 C.3     1  LIG1        0.1565
     16 C           1.7880   -0.7460    0.0000 C.3     1  LIG1        0.1612
     17 N           2.2500    0.1000    0.0000 N.4     1  LIG1        0.3820
     18 C           3.2380    0.0750    0.0000 C.3     1  LIG1        0.1331
     19 C           3.8420   -0.7330    0.0000 C.ar    1  LIG1        0.0328
     20 C           4.7790   -0.4290    0.0000 C.ar    1  LIG1        0.0016
     21 C           4.7670    0.5460    0.0000 C.ar    1  LIG1        0.0016
     22 C           3.8290    0.8670    0.0000 C.ar    1  LIG1        0.0328
     23 C           3.6330    1.8540    0.0000 C.ar    1  LIG1        0.0016
     24 C           4.3920    2.5130    0.0000 C.ar    1  LIG1       -0.0001
     25 C           5.3420    2.1830    0.0000 C.ar    1  LIG1       -0.0000
     26 C           5.5290    1.1830    0.0000 C.ar    1  LIG1       -0.0001
     27 C           5.5380   -1.0830    0.0000 C.ar    1  LIG1       -0.0001
     28 C           5.3290   -2.0710    0.0000 C.ar    1  LIG1       -0.0000
     29 C           4.3580   -2.3790    0.0000 C.ar    1  LIG1       -0.0001
     30 C           3.6210   -1.7040    0.0000 C.ar    1  LIG1        0.0016
     31 C           1.7540    0.9540    0.0000 C.3     1  LIG1        0.1612
     32 C           0.7420    0.9540    0.0000 C.3     1  LIG1        0.1565
     33 O          -1.2830    0.9540    0.0000 O.2     1  LIG1       -0.2731
     34 C          -0.7880   -1.6170    0.0000 C.3     1  LIG1        0.0319
@<TRIPOS>BOND
     1     1     2   am
     2     1     5   am
     3     1    12    1
     4     2     3    1
     5     2    11    2
     6     3     4   ar
     7     3    10   ar
     8     4     5    1
     9     4     7   ar
    10     5     6    2
    11     7     8   ar
    12     8     9   ar
    13     9    10   ar
    14    12    13    1
    15    12    34    1
    16    13    14   am
    17    13    33    2
    18    14    15    1
    19    14    32    1
    20    15    16    1
    21    16    17    1
    22    17    18    1
    23    17    31    1
    24    18    19    1
    25    18    22    1
    26    19    20   ar
    27    19    30   ar
    28    20    21    1
    29    20    27   ar
    30    21    22   ar
    31    21    26   ar
    32    22    23   ar
    33    23    24   ar
    34    24    25   ar
    35    25    26   ar
    36    27    28   ar
    37    28    29   ar
    38    29    30   ar
    39    31    32    1
