@<TRIPOS>MOLECULE
26352_ChemDiv_K940-1536
 26 29 0 0 0
SMALL
GASTEIGER
Energy = 0

@<TRIPOS>ATOM
      1 C           1.1790    0.7540    0.0000 C.3     1  LIG1        0.1033
      2 C           2.0790    0.3170    0.0000 C.ar    1  LIG1       -0.0036
      3 C           2.7710    1.0420    0.0000 C.ar    1  LIG1       -0.0026
      4 C           2.2920    1.9210    0.0000 C.ar    1  LIG1       -0.0026
      5 C           1.3330    1.7380    0.0000 C.ar    1  LIG1       -0.0036
      6 C           0.6880    2.5210    0.0000 C.ar    1  LIG1       -0.0026
      7 C           1.0290    3.4580    0.0000 C.ar    1  LIG1       -0.0003
      8 C           2.0040    3.6290    0.0000 C.ar    1  LIG1       -0.0000
      9 C           2.6380    2.8580    0.0000 C.ar    1  LIG1       -0.0003
     10 C           3.7290    0.8000    0.0000 C.ar    1  LIG1       -0.0003
     11 C           4.0170   -0.1540    0.0000 C.ar    1  LIG1       -0.0000
     12 C           3.3210   -0.8960    0.0000 C.ar    1  LIG1       -0.0003
     13 C           2.3460   -0.6540    0.0000 C.ar    1  LIG1       -0.0026
     14 N           0.3170    0.2380    0.0000 N.3     1  LIG1       -0.2567
     15 C          -0.5580    0.7380    0.0000 C.3     1  LIG1        0.1363
     16 C          -1.4170    0.2250    0.0000 C.3     1  LIG1        0.1569
     17 N          -1.4170   -0.7750    0.0000 N.4     1  LIG1        0.3852
     18 C          -2.2790   -1.2630    0.0000 C.3     1  LIG1        0.2042
     19 C          -2.2790   -2.2540    0.0000 C.2     1  LIG1        0.2063
     20 C          -3.1420   -2.7380    0.0000 C.3     1  LIG1        0.0574
     21 C          -4.0210   -3.2460    0.0000 C.3     1  LIG1        0.0076
     22 C          -2.6580   -3.6250    0.0000 C.3     1  LIG1        0.0076
     23 C          -3.6420   -1.8710    0.0000 C.3     1  LIG1        0.0076
     24 O          -1.4170   -2.7540    0.0000 O.2     1  LIG1       -0.2899
     25 C          -0.5540   -1.2710    0.0000 C.3     1  LIG1        0.1569
     26 C           0.3170   -0.7580    0.0000 C.3     1  LIG1        0.1363
@<TRIPOS>BOND
     1     1     2    1
     2     1     5    1
     3     1    14    1
     4     2     3   ar
     5     2    13   ar
     6     3     4    1
     7     3    10   ar
     8     4     5   ar
     9     4     9   ar
    10     5     6   ar
    11     6     7   ar
    12     7     8   ar
    13     8     9   ar
    14    10    11   ar
    15    11    12   ar
    16    12    13   ar
    17    14    15    1
    18    14    26    1
    19    15    16    1
    20    16    17    1
    21    17    18    1
    22    17    25    1
    23    18    19    1
    24    19    20    1
    25    19    24    2
    26    20    21    1
    27    20    22    1
    28    20    23    1
    29    25    26    1
