@<TRIPOS>MOLECULE
26359_ChemDiv_8014-9048
 26 29 0 0 0
SMALL
GASTEIGER
Energy = 0

@<TRIPOS>ATOM
      1 C          -0.5580   -0.7580    0.0000 C.ar    1  LIG1        0.2194
      2 N          -1.1500   -1.5750    0.0000 N.ar    1  LIG1       -0.1933
      3 C          -2.1040   -1.2580    0.0000 C.ar    1  LIG1        0.1714
      4 C          -2.1040   -0.2670    0.0000 C.ar    1  LIG1        0.1594
      5 N          -1.1500    0.0500    0.0000 N.ar    1  LIG1       -0.2681
      6 C          -0.5380    0.8380    0.0000 C.ar    1  LIG1        0.1002
      7 C           0.4130    0.5170    0.0000 C.ar    1  LIG1        0.0799
      8 N           0.3960   -0.4460    0.0000 N.ar    1  LIG1       -0.2972
      9 C           1.2380   -1.0130    0.0000 C.3     1  LIG1        0.1090
     10 C           2.1540   -0.5920    0.0000 C.3     1  LIG1        0.0273
     11 C           2.9790   -1.1580    0.0000 C.3     1  LIG1        0.0375
     12 C           3.8750   -0.7330    0.0000 C.3     1  LIG1        0.1822
     13 O           4.6920   -1.3000    0.0000 O.3     1  LIG1       -0.2204
     14 C           1.1830    1.1630    0.0000 C.ar    1  LIG1        0.0174
     15 C           1.0330    2.1460    0.0000 C.ar    1  LIG1        0.0015
     16 C           1.8130    2.7670    0.0000 C.ar    1  LIG1        0.0000
     17 C           2.7500    2.3960    0.0000 C.ar    1  LIG1        0.0000
     18 C           2.8960    1.4040    0.0000 C.ar    1  LIG1        0.0000
     19 C           2.1080    0.7960    0.0000 C.ar    1  LIG1        0.0015
     20 C          -2.9540    0.2460    0.0000 C.ar    1  LIG1        0.3022
     21 N          -3.8250   -0.2420    0.0000 N.ar    1  LIG1       -0.1518
     22 C          -3.8250   -1.2790    0.0000 C.ar    1  LIG1        0.3540
     23 N          -2.9540   -1.7790    0.0000 N.ar    1  LIG1       -0.2614
     24 C          -2.9540   -2.7630    0.0000 C.3     1  LIG1        0.1367
     25 O          -4.6960   -1.8000    0.0000 O.2     1  LIG1       -0.2443
     26 O          -2.9540    1.2330    0.0000 O.2     1  LIG1       -0.2633
@<TRIPOS>BOND
     1     1     2   ar
     2     1     5   ar
     3     1     8   ar
     4     2     3   ar
     5     3     4   ar
     6     3    23   ar
     7     4     5   ar
     8     4    20   ar
     9     5     6   ar
    10     6     7   ar
    11     7     8   ar
    12     7    14    1
    13     8     9    1
    14     9    10    1
    15    10    11    1
    16    11    12    1
    17    12    13    1
    18    14    15   ar
    19    14    19   ar
    20    15    16   ar
    21    16    17   ar
    22    17    18   ar
    23    18    19   ar
    24    20    21   ar
    25    20    26    2
    26    21    22   ar
    27    22    23   ar
    28    22    25    2
    29    23    24    1
