@<TRIPOS>MOLECULE
26358_ChemDiv_1311-2218
 19 21 0 0 0
SMALL
GASTEIGER
Energy = 0

@<TRIPOS>ATOM
      1 C          -0.5960   -1.0750    0.0000 C.ar    1  LIG1        0.0215
      2 C          -0.3830   -0.0960    0.0000 C.ar    1  LIG1        0.0682
      3 C           0.4830    0.4170    0.0000 C.ar    1  LIG1        0.1510
      4 C           0.4830    1.4040    0.0000 C.ar    1  LIG1        0.0311
      5 C           1.3250    1.9000    0.0000 C.ar    1  LIG1       -0.0125
      6 C           2.2000    1.4040    0.0000 C.ar    1  LIG1        0.0781
      7 C           2.2000    0.4170    0.0000 C.ar    1  LIG1        0.3456
      8 O           1.3250   -0.0960    0.0000 O.2     1  LIG1       -0.4210
      9 O           3.0830   -0.0790    0.0000 O.2     1  LIG1       -0.2445
     10 C           1.3250    2.9130    0.0000 C.3     1  LIG1        0.0313
     11 C          -0.3830    1.9000    0.0000 C.ar    1  LIG1        0.0059
     12 C          -1.2460    1.4040    0.0000 C.ar    1  LIG1        0.0377
     13 C          -1.2460    0.4170    0.0000 C.ar    1  LIG1        0.1481
     14 O          -2.0000   -0.2630    0.0000 O.2     1  LIG1       -0.4508
     15 C          -1.5880   -1.1580    0.0000 C.ar    1  LIG1        0.1759
     16 C          -2.0880   -2.0500    0.0000 C.2     1  LIG1        0.2073
     17 O          -1.5750   -2.9080    0.0000 O.2     1  LIG1       -0.2881
     18 C          -3.0880   -2.0540    0.0000 C.3     1  LIG1        0.0806
     19 C           0.0580   -1.8380    0.0000 C.3     1  LIG1        0.0345
@<TRIPOS>BOND
     1     1     2   ar
     2     1    15   ar
     3     1    19    1
     4     2     3   ar
     5     2    13   ar
     6     3     4   ar
     7     3     8   ar
     8     4     5   ar
     9     4    11   ar
    10     5     6   ar
    11     5    10    1
    12     6     7   ar
    13     7     8   ar
    14     7     9    2
    15    11    12   ar
    16    12    13   ar
    17    13    14   ar
    18    14    15   ar
    19    15    16    1
    20    16    17    2
    21    16    18    1
