@<TRIPOS>MOLECULE
26356_ChemDiv_5320-6790
 24 26 0 0 0
SMALL
GASTEIGER
Energy = 0

@<TRIPOS>ATOM
      1 C          -2.1540    0.5330    0.0000 C.2     1  LIG1        0.2494
      2 N          -1.2710    0.0080    0.0000 N.am    1  LIG1       -0.2645
      3 C          -0.3920    0.5330    0.0000 C.3     1  LIG1        0.1567
      4 C           0.4670    0.0080    0.0000 C.3     1  LIG1        0.1610
      5 N           0.4670   -0.9630    0.0000 N.4     1  LIG1        0.3834
      6 C          -0.4170   -1.4830    0.0000 C.3     1  LIG1        0.1610
      7 C          -1.2960   -0.9630    0.0000 C.3     1  LIG1        0.1567
      8 C           1.3500   -1.4460    0.0000 C.3     1  LIG1        0.1662
      9 C           2.2210   -0.8960    0.0000 C.2     1  LIG1        0.0359
     10 C           3.1000   -1.3830    0.0000 C.2     1  LIG1        0.0013
     11 C           3.9630   -0.8710    0.0000 C.ar    1  LIG1       -0.0001
     12 C           3.9630    0.1290    0.0000 C.ar    1  LIG1       -0.0000
     13 C           4.8630    0.6080    0.0000 C.ar    1  LIG1       -0.0000
     14 C           5.6670    0.1380    0.0000 C.ar    1  LIG1       -0.0000
     15 C           5.6670   -0.8580    0.0000 C.ar    1  LIG1       -0.0000
     16 C           4.8630   -1.3540    0.0000 C.ar    1  LIG1       -0.0000
     17 C          -3.0330    0.0080    0.0000 C.ar    1  LIG1        0.0536
     18 C          -3.0330   -0.9630    0.0000 C.ar    1  LIG1        0.0042
     19 C          -3.8830   -1.4830    0.0000 C.ar    1  LIG1       -0.0041
     20 C          -4.7920   -0.9630    0.0000 C.ar    1  LIG1       -0.0218
     21 C          -4.7630    0.0080    0.0000 C.ar    1  LIG1       -0.0041
     22 C          -3.8830    0.5330    0.0000 C.ar    1  LIG1        0.0042
     23 C          -5.6710   -1.4460    0.0000 C.3     1  LIG1        0.0310
     24 O          -2.1540    1.4880    0.0000 O.2     1  LIG1       -0.2699
@<TRIPOS>BOND
     1     1     2   am
     2     1    17    1
     3     1    24    2
     4     2     3    1
     5     2     7    1
     6     3     4    1
     7     4     5    1
     8     5     6    1
     9     5     8    1
    10     6     7    1
    11     8     9    1
    12     9    10    2
    13    10    11    1
    14    11    12   ar
    15    11    16   ar
    16    12    13   ar
    17    13    14   ar
    18    14    15   ar
    19    15    16   ar
    20    17    18   ar
    21    17    22   ar
    22    18    19   ar
    23    19    20   ar
    24    20    21   ar
    25    20    23    1
    26    21    22   ar
