@<TRIPOS>MOLECULE
26367_ChemDiv_1190-0144
 26 30 0 0 0
SMALL
GASTEIGER
Energy = 0

@<TRIPOS>ATOM
      1 C           0.0500    0.1500    0.0000 C.ar    1  LIG1        0.0196
      2 C          -0.0580    1.1420    0.0000 C.ar    1  LIG1        0.1049
      3 C           0.7880    1.7250    0.0000 C.ar    1  LIG1        0.2743
      4 N           1.6710    1.3250    0.0000 N.ar    1  LIG1       -0.2925
      5 C           1.7880    0.3330    0.0000 C.ar    1  LIG1        0.0627
      6 C           0.9710   -0.2670    0.0000 C.ar    1  LIG1        0.0203
      7 C           1.0500   -1.3000    0.0000 C.ar    1  LIG1        0.0404
      8 C           0.2330   -1.8540    0.0000 C.ar    1  LIG1        0.1956
      9 C          -0.6580   -1.4460    0.0000 C.ar    1  LIG1        0.0390
     10 C          -0.7630   -0.4540    0.0000 C.ar    1  LIG1        0.0045
     11 C          -1.6540   -0.0040    0.0000 C.ar    1  LIG1        0.0001
     12 C          -2.4630   -0.6380    0.0000 C.ar    1  LIG1        0.0000
     13 C          -2.3920   -1.6000    0.0000 C.ar    1  LIG1        0.0001
     14 C          -1.5000   -2.0000    0.0000 C.ar    1  LIG1        0.0032
     15 O           0.2630   -2.8920    0.0000 O.2     1  LIG1       -0.2866
     16 C           1.9750   -1.7000    0.0000 C.ar    1  LIG1        0.0033
     17 C           2.7790   -1.1130    0.0000 C.ar    1  LIG1        0.0016
     18 C           2.6670   -0.0830    0.0000 C.ar    1  LIG1        0.0173
     19 C           2.4500    1.9130    0.0000 C.3     1  LIG1        0.1336
     20 O           0.7170    2.7670    0.0000 O.2     1  LIG1       -0.2656
     21 N          -0.9670    1.5130    0.0000 N.pl3   1  LIG1       -0.2990
     22 C          -1.7750    0.9170    0.0000 C.3     1  LIG1        0.1232
     23 C          -2.6710    1.3250    0.0000 C.3     1  LIG1        0.1636
     24 O          -2.7830    2.3040    0.0000 O.3     1  LIG1       -0.3501
     25 C          -1.9630    2.8960    0.0000 C.3     1  LIG1        0.1636
     26 C          -1.0750    2.4880    0.0000 C.3     1  LIG1        0.1232
@<TRIPOS>BOND
     1     1     2   ar
     2     1     6   ar
     3     1    10   ar
     4     2     3   ar
     5     2    21    1
     6     3     4   ar
     7     3    20    2
     8     4     5   ar
     9     4    19    1
    10     5     6   ar
    11     5    18   ar
    12     6     7   ar
    13     7     8   ar
    14     7    16   ar
    15     8     9   ar
    16     8    15    2
    17     9    10   ar
    18     9    14   ar
    19    10    11   ar
    20    11    12   ar
    21    12    13   ar
    22    13    14   ar
    23    16    17   ar
    24    17    18   ar
    25    21    22    1
    26    21    26    1
    27    22    23    1
    28    23    24    1
    29    24    25    1
    30    25    26    1
