@<TRIPOS>MOLECULE
26366_ChemDiv_4808-0480
 24 27 0 0 0
SMALL
GASTEIGER
Energy = 0

@<TRIPOS>ATOM
      1 C          -0.5880   -1.1630    0.0000 C.ar    1  LIG1        0.1801
      2 C           0.4080   -1.0500    0.0000 C.ar    1  LIG1        0.0218
      3 C           0.6040   -0.0750    0.0000 C.ar    1  LIG1        0.0682
      4 C           1.4500    0.4170    0.0000 C.ar    1  LIG1        0.1510
      5 C           1.4630    1.4210    0.0000 C.ar    1  LIG1        0.0311
      6 C           2.3290    1.9380    0.0000 C.ar    1  LIG1       -0.0125
      7 C           3.2000    1.4210    0.0000 C.ar    1  LIG1        0.0781
      8 C           3.2000    0.4170    0.0000 C.ar    1  LIG1        0.3456
      9 O           2.3210   -0.0830    0.0000 O.2     1  LIG1       -0.4210
     10 O           4.0580   -0.0880    0.0000 O.2     1  LIG1       -0.2445
     11 C           2.3290    2.9330    0.0000 C.3     1  LIG1        0.0313
     12 C           0.5920    1.9210    0.0000 C.ar    1  LIG1        0.0059
     13 C          -0.2710    1.4210    0.0000 C.ar    1  LIG1        0.0377
     14 C          -0.2710    0.4250    0.0000 C.ar    1  LIG1        0.1481
     15 O          -1.0000   -0.2540    0.0000 O.2     1  LIG1       -0.4505
     16 C           1.0830   -1.7790    0.0000 C.3     1  LIG1        0.0345
     17 C          -1.0710   -2.0380    0.0000 C.2     1  LIG1        0.2294
     18 O          -0.5630   -2.8960    0.0000 O.2     1  LIG1       -0.2833
     19 C          -2.0710   -2.0500    0.0000 C.ar    1  LIG1        0.0420
     20 C          -2.5750   -1.1880    0.0000 C.ar    1  LIG1        0.0033
     21 C          -3.5710   -1.1920    0.0000 C.ar    1  LIG1        0.0001
     22 C          -4.0630   -2.0670    0.0000 C.ar    1  LIG1        0.0000
     23 C          -3.5500   -2.9290    0.0000 C.ar    1  LIG1        0.0001
     24 C          -2.5540   -2.9130    0.0000 C.ar    1  LIG1        0.0033
@<TRIPOS>BOND
     1     1     2   ar
     2     1    15   ar
     3     1    17    1
     4     2     3   ar
     5     2    16    1
     6     3     4   ar
     7     3    14   ar
     8     4     5   ar
     9     4     9   ar
    10     5     6   ar
    11     5    12   ar
    12     6     7   ar
    13     6    11    1
    14     7     8   ar
    15     8     9   ar
    16     8    10    2
    17    12    13   ar
    18    13    14   ar
    19    14    15   ar
    20    17    18    2
    21    17    19    1
    22    19    20   ar
    23    19    24   ar
    24    20    21   ar
    25    21    22   ar
    26    22    23   ar
    27    23    24   ar
