@<TRIPOS>MOLECULE
26362_ChemDiv_4808-0466
 25 28 0 0 0
SMALL
GASTEIGER
Energy = 0

@<TRIPOS>ATOM
      1 C          -0.5880   -1.1710    0.0000 C.ar    1  LIG1        0.1801
      2 C           0.4000   -1.0630    0.0000 C.ar    1  LIG1        0.0215
      3 C           0.6080   -0.0830    0.0000 C.ar    1  LIG1        0.0682
      4 C           1.4580    0.4040    0.0000 C.ar    1  LIG1        0.1510
      5 C           1.4710    1.4130    0.0000 C.ar    1  LIG1        0.0311
      6 C           2.3380    1.9290    0.0000 C.ar    1  LIG1       -0.0125
      7 C           3.2080    1.4130    0.0000 C.ar    1  LIG1        0.0781
      8 C           3.2080    0.4040    0.0000 C.ar    1  LIG1        0.3456
      9 O           2.3330   -0.0920    0.0000 O.2     1  LIG1       -0.4210
     10 O           4.0710   -0.1000    0.0000 O.2     1  LIG1       -0.2445
     11 C           2.3380    2.9250    0.0000 C.3     1  LIG1        0.0313
     12 C           0.5960    1.9130    0.0000 C.ar    1  LIG1        0.0059
     13 C          -0.2630    1.4130    0.0000 C.ar    1  LIG1        0.0377
     14 C          -0.2630    0.4170    0.0000 C.ar    1  LIG1        0.1481
     15 O          -0.9960   -0.2580    0.0000 O.2     1  LIG1       -0.4505
     16 C           1.0750   -1.8040    0.0000 C.3     1  LIG1        0.0298
     17 C           2.0500   -1.5920    0.0000 C.3     1  LIG1        0.0051
     18 C          -1.0790   -2.0330    0.0000 C.2     1  LIG1        0.2294
     19 O          -0.5830   -2.8960    0.0000 O.2     1  LIG1       -0.2833
     20 C          -2.0790   -2.0460    0.0000 C.ar    1  LIG1        0.0420
     21 C          -2.5670   -2.9130    0.0000 C.ar    1  LIG1        0.0033
     22 C          -3.5630   -2.9210    0.0000 C.ar    1  LIG1        0.0001
     23 C          -4.0750   -2.0500    0.0000 C.ar    1  LIG1        0.0000
     24 C          -3.5750   -1.1880    0.0000 C.ar    1  LIG1        0.0001
     25 C          -2.5790   -1.1830    0.0000 C.ar    1  LIG1        0.0033
@<TRIPOS>BOND
     1     1     2   ar
     2     1    15   ar
     3     1    18    1
     4     2     3   ar
     5     2    16    1
     6     3     4   ar
     7     3    14   ar
     8     4     5   ar
     9     4     9   ar
    10     5     6   ar
    11     5    12   ar
    12     6     7   ar
    13     6    11    1
    14     7     8   ar
    15     8     9   ar
    16     8    10    2
    17    12    13   ar
    18    13    14   ar
    19    14    15   ar
    20    16    17    1
    21    18    19    2
    22    18    20    1
    23    20    21   ar
    24    20    25   ar
    25    21    22   ar
    26    22    23   ar
    27    23    24   ar
    28    24    25   ar
