@<TRIPOS>MOLECULE
26368_ChemDiv_6486-0104
 20 22 0 0 0
SMALL
GASTEIGER
Energy = 0

@<TRIPOS>ATOM
      1 C          -0.5960   -1.0710    0.0000 C.ar    1  LIG1        0.0165
      2 C          -0.3960   -0.0960    0.0000 C.ar    1  LIG1        0.0679
      3 C           0.4710    0.4080    0.0000 C.ar    1  LIG1        0.1510
      4 C           0.4710    1.4080    0.0000 C.ar    1  LIG1        0.0311
      5 C           1.3380    1.9170    0.0000 C.ar    1  LIG1       -0.0125
      6 C           2.2130    1.4080    0.0000 C.ar    1  LIG1        0.0781
      7 C           2.2040    0.4080    0.0000 C.ar    1  LIG1        0.3456
      8 O           1.3330   -0.0920    0.0000 O.2     1  LIG1       -0.4210
      9 O           3.0750   -0.0960    0.0000 O.2     1  LIG1       -0.2445
     10 C           1.3380    2.9130    0.0000 C.3     1  LIG1        0.0313
     11 C          -0.3960    1.9130    0.0000 C.ar    1  LIG1        0.0059
     12 C          -1.2630    1.4080    0.0000 C.ar    1  LIG1        0.0377
     13 C          -1.2630    0.4000    0.0000 C.ar    1  LIG1        0.1476
     14 O          -2.0000   -0.2710    0.0000 O.2     1  LIG1       -0.4555
     15 C          -1.5920   -1.1790    0.0000 C.ar    1  LIG1        0.1491
     16 C          -2.0880   -2.0460    0.0000 C.3     1  LIG1        0.2082
     17 O          -1.5830   -2.9080    0.0000 O.3     1  LIG1       -0.2149
     18 C          -3.0790   -2.0540    0.0000 C.3     1  LIG1        0.0439
     19 C           0.0710   -1.8080    0.0000 C.3     1  LIG1        0.0294
     20 C           1.0380   -1.5880    0.0000 C.3     1  LIG1        0.0051
@<TRIPOS>BOND
     1     1     2   ar
     2     1    15   ar
     3     1    19    1
     4     2     3   ar
     5     2    13   ar
     6     3     4   ar
     7     3     8   ar
     8     4     5   ar
     9     4    11   ar
    10     5     6   ar
    11     5    10    1
    12     6     7   ar
    13     7     8   ar
    14     7     9    2
    15    11    12   ar
    16    12    13   ar
    17    13    14   ar
    18    14    15   ar
    19    15    16    1
    20    16    17    1
    21    16    18    1
    22    19    20    1
