@<TRIPOS>MOLECULE
26365_ChemDiv_8017-9062
 30 34 0 0 0
SMALL
GASTEIGER
Energy = 0

@<TRIPOS>ATOM
      1 C          -0.7960    0.2170    0.0000 C.ar    1  LIG1        0.2195
      2 N          -0.7960    1.2170    0.0000 N.ar    1  LIG1       -0.2734
      3 C          -1.7460    1.5210    0.0000 C.ar    1  LIG1        0.1574
      4 C          -2.3420    0.7170    0.0000 C.ar    1  LIG1        0.1713
      5 N          -1.7460   -0.0960    0.0000 N.ar    1  LIG1       -0.1933
      6 N          -3.3290    0.8170    0.0000 N.ar    1  LIG1       -0.2628
      7 C          -3.7420    1.7290    0.0000 C.ar    1  LIG1        0.3350
      8 N          -3.1540    2.5420    0.0000 N.ar    1  LIG1       -0.2454
      9 C          -2.1540    2.4420    0.0000 C.ar    1  LIG1        0.2835
     10 O          -1.6540    3.3040    0.0000 O.2     1  LIG1       -0.2651
     11 C          -3.6540    3.4130    0.0000 C.3     1  LIG1        0.1383
     12 O          -4.7420    1.7290    0.0000 O.2     1  LIG1       -0.2461
     13 C          -3.8290   -0.0460    0.0000 C.3     1  LIG1        0.1366
     14 C           0.1500    1.5210    0.0000 C.ar    1  LIG1        0.0604
     15 C           0.7380    0.7170    0.0000 C.ar    1  LIG1        0.0747
     16 N           0.1500   -0.0960    0.0000 N.ar    1  LIG1       -0.2901
     17 C           0.6500   -0.9580    0.0000 C.3     1  LIG1        0.1732
     18 C           0.1500   -1.8290    0.0000 C.ar    1  LIG1        0.1459
     19 O           0.5540   -2.7420    0.0000 O.2     1  LIG1       -0.4527
     20 C          -0.1830   -3.4080    0.0000 C.ar    1  LIG1        0.1792
     21 C          -1.0460   -2.9080    0.0000 C.ar    1  LIG1        0.0435
     22 C          -0.8420   -1.9330    0.0000 C.ar    1  LIG1        0.0382
     23 C           1.7380    0.7170    0.0000 C.ar    1  LIG1        0.0170
     24 C           2.2380   -0.1540    0.0000 C.ar    1  LIG1        0.0012
     25 C           3.2380   -0.1540    0.0000 C.ar    1  LIG1       -0.0042
     26 C           3.7380    0.7170    0.0000 C.ar    1  LIG1       -0.0218
     27 C           3.2380    1.5790    0.0000 C.ar    1  LIG1       -0.0042
     28 C           2.2380    1.5790    0.0000 C.ar    1  LIG1        0.0012
     29 C           4.7380    0.7170    0.0000 C.3     1  LIG1        0.0310
     30 C           0.6500    2.3920    0.0000 C.3     1  LIG1        0.0520
@<TRIPOS>BOND
     1     1     2   ar
     2     1     5   ar
     3     1    16   ar
     4     2     3   ar
     5     2    14   ar
     6     3     4   ar
     7     3     9   ar
     8     4     5   ar
     9     4     6   ar
    10     6     7   ar
    11     6    13    1
    12     7     8   ar
    13     7    12    2
    14     8     9   ar
    15     8    11    1
    16     9    10    2
    17    14    15   ar
    18    14    30    1
    19    15    16   ar
    20    15    23    1
    21    16    17    1
    22    17    18    1
    23    18    19   ar
    24    18    22   ar
    25    19    20   ar
    26    20    21   ar
    27    21    22   ar
    28    23    24   ar
    29    23    28   ar
    30    24    25   ar
    31    25    26   ar
    32    26    27   ar
    33    26    29    1
    34    27    28   ar
