@<TRIPOS>MOLECULE
26361_ChemDiv_8015-9152
 31 35 0 0 0
SMALL
GASTEIGER
Energy = 0

@<TRIPOS>ATOM
      1 C          -0.8580    0.4880    0.0000 C.ar    1  LIG1        0.2197
      2 N          -0.8580    1.4500    0.0000 N.ar    1  LIG1       -0.2681
      3 C          -2.5250    1.4500    0.0000 C.ar    1  LIG1        0.1577
      4 C          -2.5250    0.4880    0.0000 C.ar    1  LIG1        0.1713
      5 N          -1.6960    0.0080    0.0000 N.ar    1  LIG1       -0.1933
      6 N          -3.3460    0.0080    0.0000 N.ar    1  LIG1       -0.2628
      7 C          -4.1630    0.4880    0.0000 C.ar    1  LIG1        0.3350
      8 N          -4.1630    1.4500    0.0000 N.ar    1  LIG1       -0.2454
      9 C          -3.3460    1.9330    0.0000 C.ar    1  LIG1        0.2835
     10 O          -3.3460    2.8830    0.0000 O.2     1  LIG1       -0.2651
     11 C          -4.9880    1.9250    0.0000 C.3     1  LIG1        0.1383
     12 O          -4.9880    0.0080    0.0000 O.2     1  LIG1       -0.2461
     13 C          -3.3460   -0.9420    0.0000 C.3     1  LIG1        0.1366
     14 C           0.8080    1.4500    0.0000 C.ar    1  LIG1        0.1002
     15 C           0.8080    0.4880    0.0000 C.ar    1  LIG1        0.0802
     16 N          -0.0210    0.0080    0.0000 N.ar    1  LIG1       -0.2930
     17 C          -0.0210   -0.9540    0.0000 C.3     1  LIG1        0.1356
     18 C          -0.8580   -1.4380    0.0000 C.ar    1  LIG1        0.0005
     19 C          -1.6960   -0.9540    0.0000 C.ar    1  LIG1       -0.0024
     20 C          -2.5250   -1.4380    0.0000 C.ar    1  LIG1       -0.0003
     21 C          -2.5250   -2.3920    0.0000 C.ar    1  LIG1       -0.0000
     22 C          -1.6960   -2.8790    0.0000 C.ar    1  LIG1       -0.0003
     23 C          -0.8580   -2.3920    0.0000 C.ar    1  LIG1       -0.0024
     24 C           1.6460    0.0080    0.0000 C.ar    1  LIG1        0.0176
     25 C           2.4830    0.4880    0.0000 C.ar    1  LIG1        0.0046
     26 C           3.3170    0.0080    0.0000 C.ar    1  LIG1        0.0369
     27 C           3.3170   -0.9540    0.0000 C.ar    1  LIG1        0.1387
     28 C           2.4830   -1.4380    0.0000 C.ar    1  LIG1        0.0369
     29 C           1.6460   -0.9540    0.0000 C.ar    1  LIG1        0.0046
     30 O           4.1460   -1.4380    0.0000 O.3     1  LIG1       -0.4714
     31 C           4.9830   -0.9540    0.0000 C.3     1  LIG1        0.2525
@<TRIPOS>BOND
     1     1     2   ar
     2     1     5   ar
     3     1    16   ar
     4     2     3   ar
     5     2    14   ar
     6     3     4   ar
     7     3     9   ar
     8     4     5   ar
     9     4     6   ar
    10     6     7   ar
    11     6    13    1
    12     7     8   ar
    13     7    12    2
    14     8     9   ar
    15     8    11    1
    16     9    10    2
    17    14    15   ar
    18    15    16   ar
    19    15    24    1
    20    16    17    1
    21    17    18    1
    22    18    19   ar
    23    18    23   ar
    24    19    20   ar
    25    20    21   ar
    26    21    22   ar
    27    22    23   ar
    28    24    25   ar
    29    24    29   ar
    30    25    26   ar
    31    26    27   ar
    32    27    28   ar
    33    27    30    1
    34    28    29   ar
    35    30    31    1
