@<TRIPOS>MOLECULE
26363_ChemDiv_8016-6249
 27 30 0 0 0
SMALL
GASTEIGER
Energy = 0

@<TRIPOS>ATOM
      1 C           0.2920   -0.6750    0.0000 C.ar    1  LIG1        0.2191
      2 N          -0.2960    0.1330    0.0000 N.ar    1  LIG1       -0.2734
      3 C          -1.2460   -0.1750    0.0000 C.ar    1  LIG1        0.1574
      4 C          -1.2460   -1.1750    0.0000 C.ar    1  LIG1        0.1713
      5 N          -0.2960   -1.4790    0.0000 N.ar    1  LIG1       -0.1933
      6 N          -2.1130   -1.6750    0.0000 N.ar    1  LIG1       -0.2628
      7 C          -2.9830   -1.1750    0.0000 C.ar    1  LIG1        0.3350
      8 N          -2.9830   -0.1750    0.0000 N.ar    1  LIG1       -0.2454
      9 C          -2.1130    0.3210    0.0000 C.ar    1  LIG1        0.2835
     10 O          -2.1130    1.3210    0.0000 O.2     1  LIG1       -0.2651
     11 C          -3.8420    0.3210    0.0000 C.3     1  LIG1        0.1383
     12 O          -3.8420   -1.6750    0.0000 O.2     1  LIG1       -0.2461
     13 C          -2.1130   -2.6750    0.0000 C.3     1  LIG1        0.1366
     14 C           0.2920    0.9420    0.0000 C.ar    1  LIG1        0.0600
     15 C           1.2420    0.6330    0.0000 C.ar    1  LIG1        0.0742
     16 N           1.2420   -0.3630    0.0000 N.ar    1  LIG1       -0.2994
     17 C           2.1040   -0.8630    0.0000 C.3     1  LIG1        0.0884
     18 C           2.9750   -0.3630    0.0000 C.3     1  LIG1        0.0246
     19 C           2.1040   -1.8630    0.0000 C.3     1  LIG1        0.0246
     20 C           2.1040    1.1330    0.0000 C.ar    1  LIG1        0.0170
     21 C           2.9750    0.6330    0.0000 C.ar    1  LIG1        0.0015
     22 C           3.8380    1.1330    0.0000 C.ar    1  LIG1        0.0000
     23 C           3.8380    2.1380    0.0000 C.ar    1  LIG1        0.0000
     24 C           2.9750    2.6380    0.0000 C.ar    1  LIG1        0.0000
     25 C           2.1040    2.1380    0.0000 C.ar    1  LIG1        0.0015
     26 C          -0.2080    1.8080    0.0000 C.3     1  LIG1        0.0457
     27 C           0.2920    2.6790    0.0000 C.3     1  LIG1        0.0067
@<TRIPOS>BOND
     1     1     2   ar
     2     1     5   ar
     3     1    16   ar
     4     2     3   ar
     5     2    14   ar
     6     3     4   ar
     7     3     9   ar
     8     4     5   ar
     9     4     6   ar
    10     6     7   ar
    11     6    13    1
    12     7     8   ar
    13     7    12    2
    14     8     9   ar
    15     8    11    1
    16     9    10    2
    17    14    15   ar
    18    14    26    1
    19    15    16   ar
    20    15    20    1
    21    16    17    1
    22    17    18    1
    23    17    19    1
    24    20    21   ar
    25    20    25   ar
    26    21    22   ar
    27    22    23   ar
    28    23    24   ar
    29    24    25   ar
    30    26    27    1
