@<TRIPOS>MOLECULE
26376_ChemDiv_K940-1571
 32 36 0 0 0
SMALL
GASTEIGER
Energy = 0

@<TRIPOS>ATOM
      1 C           1.1880    2.5750    0.0000 C.3     1  LIG1        0.1033
      2 C           2.0830    2.1380    0.0000 C.ar    1  LIG1       -0.0036
      3 C           2.7750    2.8630    0.0000 C.ar    1  LIG1       -0.0026
      4 C           2.2960    3.7420    0.0000 C.ar    1  LIG1       -0.0026
      5 C           1.3380    3.5580    0.0000 C.ar    1  LIG1       -0.0036
      6 C           0.6920    4.3380    0.0000 C.ar    1  LIG1       -0.0026
      7 C           1.0380    5.2750    0.0000 C.ar    1  LIG1       -0.0003
      8 C           2.0080    5.4460    0.0000 C.ar    1  LIG1       -0.0000
      9 C           2.6460    4.6750    0.0000 C.ar    1  LIG1       -0.0003
     10 C           3.7330    2.6210    0.0000 C.ar    1  LIG1       -0.0003
     11 C           4.0210    1.6670    0.0000 C.ar    1  LIG1       -0.0000
     12 C           3.3250    0.9290    0.0000 C.ar    1  LIG1       -0.0003
     13 C           2.3540    1.1710    0.0000 C.ar    1  LIG1       -0.0026
     14 N           0.3250    2.0630    0.0000 N.3     1  LIG1       -0.2567
     15 C           0.3250    1.0630    0.0000 C.3     1  LIG1        0.1363
     16 C          -0.5460    0.5540    0.0000 C.3     1  LIG1        0.1570
     17 N          -1.4080    1.0500    0.0000 N.4     1  LIG1        0.3867
     18 C          -2.2710    0.5580    0.0000 C.3     1  LIG1        0.2270
     19 C          -2.2710   -0.4290    0.0000 C.2     1  LIG1        0.3033
     20 N          -3.1500   -0.9290    0.0000 N.am    1  LIG1       -0.1742
     21 C          -3.1500   -1.9420    0.0000 C.ar    1  LIG1        0.0736
     22 C          -2.2880   -2.4420    0.0000 C.ar    1  LIG1        0.0167
     23 C          -2.2880   -3.4500    0.0000 C.ar    1  LIG1        0.0060
     24 C          -3.1630   -3.9380    0.0000 C.ar    1  LIG1        0.0567
     25 C          -3.1630   -4.9460    0.0000 C.2     1  LIG1        0.2842
     26 O          -2.2880   -5.4460    0.0000 O.2     1  LIG1       -0.2667
     27 N          -4.0250   -5.4460    0.0000 N.am    1  LIG1       -0.0837
     28 C          -4.0170   -3.4330    0.0000 C.ar    1  LIG1        0.0060
     29 C          -4.0080   -2.4380    0.0000 C.ar    1  LIG1        0.0167
     30 O          -1.4080   -0.9420    0.0000 O.2     1  LIG1       -0.2665
     31 C          -1.4080    2.0460    0.0000 C.3     1  LIG1        0.1570
     32 C          -0.5500    2.5630    0.0000 C.3     1  LIG1        0.1363
@<TRIPOS>BOND
     1     1     2    1
     2     1     5    1
     3     1    14    1
     4     2     3   ar
     5     2    13   ar
     6     3     4    1
     7     3    10   ar
     8     4     5   ar
     9     4     9   ar
    10     5     6   ar
    11     6     7   ar
    12     7     8   ar
    13     8     9   ar
    14    10    11   ar
    15    11    12   ar
    16    12    13   ar
    17    14    15    1
    18    14    32    1
    19    15    16    1
    20    16    17    1
    21    17    18    1
    22    17    31    1
    23    18    19    1
    24    19    20   am
    25    19    30    2
    26    20    21    1
    27    21    22   ar
    28    21    29   ar
    29    22    23   ar
    30    23    24   ar
    31    24    25    1
    32    24    28   ar
    33    25    26    2
    34    25    27   am
    35    28    29   ar
    36    31    32    1
