@<TRIPOS>MOLECULE
26374_ChemDiv_K940-1561
 32 36 0 0 0
SMALL
GASTEIGER
Energy = 0

@<TRIPOS>ATOM
      1 C           2.0500    1.0790    0.0000 C.3     1  LIG1        0.1033
      2 C           2.9500    0.6420    0.0000 C.ar    1  LIG1       -0.0036
      3 C           3.6420    1.3670    0.0000 C.ar    1  LIG1       -0.0026
      4 C           3.1580    2.2460    0.0000 C.ar    1  LIG1       -0.0026
      5 C           2.2000    2.0630    0.0000 C.ar    1  LIG1       -0.0036
      6 C           1.5540    2.8460    0.0000 C.ar    1  LIG1       -0.0026
      7 C           1.9000    3.7880    0.0000 C.ar    1  LIG1       -0.0003
      8 C           2.8710    3.9580    0.0000 C.ar    1  LIG1       -0.0000
      9 C           3.5080    3.1830    0.0000 C.ar    1  LIG1       -0.0003
     10 C           4.6000    1.1250    0.0000 C.ar    1  LIG1       -0.0003
     11 C           4.8880    0.1710    0.0000 C.ar    1  LIG1       -0.0000
     12 C           4.1920   -0.5710    0.0000 C.ar    1  LIG1       -0.0003
     13 C           3.2170   -0.3290    0.0000 C.ar    1  LIG1       -0.0026
     14 N           1.1880    0.5670    0.0000 N.3     1  LIG1       -0.2567
     15 C           0.3080    1.0630    0.0000 C.3     1  LIG1        0.1363
     16 C          -0.5500    0.5500    0.0000 C.3     1  LIG1        0.1570
     17 N          -0.5500   -0.4500    0.0000 N.4     1  LIG1        0.3867
     18 C          -1.4130   -0.9380    0.0000 C.3     1  LIG1        0.2270
     19 C          -1.4130   -1.9460    0.0000 C.2     1  LIG1        0.3034
     20 N          -2.2750   -2.4420    0.0000 N.am    1  LIG1       -0.1712
     21 C          -3.1540   -1.9460    0.0000 C.ar    1  LIG1        0.1071
     22 C          -4.0130   -2.4420    0.0000 C.ar    1  LIG1        0.1539
     23 C          -4.8750   -1.9460    0.0000 C.ar    1  LIG1        0.0379
     24 C          -4.8750   -0.9460    0.0000 C.ar    1  LIG1       -0.0011
     25 C          -4.0130   -0.4500    0.0000 C.ar    1  LIG1       -0.0204
     26 C          -3.1540   -0.9460    0.0000 C.ar    1  LIG1        0.0154
     27 C          -3.9960    0.5500    0.0000 C.3     1  LIG1        0.0311
     28 O          -4.0130   -3.4420    0.0000 O.3     1  LIG1       -0.4701
     29 C          -4.8920   -3.9540    0.0000 C.3     1  LIG1        0.2525
     30 O          -0.5500   -2.4290    0.0000 O.2     1  LIG1       -0.2665
     31 C           0.3130   -0.9460    0.0000 C.3     1  LIG1        0.1570
     32 C           1.1880   -0.4330    0.0000 C.3     1  LIG1        0.1363
@<TRIPOS>BOND
     1     1     2    1
     2     1     5    1
     3     1    14    1
     4     2     3   ar
     5     2    13   ar
     6     3     4    1
     7     3    10   ar
     8     4     5   ar
     9     4     9   ar
    10     5     6   ar
    11     6     7   ar
    12     7     8   ar
    13     8     9   ar
    14    10    11   ar
    15    11    12   ar
    16    12    13   ar
    17    14    15    1
    18    14    32    1
    19    15    16    1
    20    16    17    1
    21    17    18    1
    22    17    31    1
    23    18    19    1
    24    19    20   am
    25    19    30    2
    26    20    21    1
    27    21    22   ar
    28    21    26   ar
    29    22    23   ar
    30    22    28    1
    31    23    24   ar
    32    24    25   ar
    33    25    26   ar
    34    25    27    1
    35    28    29    1
    36    31    32    1
