@<TRIPOS>MOLECULE
26387_ChemDiv_1929-0037
 29 33 0 0 0
SMALL
GASTEIGER
Energy = 0

@<TRIPOS>ATOM
      1 C           1.4670    0.0130    0.0000 C.ar    1  LIG1        0.0216
      2 C           0.4880    0.0130    0.0000 C.ar    1  LIG1        0.1281
      3 C          -0.0170    0.8630    0.0000 C.ar    1  LIG1        0.2945
      4 N           0.4880    1.7330    0.0000 N.ar    1  LIG1       -0.2068
      5 C           1.4670    1.7330    0.0000 C.ar    1  LIG1        0.0847
      6 C           1.9750    0.8790    0.0000 C.ar    1  LIG1        0.0222
      7 C           3.0000    0.8630    0.0000 C.ar    1  LIG1        0.0404
      8 C           3.4960   -0.0080    0.0000 C.ar    1  LIG1        0.1956
      9 C           3.0000   -0.8710    0.0000 C.ar    1  LIG1        0.0390
     10 C           2.0040   -0.8710    0.0000 C.ar    1  LIG1        0.0045
     11 C           1.5040   -1.7460    0.0000 C.ar    1  LIG1        0.0001
     12 C           2.0040   -2.5920    0.0000 C.ar    1  LIG1        0.0000
     13 C           3.0000   -2.5920    0.0000 C.ar    1  LIG1        0.0001
     14 C           3.4960   -1.7460    0.0000 C.ar    1  LIG1        0.0032
     15 O           4.5040   -0.0250    0.0000 O.2     1  LIG1       -0.2866
     16 C           3.4960    1.7210    0.0000 C.ar    1  LIG1        0.0033
     17 C           2.9580    2.5960    0.0000 C.ar    1  LIG1        0.0016
     18 C           1.9630    2.5960    0.0000 C.ar    1  LIG1        0.0192
     19 O          -1.0420    0.8790    0.0000 O.2     1  LIG1       -0.2638
     20 N          -0.0170   -0.8710    0.0000 N.pl3   1  LIG1       -0.2076
     21 C          -1.0130   -0.8710    0.0000 C.ar    1  LIG1        0.0709
     22 C          -1.5040   -1.7250    0.0000 C.ar    1  LIG1        0.0196
     23 C          -2.5000   -1.7250    0.0000 C.ar    1  LIG1        0.0382
     24 C          -3.0040   -0.8710    0.0000 C.ar    1  LIG1        0.1386
     25 C          -2.5000    0.0130    0.0000 C.ar    1  LIG1        0.0382
     26 C          -1.5040    0.0130    0.0000 C.ar    1  LIG1        0.0196
     27 O          -4.0000   -0.8710    0.0000 O.3     1  LIG1       -0.4755
     28 C          -4.5080   -0.0250    0.0000 C.3     1  LIG1        0.2055
     29 C          -4.0290    0.8330    0.0000 C.3     1  LIG1        0.0512
@<TRIPOS>BOND
     1     1     2   ar
     2     1     6   ar
     3     1    10   ar
     4     2     3   ar
     5     2    20    1
     6     3     4   ar
     7     3    19    2
     8     4     5   ar
     9     5     6   ar
    10     5    18   ar
    11     6     7   ar
    12     7     8   ar
    13     7    16   ar
    14     8     9   ar
    15     8    15    2
    16     9    10   ar
    17     9    14   ar
    18    10    11   ar
    19    11    12   ar
    20    12    13   ar
    21    13    14   ar
    22    16    17   ar
    23    17    18   ar
    24    20    21    1
    25    21    22   ar
    26    21    26   ar
    27    22    23   ar
    28    23    24   ar
    29    24    25   ar
    30    24    27    1
    31    25    26   ar
    32    27    28    1
    33    28    29    1
