@<TRIPOS>MOLECULE
26381_ChemDiv_1185-0072
 15 17 0 0 0
SMALL
GASTEIGER
Energy = 0

@<TRIPOS>ATOM
      1 C           1.5630    1.1790    0.0000 C.ar    1  LIG1        0.3929
      2 N           1.2460    0.2580    0.0000 N.ar    1  LIG1        0.1039
      3 C           0.2290    0.2580    0.0000 C.ar    1  LIG1        0.3164
      4 C          -0.0330    1.1960    0.0000 C.ar    1  LIG1        0.1581
      5 N           0.7580    1.8000    0.0000 N.ar    1  LIG1       -0.2570
      6 C           1.1130    2.7790    0.0000 C.3     1  LIG1        0.1248
      7 C           2.0750    2.7880    0.0000 C.3     1  LIG1        0.0944
      8 S           2.3670    1.8000    0.0000 S.3     1  LIG1       -0.0180
      9 C          -0.3880   -0.4580    0.0000 C.ar    1  LIG1        0.0718
     10 C          -1.3710   -0.3250    0.0000 C.ar    1  LIG1        0.0059
     11 C          -2.0290   -1.0880    0.0000 C.ar    1  LIG1       -0.0041
     12 C          -1.6960   -2.0080    0.0000 C.ar    1  LIG1       -0.0218
     13 C          -0.6920   -2.1920    0.0000 C.ar    1  LIG1       -0.0041
     14 C          -0.0790   -1.4000    0.0000 C.ar    1  LIG1        0.0059
     15 C          -2.3710   -2.7830    0.0000 C.3     1  LIG1        0.0310
@<TRIPOS>BOND
     1     1     2   ar
     2     1     5   ar
     3     1     8    1
     4     2     3   ar
     5     3     4   ar
     6     3     9    1
     7     4     5   ar
     8     5     6    1
     9     6     7    1
    10     7     8    1
    11     9    10   ar
    12     9    14   ar
    13    10    11   ar
    14    11    12   ar
    15    12    13   ar
    16    12    15    1
    17    13    14   ar
