@<TRIPOS>MOLECULE
26389_ChemDiv_6145-0486
 25 28 0 0 0
SMALL
GASTEIGER
Energy = 0

@<TRIPOS>ATOM
      1 C           0.4290    0.2500    0.0000 C.ar    1  LIG1        0.0126
      2 C           0.4170    1.2500    0.0000 C.ar    1  LIG1        0.1333
      3 C           1.2790    1.7580    0.0000 C.ar    1  LIG1        0.2855
      4 N           2.1460    1.2580    0.0000 N.ar    1  LIG1       -0.2077
      5 C           2.1580    0.2580    0.0000 C.ar    1  LIG1        0.0847
      6 C           1.2960   -0.2420    0.0000 C.ar    1  LIG1        0.0220
      7 C           1.2960   -1.2500    0.0000 C.ar    1  LIG1        0.0510
      8 C           0.4330   -1.7540    0.0000 C.ar    1  LIG1        0.1964
      9 C          -0.4330   -1.2540    0.0000 C.ar    1  LIG1        0.0390
     10 C          -0.4330   -0.2540    0.0000 C.ar    1  LIG1        0.0035
     11 C          -1.3000    0.2460    0.0000 C.ar    1  LIG1        0.0001
     12 C          -2.1630   -0.2540    0.0000 C.ar    1  LIG1        0.0000
     13 C          -2.1630   -1.2540    0.0000 C.ar    1  LIG1        0.0001
     14 C          -1.3000   -1.7540    0.0000 C.ar    1  LIG1        0.0032
     15 O           0.4330   -2.7540    0.0000 O.2     1  LIG1       -0.2865
     16 C           2.1580   -1.7420    0.0000 C.ar    1  LIG1        0.0608
     17 C           3.0380   -1.2420    0.0000 C.ar    1  LIG1        0.0130
     18 C           3.0210   -0.2250    0.0000 C.ar    1  LIG1        0.0201
     19 CL          2.1750   -2.7420    0.0000 Cl      1  LIG1       -0.0821
     20 O           1.2790    2.7580    0.0000 O.2     1  LIG1       -0.2650
     21 C          -0.4460    1.7460    0.0000 C.2     1  LIG1        0.3459
     22 O          -0.4500    2.7460    0.0000 O.2     1  LIG1       -0.2447
     23 O          -1.3080    1.2460    0.0000 O.3     1  LIG1       -0.4453
     24 C          -2.1790    1.7330    0.0000 C.3     1  LIG1        0.2089
     25 C          -3.0420    1.2290    0.0000 C.3     1  LIG1        0.0513
@<TRIPOS>BOND
     1     1     2   ar
     2     1     6   ar
     3     1    10   ar
     4     2     3   ar
     5     2    21    1
     6     3     4   ar
     7     3    20    2
     8     4     5   ar
     9     5     6   ar
    10     5    18   ar
    11     6     7   ar
    12     7     8   ar
    13     7    16   ar
    14     8     9   ar
    15     8    15    2
    16     9    10   ar
    17     9    14   ar
    18    10    11   ar
    19    11    12   ar
    20    12    13   ar
    21    13    14   ar
    22    16    17   ar
    23    16    19    1
    24    17    18   ar
    25    21    22    2
    26    21    23    1
    27    23    24    1
    28    24    25    1
