@<TRIPOS>MOLECULE
26384_ChemDiv_K940-1587
 35 39 0 0 0
SMALL
GASTEIGER
Energy = 0

@<TRIPOS>ATOM
      1 C           2.4790    1.0880    0.0000 C.3     1  LIG1        0.1033
      2 C           3.3750    0.6500    0.0000 C.ar    1  LIG1       -0.0036
      3 C           4.0670    1.3750    0.0000 C.ar    1  LIG1       -0.0026
      4 C           3.5880    2.2540    0.0000 C.ar    1  LIG1       -0.0026
      5 C           2.6290    2.0750    0.0000 C.ar    1  LIG1       -0.0036
      6 C           1.9830    2.8540    0.0000 C.ar    1  LIG1       -0.0026
      7 C           2.3250    3.7960    0.0000 C.ar    1  LIG1       -0.0003
      8 C           3.3000    3.9670    0.0000 C.ar    1  LIG1       -0.0000
      9 C           3.9380    3.1920    0.0000 C.ar    1  LIG1       -0.0003
     10 C           5.0250    1.1330    0.0000 C.ar    1  LIG1       -0.0003
     11 C           5.3130    0.1830    0.0000 C.ar    1  LIG1       -0.0000
     12 C           4.6170   -0.5630    0.0000 C.ar    1  LIG1       -0.0003
     13 C           3.6420   -0.3170    0.0000 C.ar    1  LIG1       -0.0026
     14 N           1.6170    0.5750    0.0000 N.3     1  LIG1       -0.2567
     15 C           1.6170   -0.4250    0.0000 C.3     1  LIG1        0.1363
     16 C           0.7420   -0.9330    0.0000 C.3     1  LIG1        0.1570
     17 N          -0.1210   -0.4380    0.0000 N.4     1  LIG1        0.3867
     18 C          -0.9830   -0.9290    0.0000 C.3     1  LIG1        0.2270
     19 C          -0.9830   -1.9330    0.0000 C.2     1  LIG1        0.3034
     20 N          -1.8460   -2.4460    0.0000 N.am    1  LIG1       -0.1711
     21 C          -2.7250   -1.9500    0.0000 C.ar    1  LIG1        0.1087
     22 C          -2.7250   -0.9580    0.0000 C.ar    1  LIG1        0.0363
     23 C          -3.5830   -0.4710    0.0000 C.ar    1  LIG1        0.0749
     24 N          -3.5830    0.5460    0.0000 N.am    1  LIG1       -0.1792
     25 C          -4.4460    1.0460    0.0000 C.2     1  LIG1        0.2461
     26 O          -5.3170    0.5460    0.0000 O.2     1  LIG1       -0.2730
     27 C          -4.4460    2.0540    0.0000 C.3     1  LIG1        0.0968
     28 C          -4.4460   -0.9580    0.0000 C.ar    1  LIG1        0.0198
     29 C          -4.4460   -1.9630    0.0000 C.ar    1  LIG1        0.0396
     30 C          -3.5830   -2.4460    0.0000 C.ar    1  LIG1        0.1540
     31 O          -3.5830   -3.4630    0.0000 O.3     1  LIG1       -0.4701
     32 C          -4.4460   -3.9630    0.0000 C.3     1  LIG1        0.2525
     33 O          -0.1210   -2.4170    0.0000 O.2     1  LIG1       -0.2665
     34 C          -0.1210    0.5580    0.0000 C.3     1  LIG1        0.1570
     35 C           0.7380    1.0750    0.0000 C.3     1  LIG1        0.1363
@<TRIPOS>BOND
     1     1     2    1
     2     1     5    1
     3     1    14    1
     4     2     3   ar
     5     2    13   ar
     6     3     4    1
     7     3    10   ar
     8     4     5   ar
     9     4     9   ar
    10     5     6   ar
    11     6     7   ar
    12     7     8   ar
    13     8     9   ar
    14    10    11   ar
    15    11    12   ar
    16    12    13   ar
    17    14    15    1
    18    14    35    1
    19    15    16    1
    20    16    17    1
    21    17    18    1
    22    17    34    1
    23    18    19    1
    24    19    20   am
    25    19    33    2
    26    20    21    1
    27    21    22   ar
    28    21    30   ar
    29    22    23   ar
    30    23    24    1
    31    23    28   ar
    32    24    25   am
    33    25    26    2
    34    25    27    1
    35    28    29   ar
    36    29    30   ar
    37    30    31    1
    38    31    32    1
    39    34    35    1
