@<TRIPOS>MOLECULE
26386_ChemDiv_8011-5587
 27 30 0 0 0
SMALL
GASTEIGER
Energy = 0

@<TRIPOS>ATOM
      1 C           0.2750   -0.2500    0.0000 C.ar    1  LIG1        0.1801
      2 C           1.1540   -0.6500    0.0000 C.ar    1  LIG1        0.0215
      3 C           1.8380    0.1000    0.0000 C.ar    1  LIG1        0.0682
      4 C           2.8210    0.1420    0.0000 C.ar    1  LIG1        0.1510
      5 C           3.3130    1.0330    0.0000 C.ar    1  LIG1        0.0311
      6 C           4.3210    1.0330    0.0000 C.ar    1  LIG1       -0.0125
      7 C           4.8580    0.1920    0.0000 C.ar    1  LIG1        0.0781
      8 C           4.3670   -0.7040    0.0000 C.ar    1  LIG1        0.3456
      9 O           3.3540   -0.7250    0.0000 O.2     1  LIG1       -0.4210
     10 O           4.9000   -1.5670    0.0000 O.2     1  LIG1       -0.2445
     11 C           4.8080    1.9250    0.0000 C.3     1  LIG1        0.0313
     12 C           2.7960    1.8540    0.0000 C.ar    1  LIG1        0.0059
     13 C           1.7880    1.8540    0.0000 C.ar    1  LIG1        0.0377
     14 C           1.2960    0.9670    0.0000 C.ar    1  LIG1        0.1481
     15 O           0.3290    0.7500    0.0000 O.2     1  LIG1       -0.4505
     16 C           1.3500   -1.6170    0.0000 C.3     1  LIG1        0.0298
     17 C           2.2830   -1.9210    0.0000 C.3     1  LIG1        0.0051
     18 C          -0.5710   -0.7710    0.0000 C.2     1  LIG1        0.2294
     19 C          -1.4630   -0.2960    0.0000 C.ar    1  LIG1        0.0422
     20 C          -1.4290    0.7380    0.0000 C.ar    1  LIG1        0.0064
     21 C          -2.2830    1.2040    0.0000 C.ar    1  LIG1        0.0370
     22 C          -3.2000    0.7170    0.0000 C.ar    1  LIG1        0.1387
     23 C          -3.1540   -0.2080    0.0000 C.ar    1  LIG1        0.0370
     24 C          -2.3080   -0.7630    0.0000 C.ar    1  LIG1        0.0064
     25 O          -4.0960    1.1250    0.0000 O.3     1  LIG1       -0.4714
     26 C          -4.9040    0.5630    0.0000 C.3     1  LIG1        0.2525
     27 O          -0.5540   -1.8000    0.0000 O.2     1  LIG1       -0.2833
@<TRIPOS>BOND
     1     1     2   ar
     2     1    15   ar
     3     1    18    1
     4     2     3   ar
     5     2    16    1
     6     3     4   ar
     7     3    14   ar
     8     4     5   ar
     9     4     9   ar
    10     5     6   ar
    11     5    12   ar
    12     6     7   ar
    13     6    11    1
    14     7     8   ar
    15     8     9   ar
    16     8    10    2
    17    12    13   ar
    18    13    14   ar
    19    14    15   ar
    20    16    17    1
    21    18    19    1
    22    18    27    2
    23    19    20   ar
    24    19    24   ar
    25    20    21   ar
    26    21    22   ar
    27    22    23   ar
    28    22    25    1
    29    23    24   ar
    30    25    26    1
