@<TRIPOS>MOLECULE
26388_ChemDiv_8011-5847
 26 29 0 0 0
SMALL
GASTEIGER
Energy = 0

@<TRIPOS>ATOM
      1 C          -1.2830   -0.5210    0.0000 C.ar    1  LIG1        0.1800
      2 O          -0.4330   -1.0040    0.0000 O.2     1  LIG1       -0.4508
      3 C           0.4170   -0.5210    0.0000 C.ar    1  LIG1        0.1440
      4 C           0.4170    0.4540    0.0000 C.ar    1  LIG1        0.0335
      5 C          -1.2830    0.4540    0.0000 C.ar    1  LIG1        0.0185
      6 C          -2.1170    0.9670    0.0000 C.3     1  LIG1        0.0297
      7 C          -2.1170    1.9750    0.0000 C.3     1  LIG1        0.0051
      8 C           1.2710    0.9330    0.0000 C.ar    1  LIG1        0.0055
      9 C           2.1250    0.4540    0.0000 C.ar    1  LIG1        0.0308
     10 C           2.1250   -0.5210    0.0000 C.ar    1  LIG1        0.1473
     11 C           1.2710   -1.0040    0.0000 C.ar    1  LIG1        0.0472
     12 C           1.2710   -1.9710    0.0000 C.3     1  LIG1        0.0375
     13 O           2.9630   -1.0040    0.0000 O.2     1  LIG1       -0.4213
     14 C           3.8170   -0.5210    0.0000 C.ar    1  LIG1        0.3456
     15 C           3.8170    0.4540    0.0000 C.ar    1  LIG1        0.0781
     16 C           2.9630    0.9330    0.0000 C.ar    1  LIG1       -0.0125
     17 C           2.9630    1.9000    0.0000 C.3     1  LIG1        0.0313
     18 O           4.6630   -0.9960    0.0000 O.2     1  LIG1       -0.2445
     19 C          -2.1380   -1.0170    0.0000 C.2     1  LIG1        0.2294
     20 O          -2.1380   -1.9580    0.0000 O.2     1  LIG1       -0.2833
     21 C          -2.9880   -0.5460    0.0000 C.ar    1  LIG1        0.0420
     22 C          -2.9880    0.4670    0.0000 C.ar    1  LIG1        0.0033
     23 C          -3.8420    0.9170    0.0000 C.ar    1  LIG1        0.0001
     24 C          -4.6630    0.4540    0.0000 C.ar    1  LIG1        0.0000
     25 C          -4.6630   -0.5330    0.0000 C.ar    1  LIG1        0.0001
     26 C          -3.8290   -1.0170    0.0000 C.ar    1  LIG1        0.0033
@<TRIPOS>BOND
     1     1     2   ar
     2     1     5   ar
     3     1    19    1
     4     2     3   ar
     5     3     4   ar
     6     3    11   ar
     7     4     5   ar
     8     4     8   ar
     9     5     6    1
    10     6     7    1
    11     8     9   ar
    12     9    10   ar
    13     9    16   ar
    14    10    11   ar
    15    10    13   ar
    16    11    12    1
    17    13    14   ar
    18    14    15   ar
    19    14    18    2
    20    15    16   ar
    21    16    17    1
    22    19    20    2
    23    19    21    1
    24    21    22   ar
    25    21    26   ar
    26    22    23   ar
    27    23    24   ar
    28    24    25   ar
    29    25    26   ar
