@<TRIPOS>MOLECULE
26397_ChemDiv_6145-0677
 28 31 0 0 0
SMALL
GASTEIGER
Energy = 0

@<TRIPOS>ATOM
      1 C          -0.0080   -0.7460    0.0000 C.ar    1  LIG1        0.0211
      2 C          -0.0170    0.2500    0.0000 C.ar    1  LIG1        0.1214
      3 C           0.8500    0.7580    0.0000 C.ar    1  LIG1        0.2758
      4 N           1.7130    0.2670    0.0000 N.ar    1  LIG1       -0.2925
      5 C           1.7170   -0.7330    0.0000 C.ar    1  LIG1        0.0627
      6 C           0.8540   -1.2420    0.0000 C.ar    1  LIG1        0.0204
      7 C           0.8630   -2.2460    0.0000 C.ar    1  LIG1        0.0404
      8 C           0.0000   -2.7460    0.0000 C.ar    1  LIG1        0.1956
      9 C          -0.8710   -2.2460    0.0000 C.ar    1  LIG1        0.0390
     10 C          -0.8710   -1.2460    0.0000 C.ar    1  LIG1        0.0045
     11 C          -1.7380   -0.7460    0.0000 C.ar    1  LIG1        0.0001
     12 C          -2.6000   -1.2580    0.0000 C.ar    1  LIG1        0.0000
     13 C          -2.6000   -2.2540    0.0000 C.ar    1  LIG1        0.0001
     14 C          -1.7380   -2.7540    0.0000 C.ar    1  LIG1        0.0032
     15 O           0.0000   -3.7460    0.0000 O.2     1  LIG1       -0.2866
     16 C           1.7330   -2.7420    0.0000 C.ar    1  LIG1        0.0033
     17 C           2.5960   -2.2290    0.0000 C.ar    1  LIG1        0.0016
     18 C           2.5880   -1.2250    0.0000 C.ar    1  LIG1        0.0173
     19 C           2.5750    0.7710    0.0000 C.3     1  LIG1        0.1336
     20 O           0.8380    1.7540    0.0000 O.2     1  LIG1       -0.2656
     21 N          -0.8880    0.7500    0.0000 N.pl3   1  LIG1       -0.2329
     22 C          -0.8880    1.7500    0.0000 C.3     1  LIG1        0.1124
     23 C          -1.7500    2.2330    0.0000 C.3     1  LIG1        0.0233
     24 C          -1.7670    3.2330    0.0000 C.3     1  LIG1        0.0018
     25 C          -0.9040    3.7380    0.0000 C.3     1  LIG1        0.0001
     26 C          -0.0290    3.2380    0.0000 C.3     1  LIG1        0.0000
     27 C           0.8330    3.7500    0.0000 C.3     1  LIG1        0.0000
     28 C           1.7000    3.2500    0.0000 C.3     1  LIG1        0.0000
@<TRIPOS>BOND
     1     1     2   ar
     2     1     6   ar
     3     1    10   ar
     4     2     3   ar
     5     2    21    1
     6     3     4   ar
     7     3    20    2
     8     4     5   ar
     9     4    19    1
    10     5     6   ar
    11     5    18   ar
    12     6     7   ar
    13     7     8   ar
    14     7    16   ar
    15     8     9   ar
    16     8    15    2
    17     9    10   ar
    18     9    14   ar
    19    10    11   ar
    20    11    12   ar
    21    12    13   ar
    22    13    14   ar
    23    16    17   ar
    24    17    18   ar
    25    21    22    1
    26    22    23    1
    27    23    24    1
    28    24    25    1
    29    25    26    1
    30    26    27    1
    31    27    28    1
