@<TRIPOS>MOLECULE
26393_ChemDiv_6145-0519
 34 38 0 0 0
SMALL
GASTEIGER
Energy = 0

@<TRIPOS>ATOM
      1 C          -2.2130    2.0000    0.0000 C.ar    1  LIG1        0.0063
      2 C          -1.3540    1.5040    0.0000 C.ar    1  LIG1        0.0174
      3 C          -1.3540    0.5000    0.0000 C.ar    1  LIG1        0.0183
      4 C          -2.2130    0.0040    0.0000 C.ar    1  LIG1        0.1938
      5 C          -3.0750    0.5000    0.0000 C.ar    1  LIG1        0.0389
      6 C          -3.0750    1.5040    0.0000 C.ar    1  LIG1        0.0033
      7 C          -3.9380    2.0000    0.0000 C.ar    1  LIG1        0.0001
      8 C          -4.8040    1.5040    0.0000 C.ar    1  LIG1        0.0000
      9 C          -4.8040    0.5000    0.0000 C.ar    1  LIG1        0.0001
     10 C          -3.9380    0.0040    0.0000 C.ar    1  LIG1        0.0032
     11 O          -2.2130   -0.9960    0.0000 O.2     1  LIG1       -0.2866
     12 C          -0.4920    0.0040    0.0000 C.ar    1  LIG1       -0.1091
     13 N          -0.4920   -0.9960    0.0000 N.pl3   1  LIG1       -0.5357
     14 S           0.3710   -1.4960    0.0000 S.O2    1  LIG1       -0.0578
     15 C           1.2460   -1.9920    0.0000 C.ar    1  LIG1        0.0893
     16 C           2.1080   -1.4960    0.0000 C.ar    1  LIG1        0.0166
     17 C           2.9710   -1.9920    0.0000 C.ar    1  LIG1       -0.0030
     18 C           2.9710   -3.0000    0.0000 C.ar    1  LIG1       -0.0227
     19 C           3.8330   -3.5040    0.0000 C.3     1  LIG1        0.0189
     20 C           3.8330   -4.5000    0.0000 C.3     1  LIG1        0.0044
     21 C           4.7040   -3.0040    0.0000 C.3     1  LIG1        0.0044
     22 C           4.8000   -3.7630    0.0000 C.3     1  LIG1        0.0044
     23 C           2.1080   -3.5000    0.0000 C.ar    1  LIG1       -0.0030
     24 C           1.2460   -3.0000    0.0000 C.ar    1  LIG1        0.0166
     25 O           0.8790   -0.6170    0.0000 O.2     1  LIG1       -0.1842
     26 O          -0.1290   -2.3540    0.0000 O.2     1  LIG1       -0.1842
     27 C           0.3790    0.5000    0.0000 C.ar    1  LIG1       -0.0223
     28 C           0.3790    1.5040    0.0000 C.ar    1  LIG1        0.0154
     29 C          -0.4920    2.0000    0.0000 C.ar    1  LIG1        0.0625
     30 N          -0.4920    3.0080    0.0000 N.ar    1  LIG1       -0.2935
     31 C          -1.3540    3.5080    0.0000 C.ar    1  LIG1        0.2610
     32 C          -2.2130    3.0080    0.0000 C.ar    1  LIG1        0.0608
     33 O          -1.3540    4.5000    0.0000 O.2     1  LIG1       -0.2670
     34 C           0.3880    3.5130    0.0000 C.3     1  LIG1        0.1335
@<TRIPOS>BOND
     1     1     2   ar
     2     1     6   ar
     3     1    32   ar
     4     2     3   ar
     5     2    29   ar
     6     3     4   ar
     7     3    12   ar
     8     4     5   ar
     9     4    11    2
    10     5     6   ar
    11     5    10   ar
    12     6     7   ar
    13     7     8   ar
    14     8     9   ar
    15     9    10   ar
    16    12    13    1
    17    12    27   ar
    18    13    14    1
    19    14    15    1
    20    14    25    2
    21    14    26    2
    22    15    16   ar
    23    15    24   ar
    24    16    17   ar
    25    17    18   ar
    26    18    19    1
    27    18    23   ar
    28    19    20    1
    29    19    21    1
    30    19    22    1
    31    23    24   ar
    32    27    28   ar
    33    28    29   ar
    34    29    30   ar
    35    30    31   ar
    36    30    34    1
    37    31    32   ar
    38    31    33    2
