@<TRIPOS>MOLECULE
26391_ChemDiv_6145-0489
 23 26 0 0 0
SMALL
GASTEIGER
Energy = 0

@<TRIPOS>ATOM
      1 C          -0.0210    1.2500    0.0000 C.ar    1  LIG1        0.0908
      2 C          -0.0130    0.2500    0.0000 C.ar    1  LIG1        0.0090
      3 C           0.8540   -0.2420    0.0000 C.ar    1  LIG1        0.0192
      4 C           1.7210    0.2580    0.0000 C.ar    1  LIG1        0.0626
      5 N           1.7040    1.2580    0.0000 N.ar    1  LIG1       -0.2934
      6 C           0.8420    1.7580    0.0000 C.ar    1  LIG1        0.2636
      7 O           0.8420    2.7580    0.0000 O.2     1  LIG1       -0.2669
      8 C           2.5670    1.7750    0.0000 C.3     1  LIG1        0.1335
      9 C           2.5830   -0.2250    0.0000 C.ar    1  LIG1        0.0173
     10 C           2.6000   -1.2420    0.0000 C.ar    1  LIG1        0.0016
     11 C           1.7290   -1.7420    0.0000 C.ar    1  LIG1        0.0033
     12 C           0.8540   -1.2500    0.0000 C.ar    1  LIG1        0.0403
     13 C          -0.0080   -1.7540    0.0000 C.ar    1  LIG1        0.1956
     14 C          -0.8710   -1.2540    0.0000 C.ar    1  LIG1        0.0390
     15 C          -0.8710   -0.2540    0.0000 C.ar    1  LIG1        0.0034
     16 C          -1.7380    0.2460    0.0000 C.ar    1  LIG1        0.0001
     17 C          -2.6040   -0.2540    0.0000 C.ar    1  LIG1        0.0000
     18 C          -2.6040   -1.2540    0.0000 C.ar    1  LIG1        0.0001
     19 C          -1.7380   -1.7540    0.0000 C.ar    1  LIG1        0.0032
     20 O          -0.0080   -2.7540    0.0000 O.2     1  LIG1       -0.2866
     21 C          -0.8880    1.7460    0.0000 C.2     1  LIG1        0.1781
     22 O          -0.8920    2.7420    0.0000 O.2     1  LIG1       -0.2912
     23 C          -1.7500    1.2460    0.0000 C.3     1  LIG1        0.0774
@<TRIPOS>BOND
     1     1     2   ar
     2     1     6   ar
     3     1    21    1
     4     2     3   ar
     5     2    15   ar
     6     3     4   ar
     7     3    12   ar
     8     4     5   ar
     9     4     9   ar
    10     5     6   ar
    11     5     8    1
    12     6     7    2
    13     9    10   ar
    14    10    11   ar
    15    11    12   ar
    16    12    13   ar
    17    13    14   ar
    18    13    20    2
    19    14    15   ar
    20    14    19   ar
    21    15    16   ar
    22    16    17   ar
    23    17    18   ar
    24    18    19   ar
    25    21    22    2
    26    21    23    1
