@<TRIPOS>MOLECULE
26407_ChemDiv_1185-0506
 27 30 0 0 0
SMALL
GASTEIGER
Energy = 0

@<TRIPOS>ATOM
      1 N           1.0630    1.4040    0.0000 N.ar    1  LIG1       -0.1373
      2 C           0.2330    1.9380    0.0000 C.ar    1  LIG1        0.2494
      3 C           0.4830    2.9130    0.0000 C.ar    1  LIG1        0.1507
      4 N           1.4750    2.9790    0.0000 N.ar    1  LIG1       -0.2720
      5 C           1.8290    2.0420    0.0000 C.ar    1  LIG1        0.2774
      6 C           2.7790    1.7540    0.0000 C.3     1  LIG1        0.1177
      7 C           3.6040    2.3130    0.0000 C.3     1  LIG1        0.0130
      8 C           3.6880    3.3000    0.0000 C.3     1  LIG1        0.0026
      9 C           2.9880    3.9750    0.0000 C.3     1  LIG1        0.0247
     10 C           1.9920    3.8460    0.0000 C.3     1  LIG1        0.1115
     11 C          -0.7170    1.5880    0.0000 C.ar    1  LIG1        0.0658
     12 C          -1.5040    2.2460    0.0000 C.ar    1  LIG1        0.0091
     13 C          -2.4330    1.9000    0.0000 C.ar    1  LIG1        0.0371
     14 C          -2.5960    0.9250    0.0000 C.ar    1  LIG1        0.1387
     15 C          -1.8330    0.2670    0.0000 C.ar    1  LIG1        0.0371
     16 C          -0.9000    0.6170    0.0000 C.ar    1  LIG1        0.0091
     17 O          -3.5250    0.5750    0.0000 O.3     1  LIG1       -0.4714
     18 C          -3.6920   -0.3920    0.0000 C.3     1  LIG1        0.2525
     19 C           1.1830    0.4080    0.0000 C.ar    1  LIG1        0.2325
     20 C           0.3540   -0.1830    0.0000 C.ar    1  LIG1        0.0728
     21 C           0.4580   -1.1790    0.0000 C.ar    1  LIG1        0.0430
     22 C           1.3880   -1.5920    0.0000 C.ar    1  LIG1        0.1390
     23 C           2.2000   -1.0130    0.0000 C.ar    1  LIG1        0.0430
     24 C           2.0960   -0.0040    0.0000 C.ar    1  LIG1        0.0728
     25 O           1.5170   -2.5880    0.0000 O.3     1  LIG1       -0.4755
     26 C           2.4460   -2.9750    0.0000 C.3     1  LIG1        0.2055
     27 C           2.5710   -3.9710    0.0000 C.3     1  LIG1        0.0512
@<TRIPOS>BOND
     1     1     2   ar
     2     1     5   ar
     3     1    19    1
     4     2     3   ar
     5     2    11    1
     6     3     4   ar
     7     4     5   ar
     8     4    10    1
     9     5     6    1
    10     6     7    1
    11     7     8    1
    12     8     9    1
    13     9    10    1
    14    11    12   ar
    15    11    16   ar
    16    12    13   ar
    17    13    14   ar
    18    14    15   ar
    19    14    17    1
    20    15    16   ar
    21    17    18    1
    22    19    20   ar
    23    19    24   ar
    24    20    21   ar
    25    21    22   ar
    26    22    23   ar
    27    22    25    1
    28    23    24   ar
    29    25    26    1
    30    26    27    1
