@<TRIPOS>MOLECULE
26401_ChemDiv_1185-0412
 20 22 0 0 0
SMALL
GASTEIGER
Energy = 0

@<TRIPOS>ATOM
      1 N          -0.5420   -0.0880    0.0000 N.ar    1  LIG1       -0.2680
      2 C          -0.2210   -1.0380    0.0000 C.ar    1  LIG1        0.2021
      3 N           0.7710   -1.0380    0.0000 N.ar    1  LIG1        0.0630
      4 C           1.0920   -0.1380    0.0000 C.ar    1  LIG1        0.3129
      5 C           0.2750    0.4880    0.0000 C.ar    1  LIG1        0.1599
      6 C           2.0290    0.2040    0.0000 C.ar    1  LIG1        0.0717
      7 C           2.2250    1.1960    0.0000 C.ar    1  LIG1        0.0062
      8 C           3.1670    1.5170    0.0000 C.ar    1  LIG1        0.0002
      9 C           3.9170    0.8460    0.0000 C.ar    1  LIG1        0.0000
     10 C           3.7250   -0.1380    0.0000 C.ar    1  LIG1        0.0002
     11 C           2.7790   -0.4580    0.0000 C.ar    1  LIG1        0.0062
     12 S          -0.7960   -1.8920    0.0000 S.3     1  LIG1       -0.6604
     13 C          -1.4580    0.2500    0.0000 C.ar    1  LIG1        0.0631
     14 C          -1.6290    1.2380    0.0000 C.ar    1  LIG1       -0.0056
     15 C          -2.5790    1.5960    0.0000 C.ar    1  LIG1       -0.0031
     16 C          -3.3460    0.9540    0.0000 C.ar    1  LIG1       -0.0045
     17 C          -3.1540   -0.0330    0.0000 C.ar    1  LIG1       -0.0204
     18 C          -2.2290   -0.3710    0.0000 C.ar    1  LIG1        0.0131
     19 C          -3.9210   -0.6920    0.0000 C.3     1  LIG1        0.0311
     20 C          -0.8830    1.8960    0.0000 C.3     1  LIG1        0.0326
@<TRIPOS>BOND
     1     1     2   ar
     2     1     5   ar
     3     1    13    1
     4     2     3   ar
     5     2    12    1
     6     3     4   ar
     7     4     5   ar
     8     4     6    1
     9     6     7   ar
    10     6    11   ar
    11     7     8   ar
    12     8     9   ar
    13     9    10   ar
    14    10    11   ar
    15    13    14   ar
    16    13    18   ar
    17    14    15   ar
    18    14    20    1
    19    15    16   ar
    20    16    17   ar
    21    17    18   ar
    22    17    19    1
