@<TRIPOS>MOLECULE
26405_ChemDiv_K843-0043
 22 25 0 0 0
SMALL
GASTEIGER
Energy = 0

@<TRIPOS>ATOM
      1 N           0.4170    1.3540    0.0000 N.ar    1  LIG1       -0.1231
      2 C          -0.5500    1.0500    0.0000 C.ar    1  LIG1        0.3305
      3 N          -0.5500    0.0330    0.0000 N.ar    1  LIG1       -0.2640
      4 C           0.4170   -0.2710    0.0000 C.ar    1  LIG1        0.1357
      5 C           0.9880    0.5460    0.0000 C.ar    1  LIG1        0.3142
      6 C           0.7750   -1.1920    0.0000 C.ar    1  LIG1        0.0220
      7 C           1.7670   -1.3750    0.0000 C.ar    1  LIG1        0.0013
      8 C           2.1330   -2.3080    0.0000 C.ar    1  LIG1       -0.0042
      9 C           1.5000   -3.0880    0.0000 C.ar    1  LIG1       -0.0218
     10 C           0.5040   -2.9380    0.0000 C.ar    1  LIG1       -0.0042
     11 C           0.1420   -2.0080    0.0000 C.ar    1  LIG1        0.0013
     12 C           1.8880   -4.0500    0.0000 C.3     1  LIG1        0.0310
     13 C          -1.4130   -0.4790    0.0000 C.3     1  LIG1        0.1133
     14 C          -2.2500    0.0630    0.0000 C.3     1  LIG1        0.0369
     15 C          -2.2500    1.0210    0.0000 C.3     1  LIG1        0.0716
     16 S          -1.4130    1.5330    0.0000 S.3     1  LIG1       -0.0259
     17 C           0.8380    2.2580    0.0000 C.ar    1  LIG1        0.2332
     18 C           1.8290    2.3460    0.0000 C.ar    1  LIG1        0.0698
     19 C           2.2460    3.2500    0.0000 C.ar    1  LIG1        0.0061
     20 C           1.6790    4.0500    0.0000 C.ar    1  LIG1        0.0004
     21 C           0.6880    3.9750    0.0000 C.ar    1  LIG1        0.0061
     22 C           0.2630    3.0710    0.0000 C.ar    1  LIG1        0.0698
@<TRIPOS>BOND
     1     1     2   ar
     2     1     5   ar
     3     1    17    1
     4     2     3   ar
     5     2    16    1
     6     3     4   ar
     7     3    13    1
     8     4     5   ar
     9     4     6    1
    10     6     7   ar
    11     6    11   ar
    12     7     8   ar
    13     8     9   ar
    14     9    10   ar
    15     9    12    1
    16    10    11   ar
    17    13    14    1
    18    14    15    1
    19    15    16    1
    20    17    18   ar
    21    17    22   ar
    22    18    19   ar
    23    19    20   ar
    24    20    21   ar
    25    21    22   ar
