@<TRIPOS>MOLECULE
26418_ChemDiv_1317-0154
 12 13 0 0 0
SMALL
GASTEIGER
Energy = 0

@<TRIPOS>ATOM
      1 C          -0.4500   -0.9790    0.0000 C.ar    1  LIG1        0.1743
      2 N          -0.4500    0.0330    0.0000 N.ar    1  LIG1       -0.2756
      3 C           0.4210    0.5250    0.0000 C.ar    1  LIG1        0.2648
      4 C           1.2920    0.0330    0.0000 C.ar    1  LIG1        0.0916
      5 C           1.2920   -0.9790    0.0000 C.ar    1  LIG1        0.1452
      6 N           0.4210   -1.4710    0.0000 N.ar    1  LIG1       -0.2108
      7 CL          2.1630   -1.5080    0.0000 Cl      1  LIG1       -0.0611
      8 O           0.4210    1.5130    0.0000 O.2     1  LIG1       -0.2668
      9 C          -1.2960    0.5250    0.0000 C.3     1  LIG1        0.1119
     10 C          -2.1670    0.0330    0.0000 C.3     1  LIG1        0.0367
     11 C          -2.1670   -0.9790    0.0000 C.3     1  LIG1        0.0671
     12 S          -1.2960   -1.4710    0.0000 S.3     1  LIG1       -0.0772
@<TRIPOS>BOND
     1     1     2   ar
     2     1     6   ar
     3     1    12    1
     4     2     3   ar
     5     2     9    1
     6     3     4   ar
     7     3     8    2
     8     4     5   ar
     9     5     6   ar
    10     5     7    1
    11     9    10    1
    12    10    11    1
    13    11    12    1
