@<TRIPOS>MOLECULE
26419_ChemDiv_8009-8881
 26 30 0 0 0
SMALL
GASTEIGER
Energy = 0

@<TRIPOS>ATOM
      1 C           0.0630    0.1580    0.0000 C.ar    1  LIG1        0.0062
      2 C          -0.0380    1.1540    0.0000 C.ar    1  LIG1        0.0562
      3 C           0.8000    1.7330    0.0000 C.ar    1  LIG1        0.2609
      4 N           1.6880    1.3330    0.0000 N.ar    1  LIG1       -0.2935
      5 C           1.8040    0.3460    0.0000 C.ar    1  LIG1        0.0626
      6 C           0.9880   -0.2540    0.0000 C.ar    1  LIG1        0.0191
      7 C           1.0670   -1.2790    0.0000 C.ar    1  LIG1        0.0403
      8 C           0.2500   -1.8380    0.0000 C.ar    1  LIG1        0.1956
      9 C          -0.6380   -1.4290    0.0000 C.ar    1  LIG1        0.0390
     10 C          -0.7380   -0.4380    0.0000 C.ar    1  LIG1        0.0033
     11 C          -1.6330    0.0080    0.0000 C.ar    1  LIG1        0.0001
     12 C          -2.4420   -0.6210    0.0000 C.ar    1  LIG1        0.0000
     13 C          -2.3710   -1.5790    0.0000 C.ar    1  LIG1        0.0001
     14 C          -1.4790   -1.9830    0.0000 C.ar    1  LIG1        0.0032
     15 O           0.2790   -2.8750    0.0000 O.2     1  LIG1       -0.2866
     16 C           1.9880   -1.6830    0.0000 C.ar    1  LIG1        0.0033
     17 C           2.7920   -1.1000    0.0000 C.ar    1  LIG1        0.0016
     18 C           2.6750   -0.0710    0.0000 C.ar    1  LIG1        0.0173
     19 C           2.4630    1.9210    0.0000 C.3     1  LIG1        0.1335
     20 O           0.7380    2.7710    0.0000 O.2     1  LIG1       -0.2670
     21 C          -0.9500    1.5250    0.0000 C.ar    1  LIG1        0.0046
     22 C          -1.7460    0.9080    0.0000 C.ar    1  LIG1        0.0002
     23 C          -2.6710    1.2960    0.0000 C.ar    1  LIG1        0.0000
     24 C          -2.7960    2.2790    0.0000 C.ar    1  LIG1        0.0000
     25 C          -2.0040    2.8790    0.0000 C.ar    1  LIG1        0.0000
     26 C          -1.0580    2.5080    0.0000 C.ar    1  LIG1        0.0002
@<TRIPOS>BOND
     1     1     2   ar
     2     1     6   ar
     3     1    10   ar
     4     2     3   ar
     5     2    21    1
     6     3     4   ar
     7     3    20    2
     8     4     5   ar
     9     4    19    1
    10     5     6   ar
    11     5    18   ar
    12     6     7   ar
    13     7     8   ar
    14     7    16   ar
    15     8     9   ar
    16     8    15    2
    17     9    10   ar
    18     9    14   ar
    19    10    11   ar
    20    11    12   ar
    21    12    13   ar
    22    13    14   ar
    23    16    17   ar
    24    17    18   ar
    25    21    22   ar
    26    21    26   ar
    27    22    23   ar
    28    23    24   ar
    29    24    25   ar
    30    25    26   ar
