@<TRIPOS>MOLECULE
26427_ChemDiv_8014-1626
 31 35 0 0 0
SMALL
GASTEIGER
Energy = 0

@<TRIPOS>ATOM
      1 C          -2.1460    1.2630    0.0000 C.ar    1  LIG1        0.0064
      2 C          -1.2880    0.7630    0.0000 C.ar    1  LIG1        0.0204
      3 C          -1.2880   -0.2380    0.0000 C.ar    1  LIG1        0.0556
      4 C          -2.1460   -0.7380    0.0000 C.ar    1  LIG1        0.1968
      5 C          -3.0040   -0.2380    0.0000 C.ar    1  LIG1        0.0390
      6 C          -3.0040    0.7630    0.0000 C.ar    1  LIG1        0.0033
      7 C          -3.8630    1.2630    0.0000 C.ar    1  LIG1        0.0001
      8 C          -4.7460    0.7630    0.0000 C.ar    1  LIG1        0.0000
      9 C          -4.7460   -0.2380    0.0000 C.ar    1  LIG1        0.0001
     10 C          -3.8630   -0.7380    0.0000 C.ar    1  LIG1        0.0032
     11 O          -2.1460   -1.7330    0.0000 O.2     1  LIG1       -0.2865
     12 C          -0.4330   -0.7380    0.0000 C.ar    1  LIG1        0.0736
     13 N          -0.4330   -1.7330    0.0000 N.pl3   1  LIG1       -0.2124
     14 C           0.4250   -2.2380    0.0000 C.ar    1  LIG1        0.0706
     15 C           1.3040   -1.7330    0.0000 C.ar    1  LIG1        0.0178
     16 C           2.1670   -2.2380    0.0000 C.ar    1  LIG1        0.0179
     17 C           2.1420   -3.2380    0.0000 C.ar    1  LIG1        0.0734
     18 N           3.0250   -3.7630    0.0000 N.am    1  LIG1       -0.1792
     19 C           3.8790   -3.2630    0.0000 C.2     1  LIG1        0.2461
     20 O           3.8790   -2.2630    0.0000 O.2     1  LIG1       -0.2730
     21 C           4.7420   -3.7630    0.0000 C.3     1  LIG1        0.0968
     22 C           1.2830   -3.7380    0.0000 C.ar    1  LIG1        0.0179
     23 C           0.4250   -3.2380    0.0000 C.ar    1  LIG1        0.0178
     24 C           0.4500   -0.2380    0.0000 C.ar    1  LIG1        0.0181
     25 C           0.4500    0.7630    0.0000 C.ar    1  LIG1        0.0186
     26 C          -0.4040    1.2630    0.0000 C.ar    1  LIG1        0.0627
     27 N          -0.4040    2.2630    0.0000 N.ar    1  LIG1       -0.2935
     28 C          -1.2670    2.7630    0.0000 C.ar    1  LIG1        0.2610
     29 C          -2.1210    2.2630    0.0000 C.ar    1  LIG1        0.0608
     30 O          -1.2670    3.7670    0.0000 O.2     1  LIG1       -0.2670
     31 C           0.4750    2.7880    0.0000 C.3     1  LIG1        0.1335
@<TRIPOS>BOND
     1     1     2   ar
     2     1     6   ar
     3     1    29   ar
     4     2     3   ar
     5     2    26   ar
     6     3     4   ar
     7     3    12   ar
     8     4     5   ar
     9     4    11    2
    10     5     6   ar
    11     5    10   ar
    12     6     7   ar
    13     7     8   ar
    14     8     9   ar
    15     9    10   ar
    16    12    13    1
    17    12    24   ar
    18    13    14    1
    19    14    15   ar
    20    14    23   ar
    21    15    16   ar
    22    16    17   ar
    23    17    18    1
    24    17    22   ar
    25    18    19   am
    26    19    20    2
    27    19    21    1
    28    22    23   ar
    29    24    25   ar
    30    25    26   ar
    31    26    27   ar
    32    27    28   ar
    33    27    31    1
    34    28    29   ar
    35    28    30    2
