@<TRIPOS>MOLECULE
26425_ChemDiv_8014-1404
 25 28 0 0 0
SMALL
GASTEIGER
Energy = 0

@<TRIPOS>ATOM
      1 C           0.0000   -1.2500    0.0000 C.ar    1  LIG1        0.0212
      2 C           0.8630   -1.7460    0.0000 C.ar    1  LIG1        0.0222
      3 C           0.8630   -2.7540    0.0000 C.ar    1  LIG1        0.0404
      4 C           0.0000   -3.2500    0.0000 C.ar    1  LIG1        0.1956
      5 C          -0.8670   -2.7540    0.0000 C.ar    1  LIG1        0.0390
      6 C          -0.8670   -1.7460    0.0000 C.ar    1  LIG1        0.0045
      7 C          -1.7250   -1.2500    0.0000 C.ar    1  LIG1        0.0001
      8 C          -2.5960   -1.7460    0.0000 C.ar    1  LIG1        0.0000
      9 C          -2.5960   -2.7540    0.0000 C.ar    1  LIG1        0.0001
     10 C          -1.7250   -3.2500    0.0000 C.ar    1  LIG1        0.0032
     11 O           0.0000   -4.2540    0.0000 O.2     1  LIG1       -0.2866
     12 C           1.7250   -3.2500    0.0000 C.ar    1  LIG1        0.0033
     13 C           2.5920   -2.7540    0.0000 C.ar    1  LIG1        0.0016
     14 C           2.5920   -1.7460    0.0000 C.ar    1  LIG1        0.0192
     15 C           1.7250   -1.2500    0.0000 C.ar    1  LIG1        0.0847
     16 N           1.7250   -0.2420    0.0000 N.ar    1  LIG1       -0.2068
     17 C           0.8580    0.2630    0.0000 C.ar    1  LIG1        0.2940
     18 C           0.0000   -0.2420    0.0000 C.ar    1  LIG1        0.1231
     19 N          -0.8670    0.2540    0.0000 N.pl3   1  LIG1       -0.2328
     20 C          -0.8710    1.2540    0.0000 C.3     1  LIG1        0.1150
     21 C          -0.0080    1.7580    0.0000 C.3     1  LIG1        0.0554
     22 C          -0.0130    2.7540    0.0000 C.3     1  LIG1        0.1441
     23 O           0.8500    3.2540    0.0000 O.3     1  LIG1       -0.3510
     24 C           0.8460    4.2540    0.0000 C.3     1  LIG1        0.1741
     25 O           0.8630    1.2580    0.0000 O.2     1  LIG1       -0.2638
@<TRIPOS>BOND
     1     1     2   ar
     2     1     6   ar
     3     1    18   ar
     4     2     3   ar
     5     2    15   ar
     6     3     4   ar
     7     3    12   ar
     8     4     5   ar
     9     4    11    2
    10     5     6   ar
    11     5    10   ar
    12     6     7   ar
    13     7     8   ar
    14     8     9   ar
    15     9    10   ar
    16    12    13   ar
    17    13    14   ar
    18    14    15   ar
    19    15    16   ar
    20    16    17   ar
    21    17    18   ar
    22    17    25    2
    23    18    19    1
    24    19    20    1
    25    20    21    1
    26    21    22    1
    27    22    23    1
    28    23    24    1
