@<TRIPOS>MOLECULE
26429_ChemDiv_1210-0005
 17 19 0 0 0
SMALL
GASTEIGER
Energy = 0

@<TRIPOS>ATOM
      1 C          -0.9580   -0.9830    0.0000 C.ar    1  LIG1        0.2480
      2 C          -0.9580    0.0040    0.0000 C.ar    1  LIG1        0.3928
      3 N           0.0000    0.3170    0.0000 N.ar    1  LIG1        0.1231
      4 C           0.5920   -0.4920    0.0000 C.ar    1  LIG1        0.4479
      5 N           0.0000   -1.2920    0.0000 N.ar    1  LIG1       -0.1398
      6 N           1.5880   -0.5580    0.0000 N.pl3   1  LIG1       -0.2291
      7 C           2.1420    0.2830    0.0000 C.3     1  LIG1        0.1301
      8 C           3.1380    0.2170    0.0000 C.3     1  LIG1        0.1638
      9 O           3.5630   -0.6710    0.0000 O.3     1  LIG1       -0.3501
     10 C           3.0380   -1.5170    0.0000 C.3     1  LIG1        0.1638
     11 C           2.0500   -1.4460    0.0000 C.3     1  LIG1        0.1301
     12 C          -1.8250    0.4960    0.0000 C.ar    1  LIG1        0.3554
     13 N          -2.6960    0.0040    0.0000 N.ar    1  LIG1       -0.1669
     14 C          -2.6960   -0.9830    0.0000 C.ar    1  LIG1        0.2609
     15 N          -1.8250   -1.4880    0.0000 N.ar    1  LIG1       -0.1858
     16 N          -3.5670   -1.4880    0.0000 N.pl3   1  LIG1       -0.0859
     17 O          -1.8250    1.5210    0.0000 O.2     1  LIG1       -0.2582
@<TRIPOS>BOND
     1     1     2   ar
     2     1     5   ar
     3     1    15   ar
     4     2     3   ar
     5     2    12   ar
     6     3     4   ar
     7     4     5   ar
     8     4     6    1
     9     6     7    1
    10     6    11    1
    11     7     8    1
    12     8     9    1
    13     9    10    1
    14    10    11    1
    15    12    13   ar
    16    12    17    2
    17    13    14   ar
    18    14    15   ar
    19    14    16    1
