@<TRIPOS>MOLECULE
26421_ChemDiv_8009-9075
 26 30 0 0 0
SMALL
GASTEIGER
Energy = 0

@<TRIPOS>ATOM
      1 C           0.0040    1.2540    0.0000 C.ar    1  LIG1        0.0064
      2 C           0.8670    0.7580    0.0000 C.ar    1  LIG1        0.0203
      3 C           0.8670   -0.2670    0.0000 C.ar    1  LIG1        0.0536
      4 C           0.0040   -0.7630    0.0000 C.ar    1  LIG1        0.1968
      5 C          -0.8670   -0.2330    0.0000 C.ar    1  LIG1        0.0390
      6 C          -0.8670    0.7290    0.0000 C.ar    1  LIG1        0.0033
      7 C          -1.7380    1.2210    0.0000 C.ar    1  LIG1        0.0001
      8 C          -2.6080    0.7290    0.0000 C.ar    1  LIG1        0.0000
      9 C          -2.6080   -0.2330    0.0000 C.ar    1  LIG1        0.0001
     10 C          -1.7380   -0.7630    0.0000 C.ar    1  LIG1        0.0032
     11 O           0.0040   -1.7880    0.0000 O.2     1  LIG1       -0.2865
     12 C           1.7290   -0.7630    0.0000 C.ar    1  LIG1        0.0511
     13 N           1.7290   -1.7580    0.0000 N.pl3   1  LIG1       -0.3027
     14 C           0.8880   -2.2830    0.0000 C.3     1  LIG1        0.1231
     15 C           0.8880   -3.2580    0.0000 C.3     1  LIG1        0.1636
     16 O           1.7290   -3.7580    0.0000 O.3     1  LIG1       -0.3501
     17 C           2.5830   -3.2580    0.0000 C.3     1  LIG1        0.1636
     18 C           2.5830   -2.2460    0.0000 C.3     1  LIG1        0.1231
     19 C           2.6040   -0.2670    0.0000 C.ar    1  LIG1        0.0161
     20 C           2.6040    0.7290    0.0000 C.ar    1  LIG1        0.0185
     21 C           1.7290    1.2540    0.0000 C.ar    1  LIG1        0.0627
     22 N           1.7290    2.2460    0.0000 N.ar    1  LIG1       -0.2935
     23 C           0.8670    2.7380    0.0000 C.ar    1  LIG1        0.2610
     24 C           0.0040    2.2460    0.0000 C.ar    1  LIG1        0.0608
     25 O           0.8670    3.7630    0.0000 O.2     1  LIG1       -0.2670
     26 C           2.6040    2.7710    0.0000 C.3     1  LIG1        0.1335
@<TRIPOS>BOND
     1     1     2   ar
     2     1     6   ar
     3     1    24   ar
     4     2     3   ar
     5     2    21   ar
     6     3     4   ar
     7     3    12   ar
     8     4     5   ar
     9     4    11    2
    10     5     6   ar
    11     5    10   ar
    12     6     7   ar
    13     7     8   ar
    14     8     9   ar
    15     9    10   ar
    16    12    13    1
    17    12    19   ar
    18    13    14    1
    19    13    18    1
    20    14    15    1
    21    15    16    1
    22    16    17    1
    23    17    18    1
    24    19    20   ar
    25    20    21   ar
    26    21    22   ar
    27    22    23   ar
    28    22    26    1
    29    23    24   ar
    30    23    25    2
