@<TRIPOS>MOLECULE
26439_ChemDiv_E540-0010
 19 21 0 0 0
SMALL
GASTEIGER
Energy = 0

@<TRIPOS>ATOM
      1 C           0.8630    1.2420    0.0000 C.ar    1  LIG1        0.0702
      2 C          -0.0080    1.7540    0.0000 C.ar    1  LIG1        0.2004
      3 C          -0.8750    1.2420    0.0000 C.ar    1  LIG1        0.0683
      4 C          -0.8750    0.2420    0.0000 C.ar    1  LIG1        0.0983
      5 N          -0.0080   -0.2500    0.0000 N.ar    1  LIG1       -0.3197
      6 C           0.8630    0.2380    0.0000 C.ar    1  LIG1        0.0804
      7 C          -0.0080   -1.2500    0.0000 C.3     1  LIG1        0.1495
      8 C          -0.8750   -1.7500    0.0000 C.3     1  LIG1        0.1885
      9 O          -1.7380   -1.2500    0.0000 O.3     1  LIG1       -0.4757
     10 C          -1.7380   -0.2580    0.0000 C.ar    1  LIG1        0.1542
     11 C          -2.6000    0.2380    0.0000 C.ar    1  LIG1        0.0393
     12 C          -2.6000    1.2420    0.0000 C.ar    1  LIG1        0.0147
     13 C          -1.7380    1.7420    0.0000 C.ar    1  LIG1        0.0623
     14 CL         -1.7420    2.7420    0.0000 Cl      1  LIG1       -0.0821
     15 C          -0.8790   -2.7500    0.0000 C.3     1  LIG1        0.0493
     16 O          -0.0080    2.7540    0.0000 O.2     1  LIG1       -0.2864
     17 C           1.7330    1.7420    0.0000 C.2     1  LIG1        0.0774
     18 O           1.7330    2.7420    0.0000 O.co2   1  LIG1       -0.5444
     19 O           2.5960    1.2380    0.0000 O.co2   1  LIG1       -0.5444
@<TRIPOS>BOND
     1     1     2   ar
     2     1     6   ar
     3     1    17    1
     4     2     3   ar
     5     2    16    2
     6     3     4   ar
     7     3    13   ar
     8     4     5   ar
     9     4    10   ar
    10     5     6   ar
    11     5     7    1
    12     7     8    1
    13     8     9    1
    14     8    15    1
    15     9    10    1
    16    10    11   ar
    17    11    12   ar
    18    12    13   ar
    19    13    14    1
    20    17    18   ar
    21    17    19   ar
