@<TRIPOS>MOLECULE
26437_ChemDiv_E540-0009
 21 23 0 0 0
SMALL
GASTEIGER
Energy = 0

@<TRIPOS>ATOM
      1 C           0.0040    1.2380    0.0000 C.ar    1  LIG1        0.1316
      2 C          -0.8710    1.7500    0.0000 C.ar    1  LIG1        0.2056
      3 C          -1.7380    1.2380    0.0000 C.ar    1  LIG1        0.0685
      4 C          -1.7500    0.2250    0.0000 C.ar    1  LIG1        0.0983
      5 N          -0.8830   -0.2630    0.0000 N.ar    1  LIG1       -0.3196
      6 C           0.0040    0.2250    0.0000 C.ar    1  LIG1        0.0858
      7 C          -0.8920   -1.2630    0.0000 C.3     1  LIG1        0.1495
      8 C          -1.7540   -1.7460    0.0000 C.3     1  LIG1        0.1885
      9 O          -2.6130   -1.2460    0.0000 O.3     1  LIG1       -0.4757
     10 C          -2.6000   -0.2630    0.0000 C.ar    1  LIG1        0.1542
     11 C          -3.4750    0.2380    0.0000 C.ar    1  LIG1        0.0393
     12 C          -3.4750    1.2380    0.0000 C.ar    1  LIG1        0.0147
     13 C          -2.6130    1.7380    0.0000 C.ar    1  LIG1        0.0623
     14 CL         -2.6130    2.7330    0.0000 Cl      1  LIG1       -0.0821
     15 C          -1.7630   -2.7460    0.0000 C.3     1  LIG1        0.0493
     16 O          -0.8750    2.7500    0.0000 O.2     1  LIG1       -0.2862
     17 C           0.8710    1.7380    0.0000 C.2     1  LIG1        0.3458
     18 O           0.8710    2.7330    0.0000 O.2     1  LIG1       -0.2447
     19 O           1.7330    1.2380    0.0000 O.3     1  LIG1       -0.4453
     20 C           2.5960    1.7380    0.0000 C.3     1  LIG1        0.2089
     21 C           3.4710    1.2420    0.0000 C.3     1  LIG1        0.0513
@<TRIPOS>BOND
     1     1     2   ar
     2     1     6   ar
     3     1    17    1
     4     2     3   ar
     5     2    16    2
     6     3     4   ar
     7     3    13   ar
     8     4     5   ar
     9     4    10   ar
    10     5     6   ar
    11     5     7    1
    12     7     8    1
    13     8     9    1
    14     8    15    1
    15     9    10    1
    16    10    11   ar
    17    11    12   ar
    18    12    13   ar
    19    13    14    1
    20    17    18    2
    21    17    19    1
    22    19    20    1
    23    20    21    1
