@<TRIPOS>MOLECULE
26443_ChemDiv_E631-0009
 30 34 0 0 0
SMALL
GASTEIGER
Energy = 0

@<TRIPOS>ATOM
      1 C          -1.3080    1.2540    0.0000 C.ar    1  LIG1        0.1096
      2 C          -2.1750    1.7540    0.0000 C.ar    1  LIG1        0.2037
      3 C          -3.0330    1.2540    0.0000 C.ar    1  LIG1        0.0685
      4 C          -3.0330    0.2580    0.0000 C.ar    1  LIG1        0.0983
      5 N          -2.1750   -0.2420    0.0000 N.ar    1  LIG1       -0.3196
      6 C          -1.3080    0.2580    0.0000 C.ar    1  LIG1        0.0838
      7 C          -2.1750   -1.2500    0.0000 C.3     1  LIG1        0.1495
      8 C          -3.0330   -1.7500    0.0000 C.3     1  LIG1        0.1885
      9 O          -3.9080   -1.2500    0.0000 O.3     1  LIG1       -0.4757
     10 C          -3.9080   -0.2420    0.0000 C.ar    1  LIG1        0.1542
     11 C          -4.7670    0.2580    0.0000 C.ar    1  LIG1        0.0393
     12 C          -4.7670    1.2540    0.0000 C.ar    1  LIG1        0.0147
     13 C          -3.8960    1.7540    0.0000 C.ar    1  LIG1        0.0623
     14 CL         -3.8960    2.7500    0.0000 Cl      1  LIG1       -0.0821
     15 C          -3.0330   -2.7500    0.0000 C.3     1  LIG1        0.0493
     16 O          -2.1830    2.7500    0.0000 O.2     1  LIG1       -0.2863
     17 C          -0.4460    1.7670    0.0000 C.2     1  LIG1        0.2537
     18 N           0.4170    1.2580    0.0000 N.am    1  LIG1       -0.2724
     19 C           0.4250    0.2580    0.0000 C.3     1  LIG1        0.1151
     20 C           1.2920   -0.2420    0.0000 C.3     1  LIG1        0.1123
     21 N           2.1710    0.2460    0.0000 N.pl3   1  LIG1       -0.3041
     22 C           2.1540    1.2540    0.0000 C.3     1  LIG1        0.1123
     23 C           1.2920    1.7540    0.0000 C.3     1  LIG1        0.1151
     24 C           3.0170   -0.2420    0.0000 C.ar    1  LIG1        0.0479
     25 C           3.0170   -1.2420    0.0000 C.ar    1  LIG1        0.0145
     26 C           3.8920   -1.7380    0.0000 C.ar    1  LIG1        0.0013
     27 C           4.7630   -1.2540    0.0000 C.ar    1  LIG1        0.0001
     28 C           4.7540   -0.2420    0.0000 C.ar    1  LIG1        0.0013
     29 C           3.8880    0.2580    0.0000 C.ar    1  LIG1        0.0145
     30 O          -0.4460    2.7540    0.0000 O.2     1  LIG1       -0.2697
@<TRIPOS>BOND
     1     1     2   ar
     2     1     6   ar
     3     1    17    1
     4     2     3   ar
     5     2    16    2
     6     3     4   ar
     7     3    13   ar
     8     4     5   ar
     9     4    10   ar
    10     5     6   ar
    11     5     7    1
    12     7     8    1
    13     8     9    1
    14     8    15    1
    15     9    10    1
    16    10    11   ar
    17    11    12   ar
    18    12    13   ar
    19    13    14    1
    20    17    18   am
    21    17    30    2
    22    18    19    1
    23    18    23    1
    24    19    20    1
    25    20    21    1
    26    21    22    1
    27    21    24    1
    28    22    23    1
    29    24    25   ar
    30    24    29   ar
    31    25    26   ar
    32    26    27   ar
    33    27    28   ar
    34    28    29   ar
