@<TRIPOS>MOLECULE
26447_ChemDiv_E631-0036
 32 36 0 0 0
SMALL
GASTEIGER
Energy = 0

@<TRIPOS>ATOM
      1 C          -2.1920    1.2460    0.0000 C.ar    1  LIG1        0.1096
      2 C          -3.0540    1.7460    0.0000 C.ar    1  LIG1        0.2037
      3 C          -3.9170    1.2460    0.0000 C.ar    1  LIG1        0.0685
      4 C          -3.9170    0.2500    0.0000 C.ar    1  LIG1        0.0983
      5 N          -3.0540   -0.2500    0.0000 N.ar    1  LIG1       -0.3196
      6 C          -2.1830    0.2500    0.0000 C.ar    1  LIG1        0.0838
      7 C          -3.0540   -1.2540    0.0000 C.3     1  LIG1        0.1495
      8 C          -3.9170   -1.7500    0.0000 C.3     1  LIG1        0.1885
      9 O          -4.7790   -1.2540    0.0000 O.3     1  LIG1       -0.4757
     10 C          -4.7790   -0.2500    0.0000 C.ar    1  LIG1        0.1542
     11 C          -5.6420    0.2500    0.0000 C.ar    1  LIG1        0.0393
     12 C          -5.6420    1.2460    0.0000 C.ar    1  LIG1        0.0147
     13 C          -4.7790    1.7460    0.0000 C.ar    1  LIG1        0.0623
     14 CL         -4.7790    2.7420    0.0000 Cl      1  LIG1       -0.0821
     15 C          -3.9170   -2.7500    0.0000 C.3     1  LIG1        0.0493
     16 O          -3.0540    2.7420    0.0000 O.2     1  LIG1       -0.2863
     17 C          -1.3170    1.7540    0.0000 C.2     1  LIG1        0.2537
     18 N          -0.4420    1.2580    0.0000 N.am    1  LIG1       -0.2724
     19 C           0.4170    1.7630    0.0000 C.3     1  LIG1        0.1151
     20 C           1.2880    1.2710    0.0000 C.3     1  LIG1        0.1123
     21 N           1.3000    0.2630    0.0000 N.pl3   1  LIG1       -0.3041
     22 C           2.1630   -0.2330    0.0000 C.ar    1  LIG1        0.0481
     23 C           2.1630   -1.2380    0.0000 C.ar    1  LIG1        0.0176
     24 C           3.0250   -1.7380    0.0000 C.ar    1  LIG1        0.0382
     25 C           3.8960   -1.2380    0.0000 C.ar    1  LIG1        0.1388
     26 C           3.8960   -0.2330    0.0000 C.ar    1  LIG1        0.0382
     27 C           3.0250    0.2630    0.0000 C.ar    1  LIG1        0.0176
     28 O           4.7710   -1.7380    0.0000 O.3     1  LIG1       -0.4714
     29 C           5.6380   -1.2380    0.0000 C.3     1  LIG1        0.2525
     30 C           0.4250   -0.2420    0.0000 C.3     1  LIG1        0.1123
     31 C          -0.4380    0.2580    0.0000 C.3     1  LIG1        0.1151
     32 O          -1.3210    2.7540    0.0000 O.2     1  LIG1       -0.2697
@<TRIPOS>BOND
     1     1     2   ar
     2     1     6   ar
     3     1    17    1
     4     2     3   ar
     5     2    16    2
     6     3     4   ar
     7     3    13   ar
     8     4     5   ar
     9     4    10   ar
    10     5     6   ar
    11     5     7    1
    12     7     8    1
    13     8     9    1
    14     8    15    1
    15     9    10    1
    16    10    11   ar
    17    11    12   ar
    18    12    13   ar
    19    13    14    1
    20    17    18   am
    21    17    32    2
    22    18    19    1
    23    18    31    1
    24    19    20    1
    25    20    21    1
    26    21    22    1
    27    21    30    1
    28    22    23   ar
    29    22    27   ar
    30    23    24   ar
    31    24    25   ar
    32    25    26   ar
    33    25    28    1
    34    26    27   ar
    35    28    29    1
    36    30    31    1
