@<TRIPOS>MOLECULE
26441_ChemDiv_E540-0019
 22 24 0 0 0
SMALL
GASTEIGER
Energy = 0

@<TRIPOS>ATOM
      1 C           0.0000    1.5000    0.0000 C.ar    1  LIG1        0.1316
      2 C          -0.8790    2.0080    0.0000 C.ar    1  LIG1        0.2045
      3 C          -1.7420    1.5000    0.0000 C.ar    1  LIG1        0.0540
      4 C          -1.7420    0.4960    0.0000 C.ar    1  LIG1        0.0972
      5 N          -0.8790   -0.0040    0.0000 N.ar    1  LIG1       -0.3196
      6 C           0.0000    0.4960    0.0000 C.ar    1  LIG1        0.0858
      7 C          -0.8830   -1.0040    0.0000 C.3     1  LIG1        0.1495
      8 C          -1.7580   -1.5000    0.0000 C.3     1  LIG1        0.1884
      9 O          -2.6210   -0.9880    0.0000 O.3     1  LIG1       -0.4757
     10 C          -2.6040    0.0000    0.0000 C.ar    1  LIG1        0.1542
     11 C          -3.4670    0.4960    0.0000 C.ar    1  LIG1        0.0381
     12 C          -3.4670    1.5000    0.0000 C.ar    1  LIG1       -0.0009
     13 C          -2.6040    1.9960    0.0000 C.ar    1  LIG1       -0.0172
     14 C          -2.6040    2.9920    0.0000 C.3     1  LIG1        0.0312
     15 C          -1.7630   -2.5000    0.0000 C.3     1  LIG1        0.0456
     16 C          -0.9000   -3.0040    0.0000 C.3     1  LIG1        0.0039
     17 O          -0.8790    3.0080    0.0000 O.2     1  LIG1       -0.2863
     18 C           0.8710    1.9920    0.0000 C.2     1  LIG1        0.3458
     19 O           0.8750    2.9920    0.0000 O.2     1  LIG1       -0.2447
     20 O           1.7330    1.4920    0.0000 O.3     1  LIG1       -0.4453
     21 C           2.5960    1.9960    0.0000 C.3     1  LIG1        0.2089
     22 C           3.4630    1.5080    0.0000 C.3     1  LIG1        0.0513
@<TRIPOS>BOND
     1     1     2   ar
     2     1     6   ar
     3     1    18    1
     4     2     3   ar
     5     2    17    2
     6     3     4   ar
     7     3    13   ar
     8     4     5   ar
     9     4    10   ar
    10     5     6   ar
    11     5     7    1
    12     7     8    1
    13     8     9    1
    14     8    15    1
    15     9    10    1
    16    10    11   ar
    17    11    12   ar
    18    12    13   ar
    19    13    14    1
    20    15    16    1
    21    18    19    2
    22    18    20    1
    23    20    21    1
    24    21    22    1
