@<TRIPOS>MOLECULE
26462_ChemDiv_1404-0094
 24 26 0 0 0
SMALL
GASTEIGER
Energy = 0

@<TRIPOS>ATOM
      1 C           0.0380   -1.2380    0.0000 C.ar    1  LIG1        0.0919
      2 C           0.0380   -2.2210    0.0000 C.ar    1  LIG1        0.1162
      3 N          -0.8210   -2.7330    0.0000 N.ar    1  LIG1       -0.2428
      4 C          -1.6710   -2.2210    0.0000 C.ar    1  LIG1        0.0592
      5 C          -1.6710   -1.2380    0.0000 C.ar    1  LIG1        0.0154
      6 C          -0.8210   -0.7290    0.0000 C.ar    1  LIG1        0.0128
      7 C          -0.8210    0.2830    0.0000 C.ar    1  LIG1        0.0010
      8 C          -1.6710    0.7670    0.0000 C.ar    1  LIG1        0.0031
      9 C          -1.6710    1.7830    0.0000 C.ar    1  LIG1        0.0369
     10 C          -0.8210    2.2670    0.0000 C.ar    1  LIG1        0.1387
     11 C           0.0380    1.7830    0.0000 C.ar    1  LIG1        0.0369
     12 C           0.0380    0.7670    0.0000 C.ar    1  LIG1        0.0031
     13 O          -0.8210    3.2750    0.0000 O.3     1  LIG1       -0.4714
     14 C          -1.6710    3.7540    0.0000 C.3     1  LIG1        0.2525
     15 C          -2.5330   -2.7330    0.0000 C.3     1  LIG1        0.0403
     16 C          -3.5380   -2.7330    0.0000 C.3     1  LIG1        0.0063
     17 C          -3.0330   -3.5880    0.0000 C.3     1  LIG1        0.0063
     18 S           0.9170   -2.7540    0.0000 S.3     1  LIG1       -0.0882
     19 C           1.8000   -2.2540    0.0000 C.3     1  LIG1        0.1051
     20 C           2.6750   -2.7540    0.0000 C.2     1  LIG1        0.0616
     21 O           3.5330   -2.2540    0.0000 O.co2   1  LIG1       -0.5483
     22 O           2.6750   -3.7500    0.0000 O.co2   1  LIG1       -0.5483
     23 C           0.9170   -0.7000    0.0000 C.1     1  LIG1        0.1024
     24 N           1.8000   -0.1670    0.0000 N.1     1  LIG1       -0.1908
@<TRIPOS>BOND
     1     1     2   ar
     2     1     6   ar
     3     1    23    1
     4     2     3   ar
     5     2    18    1
     6     3     4   ar
     7     4     5   ar
     8     4    15    1
     9     5     6   ar
    10     6     7    1
    11     7     8   ar
    12     7    12   ar
    13     8     9   ar
    14     9    10   ar
    15    10    11   ar
    16    10    13    1
    17    11    12   ar
    18    13    14    1
    19    15    16    1
    20    15    17    1
    21    16    17    1
    22    18    19    1
    23    19    20    1
    24    20    21   ar
    25    20    22   ar
    26    23    24    3
