@<TRIPOS>MOLECULE
26469_ChemDiv_E631-0100
 27 30 0 0 0
SMALL
GASTEIGER
Energy = 0

@<TRIPOS>ATOM
      1 C          -0.0080   -0.2540    0.0000 C.ar    1  LIG1        0.1111
      2 C          -0.8750    0.2460    0.0000 C.ar    1  LIG1        0.2037
      3 C          -1.7380   -0.2540    0.0000 C.ar    1  LIG1        0.0685
      4 C          -1.7380   -1.2500    0.0000 C.ar    1  LIG1        0.0983
      5 N          -0.8750   -1.7500    0.0000 N.ar    1  LIG1       -0.3196
      6 C          -0.0080   -1.2500    0.0000 C.ar    1  LIG1        0.0839
      7 C          -0.8750   -2.7580    0.0000 C.3     1  LIG1        0.1495
      8 C          -1.7380   -3.2580    0.0000 C.3     1  LIG1        0.1885
      9 O          -2.6130   -2.7580    0.0000 O.3     1  LIG1       -0.4757
     10 C          -2.6130   -1.7500    0.0000 C.ar    1  LIG1        0.1542
     11 C          -3.4750   -1.2500    0.0000 C.ar    1  LIG1        0.0393
     12 C          -3.4750   -0.2540    0.0000 C.ar    1  LIG1        0.0147
     13 C          -2.6000    0.2460    0.0000 C.ar    1  LIG1        0.0623
     14 CL         -2.6000    1.2460    0.0000 Cl      1  LIG1       -0.0821
     15 C          -1.7380   -4.2630    0.0000 C.3     1  LIG1        0.0493
     16 O          -0.8880    1.2460    0.0000 O.2     1  LIG1       -0.2863
     17 C           0.8540    0.2630    0.0000 C.2     1  LIG1        0.2697
     18 N           1.7170   -0.2460    0.0000 N.am    1  LIG1       -0.1967
     19 C           2.5710    0.2460    0.0000 C.3     1  LIG1        0.1418
     20 C           2.5790    1.2580    0.0000 C.ar    1  LIG1       -0.0006
     21 C           1.7290    1.7710    0.0000 C.ar    1  LIG1       -0.0029
     22 C           1.7420    2.7540    0.0000 C.ar    1  LIG1       -0.0045
     23 C           2.6170    3.2540    0.0000 C.ar    1  LIG1       -0.0219
     24 C           3.4710    2.7380    0.0000 C.ar    1  LIG1       -0.0045
     25 C           3.4540    1.7380    0.0000 C.ar    1  LIG1       -0.0029
     26 C           2.6250    4.2630    0.0000 C.3     1  LIG1        0.0310
     27 O           0.8540    1.2500    0.0000 O.2     1  LIG1       -0.2682
@<TRIPOS>BOND
     1     1     2   ar
     2     1     6   ar
     3     1    17    1
     4     2     3   ar
     5     2    16    2
     6     3     4   ar
     7     3    13   ar
     8     4     5   ar
     9     4    10   ar
    10     5     6   ar
    11     5     7    1
    12     7     8    1
    13     8     9    1
    14     8    15    1
    15     9    10    1
    16    10    11   ar
    17    11    12   ar
    18    12    13   ar
    19    13    14    1
    20    17    18   am
    21    17    27    2
    22    18    19    1
    23    19    20    1
    24    20    21   ar
    25    20    25   ar
    26    21    22   ar
    27    22    23   ar
    28    23    24   ar
    29    23    26    1
    30    24    25   ar
