@<TRIPOS>MOLECULE
26465_ChemDiv_E631-0057
 26 29 0 0 0
SMALL
GASTEIGER
Energy = 0

@<TRIPOS>ATOM
      1 C          -0.8670    1.2580    0.0000 C.ar    1  LIG1        0.1111
      2 C          -1.7330    1.7540    0.0000 C.ar    1  LIG1        0.2037
      3 C          -2.5960    1.2580    0.0000 C.ar    1  LIG1        0.0685
      4 C          -2.5960    0.2580    0.0000 C.ar    1  LIG1        0.0983
      5 N          -1.7330   -0.2420    0.0000 N.ar    1  LIG1       -0.3196
      6 C          -0.8670    0.2580    0.0000 C.ar    1  LIG1        0.0839
      7 C          -1.7330   -1.2500    0.0000 C.3     1  LIG1        0.1495
      8 C          -2.5960   -1.7500    0.0000 C.3     1  LIG1        0.1885
      9 O          -3.4710   -1.2500    0.0000 O.3     1  LIG1       -0.4757
     10 C          -3.4710   -0.2420    0.0000 C.ar    1  LIG1        0.1542
     11 C          -4.3330    0.2580    0.0000 C.ar    1  LIG1        0.0393
     12 C          -4.3330    1.2580    0.0000 C.ar    1  LIG1        0.0147
     13 C          -3.4580    1.7540    0.0000 C.ar    1  LIG1        0.0623
     14 CL         -3.4580    2.7540    0.0000 Cl      1  LIG1       -0.0821
     15 C          -2.5960   -2.7540    0.0000 C.3     1  LIG1        0.0493
     16 O          -1.7420    2.7540    0.0000 O.2     1  LIG1       -0.2863
     17 C           0.0000    1.7710    0.0000 C.2     1  LIG1        0.2697
     18 N           0.8630    1.2630    0.0000 N.am    1  LIG1       -0.1950
     19 C           1.7250    1.7540    0.0000 C.3     1  LIG1        0.1608
     20 C           2.5830    1.2710    0.0000 C.ar    1  LIG1        0.0809
     21 N           3.4500    1.7880    0.0000 N.ar    1  LIG1       -0.2464
     22 C           4.3130    1.2920    0.0000 C.ar    1  LIG1        0.0985
     23 C           4.3290    0.2920    0.0000 C.ar    1  LIG1        0.0207
     24 C           3.4790   -0.2130    0.0000 C.ar    1  LIG1        0.0029
     25 C           2.5960    0.2710    0.0000 C.ar    1  LIG1        0.0165
     26 O           0.0000    2.7580    0.0000 O.2     1  LIG1       -0.2682
@<TRIPOS>BOND
     1     1     2   ar
     2     1     6   ar
     3     1    17    1
     4     2     3   ar
     5     2    16    2
     6     3     4   ar
     7     3    13   ar
     8     4     5   ar
     9     4    10   ar
    10     5     6   ar
    11     5     7    1
    12     7     8    1
    13     8     9    1
    14     8    15    1
    15     9    10    1
    16    10    11   ar
    17    11    12   ar
    18    12    13   ar
    19    13    14    1
    20    17    18   am
    21    17    26    2
    22    18    19    1
    23    19    20    1
    24    20    21   ar
    25    20    25   ar
    26    21    22   ar
    27    22    23   ar
    28    23    24   ar
    29    24    25   ar
