@<TRIPOS>MOLECULE
26464_ChemDiv_2434-0166
 31 33 0 0 0
SMALL
GASTEIGER
Energy = 0

@<TRIPOS>ATOM
      1 C          -1.4460   -1.0830    0.0000 C.ar    1  LIG1        0.0919
      2 C          -1.4460   -2.1000    0.0000 C.ar    1  LIG1        0.1166
      3 N          -2.3170   -2.5880    0.0000 N.ar    1  LIG1       -0.2380
      4 C          -3.1670   -2.1000    0.0000 C.ar    1  LIG1        0.0878
      5 C          -3.1670   -1.0830    0.0000 C.ar    1  LIG1        0.0204
      6 C          -2.3170   -0.5920    0.0000 C.ar    1  LIG1        0.0131
      7 C          -2.3380    0.4000    0.0000 C.ar    1  LIG1        0.0010
      8 C          -1.5000    0.9080    0.0000 C.ar    1  LIG1        0.0031
      9 C          -1.5210    1.9130    0.0000 C.ar    1  LIG1        0.0369
     10 C          -2.3880    2.4000    0.0000 C.ar    1  LIG1        0.1387
     11 C          -3.2290    1.8750    0.0000 C.ar    1  LIG1        0.0369
     12 C          -3.2080    0.8790    0.0000 C.ar    1  LIG1        0.0031
     13 O          -2.3880    3.3960    0.0000 O.3     1  LIG1       -0.4714
     14 C          -3.2290    3.8750    0.0000 C.3     1  LIG1        0.2525
     15 C          -4.0210   -2.6210    0.0000 C.ar    1  LIG1        0.0471
     16 S          -4.1170   -3.6290    0.0000 S.2     1  LIG1       -0.0849
     17 C          -5.0960   -3.8710    0.0000 C.ar    1  LIG1        0.0355
     18 C          -5.6040   -3.0000    0.0000 C.ar    1  LIG1        0.0075
     19 C          -4.9710   -2.2630    0.0000 C.ar    1  LIG1        0.0085
     20 S          -0.5540   -2.6210    0.0000 S.3     1  LIG1       -0.0863
     21 C           0.3170   -2.1000    0.0000 C.3     1  LIG1        0.1284
     22 C           1.1880   -2.5880    0.0000 C.2     1  LIG1        0.1731
     23 C           2.0580   -2.1000    0.0000 C.3     1  LIG1        0.1746
     24 C           2.9880   -2.6630    0.0000 C.2     1  LIG1        0.3246
     25 O           2.9880   -3.5330    0.0000 O.2     1  LIG1       -0.2496
     26 O           3.8580   -2.1920    0.0000 O.3     1  LIG1       -0.4482
     27 C           4.7040   -2.7170    0.0000 C.3     1  LIG1        0.2086
     28 C           5.6000   -2.2250    0.0000 C.3     1  LIG1        0.0513
     29 O           1.1880   -3.6000    0.0000 O.2     1  LIG1       -0.2945
     30 C          -0.5540   -0.5920    0.0000 C.1     1  LIG1        0.1024
     31 N           0.3380   -0.0710    0.0000 N.1     1  LIG1       -0.1908
@<TRIPOS>BOND
     1     1     2   ar
     2     1     6   ar
     3     1    30    1
     4     2     3   ar
     5     2    20    1
     6     3     4   ar
     7     4     5   ar
     8     4    15    1
     9     5     6   ar
    10     6     7    1
    11     7     8   ar
    12     7    12   ar
    13     8     9   ar
    14     9    10   ar
    15    10    11   ar
    16    10    13    1
    17    11    12   ar
    18    13    14    1
    19    15    16   ar
    20    15    19   ar
    21    16    17   ar
    22    17    18   ar
    23    18    19   ar
    24    20    21    1
    25    21    22    1
    26    22    23    1
    27    22    29    2
    28    23    24    1
    29    24    25    2
    30    24    26    1
    31    26    27    1
    32    27    28    1
    33    30    31    3
