@<TRIPOS>MOLECULE
26467_ChemDiv_E631-0069
 26 29 0 0 0
SMALL
GASTEIGER
Energy = 0

@<TRIPOS>ATOM
      1 C           0.0040    0.2630    0.0000 C.ar    1  LIG1        0.1111
      2 C          -0.8630    0.7630    0.0000 C.ar    1  LIG1        0.2037
      3 C          -1.7250    0.2630    0.0000 C.ar    1  LIG1        0.0685
      4 C          -1.7250   -0.7380    0.0000 C.ar    1  LIG1        0.0983
      5 N          -0.8630   -1.2380    0.0000 N.ar    1  LIG1       -0.3196
      6 C           0.0040   -0.7380    0.0000 C.ar    1  LIG1        0.0839
      7 C          -0.8630   -2.2460    0.0000 C.3     1  LIG1        0.1495
      8 C          -1.7250   -2.7460    0.0000 C.3     1  LIG1        0.1885
      9 O          -2.6000   -2.2460    0.0000 O.3     1  LIG1       -0.4757
     10 C          -2.6000   -1.2380    0.0000 C.ar    1  LIG1        0.1542
     11 C          -3.4630   -0.7380    0.0000 C.ar    1  LIG1        0.0393
     12 C          -3.4630    0.2630    0.0000 C.ar    1  LIG1        0.0147
     13 C          -2.5880    0.7630    0.0000 C.ar    1  LIG1        0.0623
     14 CL         -2.5880    1.7630    0.0000 Cl      1  LIG1       -0.0821
     15 C          -1.7250   -3.7500    0.0000 C.3     1  LIG1        0.0493
     16 O          -0.8710    1.7630    0.0000 O.2     1  LIG1       -0.2863
     17 C           0.8670    0.7750    0.0000 C.2     1  LIG1        0.2697
     18 N           1.7330    0.2670    0.0000 N.am    1  LIG1       -0.1967
     19 C           2.5960    0.7630    0.0000 C.3     1  LIG1        0.1418
     20 C           2.5960    1.7630    0.0000 C.ar    1  LIG1       -0.0006
     21 C           1.7330    2.2500    0.0000 C.ar    1  LIG1       -0.0026
     22 C           1.7250    3.2500    0.0000 C.ar    1  LIG1       -0.0003
     23 C           2.5880    3.7540    0.0000 C.ar    1  LIG1       -0.0000
     24 C           3.4580    3.2540    0.0000 C.ar    1  LIG1       -0.0003
     25 C           3.4580    2.2540    0.0000 C.ar    1  LIG1       -0.0026
     26 O           0.8670    1.7670    0.0000 O.2     1  LIG1       -0.2682
@<TRIPOS>BOND
     1     1     2   ar
     2     1     6   ar
     3     1    17    1
     4     2     3   ar
     5     2    16    2
     6     3     4   ar
     7     3    13   ar
     8     4     5   ar
     9     4    10   ar
    10     5     6   ar
    11     5     7    1
    12     7     8    1
    13     8     9    1
    14     8    15    1
    15     9    10    1
    16    10    11   ar
    17    11    12   ar
    18    12    13   ar
    19    13    14    1
    20    17    18   am
    21    17    26    2
    22    18    19    1
    23    19    20    1
    24    20    21   ar
    25    20    25   ar
    26    21    22   ar
    27    22    23   ar
    28    23    24   ar
    29    24    25   ar
