@<TRIPOS>MOLECULE
26475_ChemDiv_E631-0136
 28 31 0 0 0
SMALL
GASTEIGER
Energy = 0

@<TRIPOS>ATOM
      1 C          -0.4420   -0.2290    0.0000 C.ar    1  LIG1        0.1111
      2 C          -1.3080    0.2710    0.0000 C.ar    1  LIG1        0.2037
      3 C          -2.1710   -0.2290    0.0000 C.ar    1  LIG1        0.0685
      4 C          -2.1710   -1.2290    0.0000 C.ar    1  LIG1        0.0983
      5 N          -1.3080   -1.7290    0.0000 N.ar    1  LIG1       -0.3196
      6 C          -0.4420   -1.2290    0.0000 C.ar    1  LIG1        0.0839
      7 C          -1.3080   -2.7380    0.0000 C.3     1  LIG1        0.1495
      8 C          -2.1710   -3.2330    0.0000 C.3     1  LIG1        0.1885
      9 O          -3.0420   -2.7380    0.0000 O.3     1  LIG1       -0.4757
     10 C          -3.0420   -1.7290    0.0000 C.ar    1  LIG1        0.1542
     11 C          -3.9040   -1.2290    0.0000 C.ar    1  LIG1        0.0393
     12 C          -3.9040   -0.2290    0.0000 C.ar    1  LIG1        0.0147
     13 C          -3.0330    0.2710    0.0000 C.ar    1  LIG1        0.0623
     14 CL         -3.0330    1.2670    0.0000 Cl      1  LIG1       -0.0821
     15 C          -2.1710   -4.2380    0.0000 C.3     1  LIG1        0.0493
     16 O          -1.3170    1.2670    0.0000 O.2     1  LIG1       -0.2863
     17 C           0.4210    0.2830    0.0000 C.2     1  LIG1        0.2697
     18 N           1.2830   -0.2250    0.0000 N.am    1  LIG1       -0.1967
     19 C           2.1460    0.2830    0.0000 C.3     1  LIG1        0.1419
     20 C           2.1460    1.2670    0.0000 C.ar    1  LIG1        0.0025
     21 C           3.0250    1.7460    0.0000 C.ar    1  LIG1        0.0343
     22 C           3.0250    2.7540    0.0000 C.ar    1  LIG1        0.1385
     23 O           3.8960    3.2460    0.0000 O.3     1  LIG1       -0.4714
     24 C           3.9000    4.2380    0.0000 C.3     1  LIG1        0.2525
     25 C           2.1630    3.2580    0.0000 C.ar    1  LIG1        0.0369
     26 C           1.2830    2.7750    0.0000 C.ar    1  LIG1        0.0028
     27 C           1.2830    1.7630    0.0000 C.ar    1  LIG1       -0.0024
     28 O           0.4210    1.2710    0.0000 O.2     1  LIG1       -0.2682
@<TRIPOS>BOND
     1     1     2   ar
     2     1     6   ar
     3     1    17    1
     4     2     3   ar
     5     2    16    2
     6     3     4   ar
     7     3    13   ar
     8     4     5   ar
     9     4    10   ar
    10     5     6   ar
    11     5     7    1
    12     7     8    1
    13     8     9    1
    14     8    15    1
    15     9    10    1
    16    10    11   ar
    17    11    12   ar
    18    12    13   ar
    19    13    14    1
    20    17    18   am
    21    17    28    2
    22    18    19    1
    23    19    20    1
    24    20    21   ar
    25    20    27   ar
    26    21    22   ar
    27    22    23    1
    28    22    25   ar
    29    23    24    1
    30    25    26   ar
    31    26    27   ar
