@<TRIPOS>MOLECULE
26473_ChemDiv_E631-0131
 23 25 0 0 0
SMALL
GASTEIGER
Energy = 0

@<TRIPOS>ATOM
      1 C          -0.0080    0.5130    0.0000 C.ar    1  LIG1        0.1111
      2 C          -0.8790    1.0130    0.0000 C.ar    1  LIG1        0.2037
      3 C          -1.7420    0.5130    0.0000 C.ar    1  LIG1        0.0685
      4 C          -1.7420   -0.4880    0.0000 C.ar    1  LIG1        0.0983
      5 N          -0.8790   -0.9880    0.0000 N.ar    1  LIG1       -0.3196
      6 C          -0.0080   -0.4880    0.0000 C.ar    1  LIG1        0.0839
      7 C          -0.8790   -1.9960    0.0000 C.3     1  LIG1        0.1495
      8 C          -1.7420   -2.4960    0.0000 C.3     1  LIG1        0.1885
      9 O          -2.6130   -1.9960    0.0000 O.3     1  LIG1       -0.4757
     10 C          -2.6130   -0.9880    0.0000 C.ar    1  LIG1        0.1542
     11 C          -3.4750   -0.4880    0.0000 C.ar    1  LIG1        0.0393
     12 C          -3.4750    0.5130    0.0000 C.ar    1  LIG1        0.0147
     13 C          -2.6040    1.0130    0.0000 C.ar    1  LIG1        0.0623
     14 CL         -2.6040    2.0080    0.0000 Cl      1  LIG1       -0.0821
     15 C          -1.7420   -3.5000    0.0000 C.3     1  LIG1        0.0493
     16 O          -0.8880    2.0080    0.0000 O.2     1  LIG1       -0.2863
     17 C           0.8540    1.0250    0.0000 C.2     1  LIG1        0.2694
     18 O           0.8540    2.0170    0.0000 O.2     1  LIG1       -0.2682
     19 N           1.7170    0.5170    0.0000 N.am    1  LIG1       -0.1989
     20 C           2.5880    1.0250    0.0000 C.3     1  LIG1        0.1474
     21 C           2.5920    2.0170    0.0000 C.3     1  LIG1        0.1656
     22 O           3.4540    2.5040    0.0000 O.3     1  LIG1       -0.3492
     23 C           3.4710    3.5040    0.0000 C.3     1  LIG1        0.1742
@<TRIPOS>BOND
     1     1     2   ar
     2     1     6   ar
     3     1    17    1
     4     2     3   ar
     5     2    16    2
     6     3     4   ar
     7     3    13   ar
     8     4     5   ar
     9     4    10   ar
    10     5     6   ar
    11     5     7    1
    12     7     8    1
    13     8     9    1
    14     8    15    1
    15     9    10    1
    16    10    11   ar
    17    11    12   ar
    18    12    13   ar
    19    13    14    1
    20    17    18    2
    21    17    19   am
    22    19    20    1
    23    20    21    1
    24    21    22    1
    25    22    23    1
