@<TRIPOS>MOLECULE
26471_ChemDiv_E631-0128
 28 31 0 0 0
SMALL
GASTEIGER
Energy = 0

@<TRIPOS>ATOM
      1 C          -0.8790   -0.2580    0.0000 C.ar    1  LIG1        0.1111
      2 C          -1.7460    0.2380    0.0000 C.ar    1  LIG1        0.2037
      3 C          -2.6080   -0.2580    0.0000 C.ar    1  LIG1        0.0685
      4 C          -2.6080   -1.2580    0.0000 C.ar    1  LIG1        0.0983
      5 N          -1.7460   -1.7580    0.0000 N.ar    1  LIG1       -0.3196
      6 C          -0.8790   -1.2580    0.0000 C.ar    1  LIG1        0.0839
      7 C          -1.7460   -2.7670    0.0000 C.3     1  LIG1        0.1495
      8 C          -2.6080   -3.2670    0.0000 C.3     1  LIG1        0.1885
      9 O          -3.4790   -2.7670    0.0000 O.3     1  LIG1       -0.4757
     10 C          -3.4790   -1.7580    0.0000 C.ar    1  LIG1        0.1542
     11 C          -4.3420   -1.2580    0.0000 C.ar    1  LIG1        0.0393
     12 C          -4.3420   -0.2580    0.0000 C.ar    1  LIG1        0.0147
     13 C          -3.4710    0.2380    0.0000 C.ar    1  LIG1        0.0623
     14 CL         -3.4710    1.2380    0.0000 Cl      1  LIG1       -0.0821
     15 C          -2.6080   -4.2710    0.0000 C.3     1  LIG1        0.0493
     16 O          -1.7540    1.2380    0.0000 O.2     1  LIG1       -0.2863
     17 C          -0.0130    0.2540    0.0000 C.2     1  LIG1        0.2694
     18 O          -0.0130    1.2420    0.0000 O.2     1  LIG1       -0.2682
     19 N           0.8500   -0.2540    0.0000 N.am    1  LIG1       -0.2015
     20 C           1.7080    0.2540    0.0000 C.3     1  LIG1        0.1172
     21 C           1.7080    1.2380    0.0000 C.3     1  LIG1        0.0449
     22 C           2.5710    1.7330    0.0000 C.3     1  LIG1        0.0952
     23 N           2.5880    2.7290    0.0000 N.am    1  LIG1       -0.2795
     24 C           3.3920    3.3210    0.0000 C.2     1  LIG1        0.2257
     25 O           4.3380    3.0130    0.0000 O.2     1  LIG1       -0.2749
     26 C           3.0830    4.2710    0.0000 C.3     1  LIG1        0.0870
     27 C           2.0750    4.2710    0.0000 C.3     1  LIG1        0.0311
     28 C           1.7710    3.3170    0.0000 C.3     1  LIG1        0.0939
@<TRIPOS>BOND
     1     1     2   ar
     2     1     6   ar
     3     1    17    1
     4     2     3   ar
     5     2    16    2
     6     3     4   ar
     7     3    13   ar
     8     4     5   ar
     9     4    10   ar
    10     5     6   ar
    11     5     7    1
    12     7     8    1
    13     8     9    1
    14     8    15    1
    15     9    10    1
    16    10    11   ar
    17    11    12   ar
    18    12    13   ar
    19    13    14    1
    20    17    18    2
    21    17    19   am
    22    19    20    1
    23    20    21    1
    24    21    22    1
    25    22    23    1
    26    23    24   am
    27    23    28    1
    28    24    25    2
    29    24    26    1
    30    26    27    1
    31    27    28    1
