@<TRIPOS>MOLECULE
26482_ChemDiv_2434-0169
 30 32 0 0 0
SMALL
GASTEIGER
Energy = 0

@<TRIPOS>ATOM
      1 C          -1.4420   -0.8420    0.0000 C.ar    1  LIG1        0.0919
      2 C          -1.4420   -1.8540    0.0000 C.ar    1  LIG1        0.1166
      3 N          -2.3080   -2.3460    0.0000 N.ar    1  LIG1       -0.2380
      4 C          -3.1580   -1.8540    0.0000 C.ar    1  LIG1        0.0878
      5 C          -3.1580   -0.8420    0.0000 C.ar    1  LIG1        0.0204
      6 C          -2.3080   -0.3500    0.0000 C.ar    1  LIG1        0.0131
      7 C          -2.3380    0.6420    0.0000 C.ar    1  LIG1        0.0008
      8 C          -1.4960    1.1500    0.0000 C.ar    1  LIG1        0.0009
      9 C          -1.5210    2.1500    0.0000 C.ar    1  LIG1        0.0114
     10 C          -2.3790    2.6380    0.0000 C.ar    1  LIG1        0.0577
     11 C          -3.2250    2.1130    0.0000 C.ar    1  LIG1        0.0114
     12 C          -3.2080    1.1170    0.0000 C.ar    1  LIG1        0.0009
     13 CL         -2.3790    3.6290    0.0000 Cl      1  LIG1       -0.0822
     14 C          -4.0080   -2.3750    0.0000 C.ar    1  LIG1        0.0471
     15 S          -4.1040   -3.3830    0.0000 S.2     1  LIG1       -0.0849
     16 C          -5.0830   -3.6250    0.0000 C.ar    1  LIG1        0.0355
     17 C          -5.6000   -2.7580    0.0000 C.ar    1  LIG1        0.0075
     18 C          -4.9750   -2.0170    0.0000 C.ar    1  LIG1        0.0085
     19 S          -0.5460   -2.3750    0.0000 S.3     1  LIG1       -0.0863
     20 C           0.3210   -1.8540    0.0000 C.3     1  LIG1        0.1284
     21 C           1.1920   -2.3460    0.0000 C.2     1  LIG1        0.1731
     22 C           2.0630   -1.8540    0.0000 C.3     1  LIG1        0.1746
     23 C           2.9880   -2.4170    0.0000 C.2     1  LIG1        0.3246
     24 O           2.9880   -3.2880    0.0000 O.2     1  LIG1       -0.2496
     25 O           3.8540   -1.9500    0.0000 O.3     1  LIG1       -0.4482
     26 C           4.7040   -2.4710    0.0000 C.3     1  LIG1        0.2086
     27 C           5.5960   -1.9830    0.0000 C.3     1  LIG1        0.0513
     28 O           1.1920   -3.3540    0.0000 O.2     1  LIG1       -0.2945
     29 C          -0.5460   -0.3500    0.0000 C.1     1  LIG1        0.1024
     30 N           0.3420    0.1710    0.0000 N.1     1  LIG1       -0.1908
@<TRIPOS>BOND
     1     1     2   ar
     2     1     6   ar
     3     1    29    1
     4     2     3   ar
     5     2    19    1
     6     3     4   ar
     7     4     5   ar
     8     4    14    1
     9     5     6   ar
    10     6     7    1
    11     7     8   ar
    12     7    12   ar
    13     8     9   ar
    14     9    10   ar
    15    10    11   ar
    16    10    13    1
    17    11    12   ar
    18    14    15   ar
    19    14    18   ar
    20    15    16   ar
    21    16    17   ar
    22    17    18   ar
    23    19    20    1
    24    20    21    1
    25    21    22    1
    26    21    28    2
    27    22    23    1
    28    23    24    2
    29    23    25    1
    30    25    26    1
    31    26    27    1
    32    29    30    3
