@<TRIPOS>MOLECULE
26485_ChemDiv_6006-0051
 33 37 0 0 0
SMALL
GASTEIGER
Energy = 0

@<TRIPOS>ATOM
      1 S           2.0080   -1.6380    0.0000 S.O2    1  LIG1        0.0769
      2 C           1.1420   -2.1460    0.0000 C.ar    1  LIG1        0.1238
      3 C           0.2710   -1.6380    0.0000 C.ar    1  LIG1        0.0231
      4 C          -0.5880   -2.1460    0.0000 C.ar    1  LIG1        0.0389
      5 C          -1.5290   -1.8420    0.0000 C.ar    1  LIG1        0.0389
      6 C          -2.1210   -2.6500    0.0000 C.ar    1  LIG1        0.1454
      7 O          -1.5290   -3.4500    0.0000 O.2     1  LIG1       -0.4535
      8 C          -0.5880   -3.1330    0.0000 C.ar    1  LIG1        0.1454
      9 C           0.2710   -3.6290    0.0000 C.ar    1  LIG1        0.0389
     10 C           1.1420   -3.1330    0.0000 C.ar    1  LIG1        0.0231
     11 C          -3.1250   -2.5420    0.0000 C.ar    1  LIG1        0.0389
     12 C          -3.5250   -1.6380    0.0000 C.ar    1  LIG1        0.0231
     13 C          -2.9460   -0.8290    0.0000 C.ar    1  LIG1        0.1238
     14 S          -3.3670    0.1000    0.0000 S.O2    1  LIG1        0.0769
     15 N          -3.7670    1.0210    0.0000 N.3     1  LIG1       -0.0752
     16 C          -4.7710    1.1170    0.0000 C.3     1  LIG1        0.1448
     17 C          -5.1960    2.0250    0.0000 C.3     1  LIG1        0.1346
     18 O          -6.1420    2.3250    0.0000 O.3     1  LIG1       -0.3547
     19 C          -6.1420    3.3170    0.0000 C.3     1  LIG1        0.1422
     20 C          -5.2000    3.6330    0.0000 C.3     1  LIG1        0.0346
     21 C          -4.6130    2.8330    0.0000 C.3     1  LIG1        0.0337
     22 O          -4.2880   -0.3080    0.0000 O.2     1  LIG1       -0.1516
     23 O          -2.4380    0.5130    0.0000 O.2     1  LIG1       -0.1516
     24 C          -1.9380   -0.9130    0.0000 C.ar    1  LIG1        0.0231
     25 N           2.8790   -1.1380    0.0000 N.3     1  LIG1       -0.0752
     26 C           3.7420   -1.6500    0.0000 C.3     1  LIG1        0.1448
     27 C           4.6080   -1.1540    0.0000 C.3     1  LIG1        0.1346
     28 O           5.5580   -1.4540    0.0000 O.3     1  LIG1       -0.3547
     29 C           6.1420   -0.6540    0.0000 C.3     1  LIG1        0.1422
     30 C           5.5580    0.1500    0.0000 C.3     1  LIG1        0.0346
     31 C           4.6210   -0.1670    0.0000 C.3     1  LIG1        0.0337
     32 O           1.5130   -0.7750    0.0000 O.2     1  LIG1       -0.1516
     33 O           2.5080   -2.5210    0.0000 O.2     1  LIG1       -0.1516
@<TRIPOS>BOND
     1     1     2    1
     2     1    25    1
     3     1    32    2
     4     1    33    2
     5     2     3   ar
     6     2    10   ar
     7     3     4   ar
     8     4     5   ar
     9     4     8   ar
    10     5     6   ar
    11     5    24   ar
    12     6     7   ar
    13     6    11   ar
    14     7     8   ar
    15     8     9   ar
    16     9    10   ar
    17    11    12   ar
    18    12    13   ar
    19    13    14    1
    20    13    24   ar
    21    14    15    1
    22    14    22    2
    23    14    23    2
    24    15    16    1
    25    16    17    1
    26    17    18    1
    27    17    21    1
    28    18    19    1
    29    19    20    1
    30    20    21    1
    31    25    26    1
    32    26    27    1
    33    27    28    1
    34    27    31    1
    35    28    29    1
    36    29    30    1
    37    30    31    1
