@<TRIPOS>MOLECULE
26481_ChemDiv_1227-0140
 22 25 0 0 0
SMALL
GASTEIGER
Energy = 0

@<TRIPOS>ATOM
      1 S           1.5000    0.1960    0.0000 S.O2    1  LIG1        0.0634
      2 N           2.1670    0.9330    0.0000 N.3     1  LIG1       -0.1504
      3 C           3.1580    0.7500    0.0000 C.3     1  LIG1        0.1279
      4 C           3.8170    1.4790    0.0000 C.3     1  LIG1        0.1613
      5 O           3.4920    2.4290    0.0000 O.3     1  LIG1       -0.3507
      6 C           2.5290    2.6250    0.0000 C.3     1  LIG1        0.1613
      7 C           1.8710    1.8580    0.0000 C.3     1  LIG1        0.1279
      8 C           0.8210   -0.5500    0.0000 C.ar    1  LIG1        0.1224
      9 C          -0.1540   -0.3330    0.0000 C.ar    1  LIG1        0.0230
     10 C          -0.8330   -1.0830    0.0000 C.ar    1  LIG1        0.0388
     11 C          -0.5290   -2.0250    0.0000 C.ar    1  LIG1        0.1454
     12 O          -1.3460   -2.6210    0.0000 O.2     1  LIG1       -0.4535
     13 C          -2.1540   -2.0540    0.0000 C.ar    1  LIG1        0.1453
     14 C          -1.8500   -1.0830    0.0000 C.ar    1  LIG1        0.0375
     15 C          -2.5330   -0.3500    0.0000 C.ar    1  LIG1        0.0031
     16 C          -3.5210   -0.5710    0.0000 C.ar    1  LIG1        0.0002
     17 C          -3.8210   -1.5130    0.0000 C.ar    1  LIG1        0.0031
     18 C          -3.1460   -2.2540    0.0000 C.ar    1  LIG1        0.0375
     19 C           0.4630   -2.2250    0.0000 C.ar    1  LIG1        0.0389
     20 C           1.1250   -1.4960    0.0000 C.ar    1  LIG1        0.0230
     21 O           2.2330   -0.4830    0.0000 O.2     1  LIG1       -0.1528
     22 O           0.7540    0.8670    0.0000 O.2     1  LIG1       -0.1528
@<TRIPOS>BOND
     1     1     2    1
     2     1     8    1
     3     1    21    2
     4     1    22    2
     5     2     3    1
     6     2     7    1
     7     3     4    1
     8     4     5    1
     9     5     6    1
    10     6     7    1
    11     8     9   ar
    12     8    20   ar
    13     9    10   ar
    14    10    11   ar
    15    10    14   ar
    16    11    12   ar
    17    11    19   ar
    18    12    13   ar
    19    13    14   ar
    20    13    18   ar
    21    14    15   ar
    22    15    16   ar
    23    16    17   ar
    24    17    18   ar
    25    19    20   ar
