@<TRIPOS>MOLECULE
26483_ChemDiv_5293-0003
 31 35 0 0 0
SMALL
GASTEIGER
Energy = 0

@<TRIPOS>ATOM
      1 S           3.0330    0.3830    0.0000 S.O2    1  LIG1        0.0634
      2 N           3.5670    1.2460    0.0000 N.3     1  LIG1       -0.1504
      3 C           4.5630    1.2460    0.0000 C.3     1  LIG1        0.1279
      4 C           5.0670    2.1130    0.0000 C.3     1  LIG1        0.1613
      5 O           4.5630    2.9710    0.0000 O.3     1  LIG1       -0.3507
      6 C           3.5670    3.0000    0.0000 C.3     1  LIG1        0.1613
      7 C           3.0790    2.1420    0.0000 C.3     1  LIG1        0.1279
      8 C           2.5290   -0.5040    0.0000 C.ar    1  LIG1        0.1224
      9 C           1.5500   -0.5040    0.0000 C.ar    1  LIG1        0.0230
     10 C           1.0330   -1.3630    0.0000 C.ar    1  LIG1        0.0389
     11 C           0.0750   -1.5880    0.0000 C.ar    1  LIG1        0.0389
     12 C          -0.0080   -2.5790    0.0000 C.ar    1  LIG1        0.1454
     13 O           0.8630   -2.9960    0.0000 O.2     1  LIG1       -0.4535
     14 C           1.5500   -2.2330    0.0000 C.ar    1  LIG1        0.1454
     15 C           2.5290   -2.2330    0.0000 C.ar    1  LIG1        0.0389
     16 C           3.0330   -1.3630    0.0000 C.ar    1  LIG1        0.0230
     17 C          -0.9290   -2.9960    0.0000 C.ar    1  LIG1        0.0389
     18 C          -1.7330   -2.4420    0.0000 C.ar    1  LIG1        0.0230
     19 C          -1.6460   -1.4500    0.0000 C.ar    1  LIG1        0.1224
     20 S          -2.5130   -0.8920    0.0000 S.O2    1  LIG1        0.0634
     21 N          -3.3460   -0.3380    0.0000 N.3     1  LIG1       -0.1504
     22 C          -3.2920    0.6710    0.0000 C.3     1  LIG1        0.1279
     23 C          -4.1290    1.2170    0.0000 C.3     1  LIG1        0.1613
     24 O          -4.9830    0.7540    0.0000 O.3     1  LIG1       -0.3507
     25 C          -5.0710   -0.2250    0.0000 C.3     1  LIG1        0.1613
     26 C          -4.2380   -0.7830    0.0000 C.3     1  LIG1        0.1279
     27 O          -3.0670   -1.7580    0.0000 O.2     1  LIG1       -0.1528
     28 O          -1.9540   -0.0580    0.0000 O.2     1  LIG1       -0.1528
     29 C          -0.7630   -1.0330    0.0000 C.ar    1  LIG1        0.0230
     30 O           2.1750    0.8880    0.0000 O.2     1  LIG1       -0.1528
     31 O           3.9210   -0.1460    0.0000 O.2     1  LIG1       -0.1528
@<TRIPOS>BOND
     1     1     2    1
     2     1     8    1
     3     1    30    2
     4     1    31    2
     5     2     3    1
     6     2     7    1
     7     3     4    1
     8     4     5    1
     9     5     6    1
    10     6     7    1
    11     8     9   ar
    12     8    16   ar
    13     9    10   ar
    14    10    11   ar
    15    10    14   ar
    16    11    12   ar
    17    11    29   ar
    18    12    13   ar
    19    12    17   ar
    20    13    14   ar
    21    14    15   ar
    22    15    16   ar
    23    17    18   ar
    24    18    19   ar
    25    19    20    1
    26    19    29   ar
    27    20    21    1
    28    20    27    2
    29    20    28    2
    30    21    22    1
    31    21    26    1
    32    22    23    1
    33    23    24    1
    34    24    25    1
    35    25    26    1
