@<TRIPOS>MOLECULE
26489_ChemDiv_8006-7784
 22 25 0 0 0
SMALL
GASTEIGER
Energy = 0

@<TRIPOS>ATOM
      1 S           1.5830   -0.0540    0.0000 S.O2    1  LIG1        0.0635
      2 N           2.4630   -0.5080    0.0000 N.3     1  LIG1       -0.1504
      3 C           2.5420   -1.5130    0.0000 C.3     1  LIG1        0.1279
      4 C           3.4040   -1.9500    0.0000 C.3     1  LIG1        0.1613
      5 O           4.2500   -1.3880    0.0000 O.3     1  LIG1       -0.3507
      6 C           4.1710   -0.4130    0.0000 C.3     1  LIG1        0.1613
      7 C           3.2790    0.0250    0.0000 C.3     1  LIG1        0.1279
      8 C           0.7040    0.4500    0.0000 C.ar    1  LIG1        0.1252
      9 C          -0.1460   -0.0540    0.0000 C.ar    1  LIG1        0.0574
     10 C          -1.0250    0.4500    0.0000 C.ar    1  LIG1        0.1466
     11 O          -1.8210    0.0580    0.0000 O.2     1  LIG1       -0.4535
     12 C          -2.6330    0.5130    0.0000 C.ar    1  LIG1        0.1453
     13 C          -2.6330    1.4880    0.0000 C.ar    1  LIG1        0.0375
     14 C          -1.0250    1.4880    0.0000 C.ar    1  LIG1        0.0376
     15 C          -0.1460    1.9540    0.0000 C.ar    1  LIG1        0.0045
     16 C           0.7040    1.4540    0.0000 C.ar    1  LIG1        0.0201
     17 C          -3.4380    1.8960    0.0000 C.ar    1  LIG1        0.0031
     18 C          -4.2540    1.4250    0.0000 C.ar    1  LIG1        0.0002
     19 C          -4.2540    0.5130    0.0000 C.ar    1  LIG1        0.0031
     20 C          -3.4380    0.0580    0.0000 C.ar    1  LIG1        0.0375
     21 O           2.0830    0.7960    0.0000 O.2     1  LIG1       -0.1528
     22 O           1.0460   -0.9290    0.0000 O.2     1  LIG1       -0.1528
@<TRIPOS>BOND
     1     1     2    1
     2     1     8    1
     3     1    21    2
     4     1    22    2
     5     2     3    1
     6     2     7    1
     7     3     4    1
     8     4     5    1
     9     5     6    1
    10     6     7    1
    11     8     9   ar
    12     8    16   ar
    13     9    10   ar
    14    10    11   ar
    15    10    14   ar
    16    11    12   ar
    17    12    13   ar
    18    12    20   ar
    19    13    14   ar
    20    13    17   ar
    21    14    15   ar
    22    15    16   ar
    23    17    18   ar
    24    18    19   ar
    25    19    20   ar
