@<TRIPOS>MOLECULE
26488_ChemDiv_4296-0658
 33 35 0 0 0
SMALL
GASTEIGER
Energy = 0

@<TRIPOS>ATOM
      1 C          -0.1750   -1.2630    0.0000 C.ar    1  LIG1        0.0696
      2 C           0.6830   -0.7580    0.0000 C.ar    1  LIG1        0.0173
      3 C           1.5710   -1.2630    0.0000 C.ar    1  LIG1        0.0920
      4 C           1.5710   -2.2830    0.0000 C.ar    1  LIG1        0.1163
      5 N           0.6830   -2.7880    0.0000 N.ar    1  LIG1       -0.2426
      6 C          -0.1750   -2.2830    0.0000 C.ar    1  LIG1        0.0643
      7 C          -1.0580   -2.8040    0.0000 C.3     1  LIG1        0.0523
      8 S           2.4670   -2.7880    0.0000 S.3     1  LIG1       -0.0844
      9 C           3.3420   -2.2830    0.0000 C.3     1  LIG1        0.1518
     10 C           4.2040   -2.7880    0.0000 C.2     1  LIG1        0.2721
     11 O           4.2040   -3.8000    0.0000 O.2     1  LIG1       -0.2707
     12 N           5.0830   -2.2830    0.0000 N.am    1  LIG1       -0.0870
     13 C           2.4670   -0.7580    0.0000 C.1     1  LIG1        0.1025
     14 N           3.3420   -1.2630    0.0000 N.1     1  LIG1       -0.1908
     15 C           0.6750    0.2540    0.0000 C.ar    1  LIG1        0.0041
     16 C           1.5500    0.7710    0.0000 C.ar    1  LIG1        0.0401
     17 C           1.5500    1.7750    0.0000 C.ar    1  LIG1        0.1724
     18 C           0.6830    2.2880    0.0000 C.ar    1  LIG1        0.1724
     19 C          -0.1750    1.7750    0.0000 C.ar    1  LIG1        0.0400
     20 C          -0.1960    0.7710    0.0000 C.ar    1  LIG1        0.0033
     21 O           0.6830    3.3040    0.0000 O.3     1  LIG1       -0.4684
     22 C          -0.1750    3.8040    0.0000 C.3     1  LIG1        0.2526
     23 O           2.4330    2.3000    0.0000 O.3     1  LIG1       -0.4684
     24 C           3.3130    1.7960    0.0000 C.3     1  LIG1        0.2526
     25 C          -1.0580   -0.7420    0.0000 C.2     1  LIG1        0.2701
     26 N          -1.9330   -1.2460    0.0000 N.am    1  LIG1       -0.1754
     27 C          -2.9380   -1.2460    0.0000 C.ar    1  LIG1        0.0737
     28 C          -3.3710   -1.8920    0.0000 C.ar    1  LIG1        0.0166
     29 C          -4.5750   -1.8790    0.0000 C.ar    1  LIG1        0.0013
     30 C          -5.0880   -1.2920    0.0000 C.ar    1  LIG1        0.0001
     31 C          -4.5460   -0.5170    0.0000 C.ar    1  LIG1        0.0013
     32 C          -3.5330   -0.5380    0.0000 C.ar    1  LIG1        0.0166
     33 O          -1.0580    0.2710    0.0000 O.2     1  LIG1       -0.2680
@<TRIPOS>BOND
     1     1     2   ar
     2     1     6   ar
     3     1    25    1
     4     2     3   ar
     5     2    15    1
     6     3     4   ar
     7     3    13    1
     8     4     5   ar
     9     4     8    1
    10     5     6   ar
    11     6     7    1
    12     8     9    1
    13     9    10    1
    14    10    11    2
    15    10    12   am
    16    13    14    3
    17    15    16   ar
    18    15    20   ar
    19    16    17   ar
    20    17    18   ar
    21    17    23    1
    22    18    19   ar
    23    18    21    1
    24    19    20   ar
    25    21    22    1
    26    23    24    1
    27    25    26   am
    28    25    33    2
    29    26    27    1
    30    27    28   ar
    31    27    32   ar
    32    28    29   ar
    33    29    30   ar
    34    30    31   ar
    35    31    32   ar
