@<TRIPOS>MOLECULE
26484_ChemDiv_3076-0041
 31 33 0 0 0
SMALL
GASTEIGER
Energy = 0

@<TRIPOS>ATOM
      1 C           0.4250   -0.9960    0.0000 C.ar    1  LIG1        0.0919
      2 C           0.4250   -1.9960    0.0000 C.ar    1  LIG1        0.1165
      3 N          -0.4420   -2.4960    0.0000 N.ar    1  LIG1       -0.2385
      4 C          -1.3080   -1.9880    0.0000 C.ar    1  LIG1        0.0819
      5 C          -1.3080   -0.9790    0.0000 C.ar    1  LIG1        0.0199
      6 C          -0.4420   -0.4750    0.0000 C.ar    1  LIG1        0.0133
      7 C          -0.4420    0.5210    0.0000 C.ar    1  LIG1        0.0070
      8 C           0.4250    0.9920    0.0000 C.ar    1  LIG1        0.0403
      9 C           0.4250    1.9880    0.0000 C.ar    1  LIG1        0.1754
     10 C          -0.4420    2.5080    0.0000 C.ar    1  LIG1        0.2061
     11 C          -1.3080    2.0000    0.0000 C.ar    1  LIG1        0.1754
     12 C          -1.3080    0.9920    0.0000 C.ar    1  LIG1        0.0403
     13 O          -2.1830    2.5080    0.0000 O.3     1  LIG1       -0.4683
     14 C          -3.0500    2.0000    0.0000 C.3     1  LIG1        0.2526
     15 O          -0.4420    3.5000    0.0000 O.3     1  LIG1       -0.4654
     16 C          -1.3080    4.0000    0.0000 C.3     1  LIG1        0.2528
     17 O           1.2830    2.4920    0.0000 O.3     1  LIG1       -0.4683
     18 C           1.2830    3.4830    0.0000 C.3     1  LIG1        0.2526
     19 C          -2.1830   -2.4790    0.0000 C.ar    1  LIG1        0.0177
     20 C          -3.0500   -1.9880    0.0000 C.ar    1  LIG1        0.0015
     21 C          -3.8960   -2.4790    0.0000 C.ar    1  LIG1        0.0000
     22 C          -3.8960   -3.4880    0.0000 C.ar    1  LIG1        0.0000
     23 C          -3.0500   -3.9960    0.0000 C.ar    1  LIG1        0.0000
     24 C          -2.1830   -3.4880    0.0000 C.ar    1  LIG1        0.0015
     25 S           1.2830   -2.4960    0.0000 S.3     1  LIG1       -0.0882
     26 C           2.1540   -1.9960    0.0000 C.3     1  LIG1        0.1051
     27 C           3.0330   -2.4960    0.0000 C.2     1  LIG1        0.0616
     28 O           3.8920   -1.9960    0.0000 O.co2   1  LIG1       -0.5483
     29 O           3.0330   -3.4960    0.0000 O.co2   1  LIG1       -0.5483
     30 C           1.2830   -0.4880    0.0000 C.1     1  LIG1        0.1024
     31 N           2.1540    0.0000    0.0000 N.1     1  LIG1       -0.1908
@<TRIPOS>BOND
     1     1     2   ar
     2     1     6   ar
     3     1    30    1
     4     2     3   ar
     5     2    25    1
     6     3     4   ar
     7     4     5   ar
     8     4    19    1
     9     5     6   ar
    10     6     7    1
    11     7     8   ar
    12     7    12   ar
    13     8     9   ar
    14     9    10   ar
    15     9    17    1
    16    10    11   ar
    17    10    15    1
    18    11    12   ar
    19    11    13    1
    20    13    14    1
    21    15    16    1
    22    17    18    1
    23    19    20   ar
    24    19    24   ar
    25    20    21   ar
    26    21    22   ar
    27    22    23   ar
    28    23    24   ar
    29    25    26    1
    30    26    27    1
    31    27    28   ar
    32    27    29   ar
    33    30    31    3
