@<TRIPOS>MOLECULE
26480_ChemDiv_1509-0067
 31 35 0 0 0
SMALL
GASTEIGER
Energy = 0

@<TRIPOS>ATOM
      1 S           3.3920    0.2420    0.0000 S.O2    1  LIG1        0.0633
      2 C           2.3880    0.3790    0.0000 C.ar    1  LIG1        0.1219
      3 C           1.7500   -0.4040    0.0000 C.ar    1  LIG1        0.0160
      4 C           0.7460   -0.1880    0.0000 C.ar    1  LIG1       -0.0165
      5 C           0.4500    0.7380    0.0000 C.ar    1  LIG1       -0.0039
      6 C          -0.5580    0.7380    0.0000 C.ar    1  LIG1       -0.0039
      7 C          -0.8540   -0.2250    0.0000 C.ar    1  LIG1       -0.0165
      8 C          -0.0500   -0.7920    0.0000 C.3     1  LIG1        0.0527
      9 C          -1.8210   -0.4630    0.0000 C.ar    1  LIG1        0.0160
     10 C          -2.4960    0.2710    0.0000 C.ar    1  LIG1        0.1219
     11 S          -3.4960    0.0670    0.0000 S.O2    1  LIG1        0.0633
     12 N          -4.4540   -0.2210    0.0000 N.3     1  LIG1       -0.1555
     13 C          -4.6540   -1.1670    0.0000 C.3     1  LIG1        0.0958
     14 C          -5.6290   -1.4710    0.0000 C.3     1  LIG1        0.0192
     15 C          -6.3460   -0.7920    0.0000 C.3     1  LIG1        0.0030
     16 C          -6.1380    0.1670    0.0000 C.3     1  LIG1        0.0192
     17 C          -5.2040    0.4580    0.0000 C.3     1  LIG1        0.0958
     18 O          -3.3380   -0.9040    0.0000 O.2     1  LIG1       -0.1528
     19 O          -3.6960    1.1130    0.0000 O.2     1  LIG1       -0.1528
     20 C          -2.2040    1.2420    0.0000 C.ar    1  LIG1        0.0199
     21 C          -1.2250    1.4420    0.0000 C.ar    1  LIG1        0.0011
     22 C           1.0830    1.4750    0.0000 C.ar    1  LIG1        0.0011
     23 C           2.0630    1.3210    0.0000 C.ar    1  LIG1        0.0199
     24 N           4.3710    0.0670    0.0000 N.3     1  LIG1       -0.1555
     25 C           4.9920    0.8290    0.0000 C.3     1  LIG1        0.0958
     26 C           5.9880    0.6750    0.0000 C.3     1  LIG1        0.0192
     27 C           6.3460   -0.2460    0.0000 C.3     1  LIG1        0.0030
     28 C           5.7210   -1.0290    0.0000 C.3     1  LIG1        0.0192
     29 C           4.7540   -0.8710    0.0000 C.3     1  LIG1        0.0958
     30 O           3.2710   -0.7670    0.0000 O.2     1  LIG1       -0.1528
     31 O           3.5290    1.2670    0.0000 O.2     1  LIG1       -0.1528
@<TRIPOS>BOND
     1     1     2    1
     2     1    24    1
     3     1    30    2
     4     1    31    2
     5     2     3   ar
     6     2    23   ar
     7     3     4   ar
     8     4     5   ar
     9     4     8    1
    10     5     6    1
    11     5    22   ar
    12     6     7   ar
    13     6    21   ar
    14     7     8    1
    15     7     9   ar
    16     9    10   ar
    17    10    11    1
    18    10    20   ar
    19    11    12    1
    20    11    18    2
    21    11    19    2
    22    12    13    1
    23    12    17    1
    24    13    14    1
    25    14    15    1
    26    15    16    1
    27    16    17    1
    28    20    21   ar
    29    22    23   ar
    30    24    25    1
    31    24    29    1
    32    25    26    1
    33    26    27    1
    34    27    28    1
    35    28    29    1
