@<TRIPOS>MOLECULE
26495_ChemDiv_8015-7492
 23 26 0 0 0
SMALL
GASTEIGER
Energy = 0

@<TRIPOS>ATOM
      1 S           2.0920   -0.0080    0.0000 S.O2    1  LIG1        0.0634
      2 N           2.9330    0.4830    0.0000 N.3     1  LIG1       -0.1504
      3 C           2.9330    1.4580    0.0000 C.3     1  LIG1        0.1279
      4 C           3.7830    1.9500    0.0000 C.3     1  LIG1        0.1613
      5 O           4.6290    1.4580    0.0000 O.3     1  LIG1       -0.3507
      6 C           4.6290    0.4830    0.0000 C.3     1  LIG1        0.1613
      7 C           3.7830   -0.0080    0.0000 C.3     1  LIG1        0.1279
      8 C           1.2460   -0.4830    0.0000 C.ar    1  LIG1        0.1224
      9 C           0.4040   -0.0080    0.0000 C.ar    1  LIG1        0.0230
     10 C          -0.4460   -0.4830    0.0000 C.ar    1  LIG1        0.0388
     11 C          -2.1380   -0.4830    0.0000 C.ar    1  LIG1        0.0376
     12 C          -2.1380   -1.4580    0.0000 C.ar    1  LIG1        0.1466
     13 O          -1.2960   -1.9460    0.0000 O.2     1  LIG1       -0.4535
     14 C          -0.4460   -1.4580    0.0000 C.ar    1  LIG1        0.1454
     15 C           0.4040   -1.9460    0.0000 C.ar    1  LIG1        0.0389
     16 C           1.2460   -1.4580    0.0000 C.ar    1  LIG1        0.0230
     17 C          -2.9630   -1.9460    0.0000 C.ar    1  LIG1        0.0555
     18 C          -3.7960   -1.4580    0.0000 C.ar    1  LIG1        0.0921
     19 C          -3.7960   -0.4830    0.0000 C.ar    1  LIG1        0.0183
     20 C          -2.9630   -0.0080    0.0000 C.ar    1  LIG1        0.0045
     21 N          -4.6330   -1.9460    0.0000 N.pl3   1  LIG1       -0.1280
     22 O           1.6040    0.8420    0.0000 O.2     1  LIG1       -0.1528
     23 O           2.5790   -0.8460    0.0000 O.2     1  LIG1       -0.1528
@<TRIPOS>BOND
     1     1     2    1
     2     1     8    1
     3     1    22    2
     4     1    23    2
     5     2     3    1
     6     2     7    1
     7     3     4    1
     8     4     5    1
     9     5     6    1
    10     6     7    1
    11     8     9   ar
    12     8    16   ar
    13     9    10   ar
    14    10    11   ar
    15    10    14   ar
    16    11    12   ar
    17    11    20   ar
    18    12    13   ar
    19    12    17   ar
    20    13    14   ar
    21    14    15   ar
    22    15    16   ar
    23    17    18   ar
    24    18    19   ar
    25    18    21    1
    26    19    20   ar
