@<TRIPOS>MOLECULE
26497_ChemDiv_E631-0150
 25 27 0 0 0
SMALL
GASTEIGER
Energy = 0

@<TRIPOS>ATOM
      1 C          -1.7580    1.2540    0.0000 C.ar    1  LIG1        0.1111
      2 C          -2.6250    1.7540    0.0000 C.ar    1  LIG1        0.2037
      3 C          -3.4880    1.2540    0.0000 C.ar    1  LIG1        0.0685
      4 C          -3.4880    0.2580    0.0000 C.ar    1  LIG1        0.0983
      5 N          -2.6250   -0.2420    0.0000 N.ar    1  LIG1       -0.3196
      6 C          -1.7580    0.2580    0.0000 C.ar    1  LIG1        0.0839
      7 C          -2.6250   -1.2500    0.0000 C.3     1  LIG1        0.1495
      8 C          -3.4880   -1.7500    0.0000 C.3     1  LIG1        0.1885
      9 O          -4.3580   -1.2500    0.0000 O.3     1  LIG1       -0.4757
     10 C          -4.3580   -0.2420    0.0000 C.ar    1  LIG1        0.1542
     11 C          -5.2210    0.2580    0.0000 C.ar    1  LIG1        0.0393
     12 C          -5.2210    1.2540    0.0000 C.ar    1  LIG1        0.0147
     13 C          -4.3500    1.7540    0.0000 C.ar    1  LIG1        0.0623
     14 CL         -4.3500    2.7500    0.0000 Cl      1  LIG1       -0.0821
     15 C          -3.4880   -2.7500    0.0000 C.3     1  LIG1        0.0493
     16 O          -2.6380    2.7500    0.0000 O.2     1  LIG1       -0.2863
     17 C          -0.9000    1.7670    0.0000 C.2     1  LIG1        0.2694
     18 O          -0.9000    2.7540    0.0000 O.2     1  LIG1       -0.2682
     19 N          -0.0380    1.2580    0.0000 N.am    1  LIG1       -0.2015
     20 C           0.9170    1.8130    0.0000 C.3     1  LIG1        0.1181
     21 C           1.5790    1.4500    0.0000 C.3     1  LIG1        0.0555
     22 C           2.3000    1.8170    0.0000 C.3     1  LIG1        0.1440
     23 O           3.2420    1.2830    0.0000 O.3     1  LIG1       -0.3537
     24 C           4.2040    1.8420    0.0000 C.3     1  LIG1        0.1422
     25 C           5.2170    1.3000    0.0000 C.3     1  LIG1        0.0346
@<TRIPOS>BOND
     1     1     2   ar
     2     1     6   ar
     3     1    17    1
     4     2     3   ar
     5     2    16    2
     6     3     4   ar
     7     3    13   ar
     8     4     5   ar
     9     4    10   ar
    10     5     6   ar
    11     5     7    1
    12     7     8    1
    13     8     9    1
    14     8    15    1
    15     9    10    1
    16    10    11   ar
    17    11    12   ar
    18    12    13   ar
    19    13    14    1
    20    17    18    2
    21    17    19   am
    22    19    20    1
    23    20    21    1
    24    21    22    1
    25    22    23    1
    26    23    24    1
    27    24    25    1
