@<TRIPOS>MOLECULE
26498_ChemDiv_1509-0073
 31 35 0 0 0
SMALL
GASTEIGER
Energy = 0

@<TRIPOS>ATOM
      1 S           3.4670   -0.0880    0.0000 S.O2    1  LIG1        0.0634
      2 N           4.4580   -0.2170    0.0000 N.3     1  LIG1       -0.1504
      3 C           4.8630   -1.1250    0.0000 C.3     1  LIG1        0.1279
      4 C           5.8540   -1.2420    0.0000 C.3     1  LIG1        0.1613
      5 O           6.4420   -0.4460    0.0000 O.3     1  LIG1       -0.3507
      6 C           6.0460    0.4420    0.0000 C.3     1  LIG1        0.1613
      7 C           5.0580    0.5540    0.0000 C.3     1  LIG1        0.1279
      8 C           2.4790    0.1130    0.0000 C.ar    1  LIG1        0.1219
      9 C           1.7920   -0.6290    0.0000 C.ar    1  LIG1        0.0160
     10 C           0.7880   -0.4380    0.0000 C.ar    1  LIG1       -0.0165
     11 C           0.5170    0.5250    0.0000 C.ar    1  LIG1       -0.0039
     12 C          -0.5000    0.5250    0.0000 C.ar    1  LIG1       -0.0039
     13 C          -0.8290   -0.4380    0.0000 C.ar    1  LIG1       -0.0165
     14 C          -0.0420   -1.0250    0.0000 C.3     1  LIG1        0.0527
     15 C          -1.8210   -0.6290    0.0000 C.ar    1  LIG1        0.0160
     16 C          -2.4750    0.1130    0.0000 C.ar    1  LIG1        0.1219
     17 S          -3.4920   -0.0880    0.0000 S.O2    1  LIG1        0.0634
     18 N          -4.4830   -0.1960    0.0000 N.3     1  LIG1       -0.1504
     19 C          -5.1170    0.5750    0.0000 C.3     1  LIG1        0.1279
     20 C          -6.0830    0.4210    0.0000 C.3     1  LIG1        0.1613
     21 O          -6.4420   -0.4880    0.0000 O.3     1  LIG1       -0.3507
     22 C          -5.8380   -1.2420    0.0000 C.3     1  LIG1        0.1613
     23 C          -4.8500   -1.1040    0.0000 C.3     1  LIG1        0.1279
     24 O          -3.3000   -1.1460    0.0000 O.2     1  LIG1       -0.1528
     25 O          -3.6710    0.9040    0.0000 O.2     1  LIG1       -0.1528
     26 C          -2.1710    1.0210    0.0000 C.ar    1  LIG1        0.0199
     27 C          -1.1960    1.2460    0.0000 C.ar    1  LIG1        0.0011
     28 C           1.1790    1.2460    0.0000 C.ar    1  LIG1        0.0011
     29 C           2.1420    1.0210    0.0000 C.ar    1  LIG1        0.0199
     30 O           3.2960   -1.1460    0.0000 O.2     1  LIG1       -0.1528
     31 O           3.6750    0.9040    0.0000 O.2     1  LIG1       -0.1528
@<TRIPOS>BOND
     1     1     2    1
     2     1     8    1
     3     1    30    2
     4     1    31    2
     5     2     3    1
     6     2     7    1
     7     3     4    1
     8     4     5    1
     9     5     6    1
    10     6     7    1
    11     8     9   ar
    12     8    29   ar
    13     9    10   ar
    14    10    11   ar
    15    10    14    1
    16    11    12    1
    17    11    28   ar
    18    12    13   ar
    19    12    27   ar
    20    13    14    1
    21    13    15   ar
    22    15    16   ar
    23    16    17    1
    24    16    26   ar
    25    17    18    1
    26    17    24    2
    27    17    25    2
    28    18    19    1
    29    18    23    1
    30    19    20    1
    31    20    21    1
    32    21    22    1
    33    22    23    1
    34    26    27   ar
    35    28    29   ar
