@<TRIPOS>MOLECULE
26490_ChemDiv_4378-0246
 29 31 0 0 0
SMALL
GASTEIGER
Energy = 0

@<TRIPOS>ATOM
      1 C           0.0250    0.2750    0.0000 C.ar    1  LIG1        0.0919
      2 C           0.0250   -0.7330    0.0000 C.ar    1  LIG1        0.1162
      3 N          -0.8210   -1.2380    0.0000 N.ar    1  LIG1       -0.2385
      4 C          -1.6830   -0.7330    0.0000 C.ar    1  LIG1        0.0819
      5 C          -1.6830    0.2380    0.0000 C.ar    1  LIG1        0.0198
      6 C          -0.8210    0.7380    0.0000 C.ar    1  LIG1        0.0131
      7 C          -0.8210    1.7500    0.0000 C.ar    1  LIG1        0.0008
      8 C          -1.6830    2.2080    0.0000 C.ar    1  LIG1        0.0000
      9 C          -1.6830    3.2250    0.0000 C.ar    1  LIG1        0.0000
     10 C          -0.8210    3.7210    0.0000 C.ar    1  LIG1        0.0000
     11 C           0.0250    3.2250    0.0000 C.ar    1  LIG1        0.0000
     12 C           0.0250    2.2540    0.0000 C.ar    1  LIG1        0.0000
     13 C          -2.5380   -1.2380    0.0000 C.ar    1  LIG1        0.0179
     14 C          -3.4000   -0.7330    0.0000 C.ar    1  LIG1        0.0046
     15 C          -4.2630   -1.2380    0.0000 C.ar    1  LIG1        0.0369
     16 C          -4.2630   -2.2500    0.0000 C.ar    1  LIG1        0.1387
     17 C          -3.4000   -2.7080    0.0000 C.ar    1  LIG1        0.0369
     18 C          -2.5380   -2.2500    0.0000 C.ar    1  LIG1        0.0046
     19 O          -5.1420   -2.7500    0.0000 O.3     1  LIG1       -0.4714
     20 C          -5.1790   -3.7170    0.0000 C.3     1  LIG1        0.2525
     21 S           0.8880   -1.2380    0.0000 S.3     1  LIG1       -0.0933
     22 C           1.7830   -0.7750    0.0000 C.3     1  LIG1        0.0780
     23 C           2.6040   -1.2880    0.0000 C.3     1  LIG1        0.1038
     24 S           3.4670   -0.8290    0.0000 S.O     1  LIG1        0.0426
     25 O           3.4710    0.3960    0.0000 O.2     1  LIG1       -0.2559
     26 C           4.2880   -1.3710    0.0000 C.3     1  LIG1        0.0918
     27 C           5.1750   -0.9130    0.0000 C.3     1  LIG1        0.0153
     28 C           0.9210    0.7790    0.0000 C.1     1  LIG1        0.1024
     29 N           1.8080    1.2420    0.0000 N.1     1  LIG1       -0.1908
@<TRIPOS>BOND
     1     1     2   ar
     2     1     6   ar
     3     1    28    1
     4     2     3   ar
     5     2    21    1
     6     3     4   ar
     7     4     5   ar
     8     4    13    1
     9     5     6   ar
    10     6     7    1
    11     7     8   ar
    12     7    12   ar
    13     8     9   ar
    14     9    10   ar
    15    10    11   ar
    16    11    12   ar
    17    13    14   ar
    18    13    18   ar
    19    14    15   ar
    20    15    16   ar
    21    16    17   ar
    22    16    19    1
    23    17    18   ar
    24    19    20    1
    25    21    22    1
    26    22    23    1
    27    23    24    1
    28    24    25    2
    29    24    26    1
    30    26    27    1
    31    28    29    3
