@<TRIPOS>MOLECULE
26499_ChemDiv_E631-0237
 30 33 0 0 0
SMALL
GASTEIGER
Energy = 0

@<TRIPOS>ATOM
      1 C          -2.1630    0.2630    0.0000 C.ar    1  LIG1        0.1111
      2 C          -3.0290    0.7580    0.0000 C.ar    1  LIG1        0.2037
      3 C          -3.8920    0.2630    0.0000 C.ar    1  LIG1        0.0685
      4 C          -3.8920   -0.7380    0.0000 C.ar    1  LIG1        0.0983
      5 N          -3.0290   -1.2330    0.0000 N.ar    1  LIG1       -0.3196
      6 C          -2.1630   -0.7380    0.0000 C.ar    1  LIG1        0.0839
      7 C          -3.0290   -2.2420    0.0000 C.3     1  LIG1        0.1495
      8 C          -3.8920   -2.7420    0.0000 C.3     1  LIG1        0.1885
      9 O          -4.7630   -2.2420    0.0000 O.3     1  LIG1       -0.4757
     10 C          -4.7630   -1.2330    0.0000 C.ar    1  LIG1        0.1542
     11 C          -5.6250   -0.7380    0.0000 C.ar    1  LIG1        0.0393
     12 C          -5.6250    0.2630    0.0000 C.ar    1  LIG1        0.0147
     13 C          -4.7540    0.7580    0.0000 C.ar    1  LIG1        0.0623
     14 CL         -4.7540    1.7580    0.0000 Cl      1  LIG1       -0.0821
     15 C          -3.8920   -3.7460    0.0000 C.3     1  LIG1        0.0493
     16 O          -3.0420    1.7580    0.0000 O.2     1  LIG1       -0.2863
     17 C          -1.3000    0.7750    0.0000 C.2     1  LIG1        0.2694
     18 O          -1.3000    1.7630    0.0000 O.2     1  LIG1       -0.2682
     19 N          -0.4420    0.2670    0.0000 N.am    1  LIG1       -0.2012
     20 C           0.4290    0.7750    0.0000 C.3     1  LIG1        0.1201
     21 C           1.2830    0.2630    0.0000 C.3     1  LIG1        0.0498
     22 C           2.1540    0.7580    0.0000 C.ar    1  LIG1       -0.0202
     23 C           3.0210    0.2630    0.0000 C.ar    1  LIG1       -0.0011
     24 C           3.8830    0.7750    0.0000 C.ar    1  LIG1        0.0366
     25 C           3.8830    1.7750    0.0000 C.ar    1  LIG1        0.1385
     26 C           3.0290    2.2670    0.0000 C.ar    1  LIG1        0.0366
     27 C           2.1540    1.7750    0.0000 C.ar    1  LIG1       -0.0011
     28 O           4.7540    2.2500    0.0000 O.3     1  LIG1       -0.4755
     29 C           4.7460    3.2500    0.0000 C.3     1  LIG1        0.2055
     30 C           5.6210    3.7500    0.0000 C.3     1  LIG1        0.0512
@<TRIPOS>BOND
     1     1     2   ar
     2     1     6   ar
     3     1    17    1
     4     2     3   ar
     5     2    16    2
     6     3     4   ar
     7     3    13   ar
     8     4     5   ar
     9     4    10   ar
    10     5     6   ar
    11     5     7    1
    12     7     8    1
    13     8     9    1
    14     8    15    1
    15     9    10    1
    16    10    11   ar
    17    11    12   ar
    18    12    13   ar
    19    13    14    1
    20    17    18    2
    21    17    19   am
    22    19    20    1
    23    20    21    1
    24    21    22    1
    25    22    23   ar
    26    22    27   ar
    27    23    24   ar
    28    24    25   ar
    29    25    26   ar
    30    25    28    1
    31    26    27   ar
    32    28    29    1
    33    29    30    1
