@<TRIPOS>MOLECULE
26496_ChemDiv_8001-8171
 20 22 0 0 0
SMALL
GASTEIGER
Energy = 0

@<TRIPOS>ATOM
      1 C           1.2040   -0.4080    0.0000 C.ar    1  LIG1        0.0924
      2 C           1.2040   -1.3670    0.0000 C.ar    1  LIG1        0.1249
      3 N           0.3580   -1.8580    0.0000 N.ar    1  LIG1       -0.2375
      4 C          -0.4960   -1.3670    0.0000 C.ar    1  LIG1        0.0878
      5 C          -0.4960   -0.4080    0.0000 C.ar    1  LIG1        0.0204
      6 C           0.3580    0.0670    0.0000 C.ar    1  LIG1        0.0131
      7 C           0.3580    1.0790    0.0000 C.ar    1  LIG1        0.0008
      8 C          -0.5080    1.5830    0.0000 C.ar    1  LIG1        0.0000
      9 C          -0.5080    2.5830    0.0000 C.ar    1  LIG1        0.0000
     10 C           0.3580    3.0830    0.0000 C.ar    1  LIG1        0.0000
     11 C           1.2380    2.5830    0.0000 C.ar    1  LIG1        0.0000
     12 C           1.2380    1.5830    0.0000 C.ar    1  LIG1        0.0000
     13 C          -1.3580   -1.8330    0.0000 C.ar    1  LIG1        0.0471
     14 S          -1.3580   -2.8130    0.0000 S.2     1  LIG1       -0.0849
     15 C          -2.3880   -3.0790    0.0000 C.ar    1  LIG1        0.0355
     16 C          -2.9830   -2.3130    0.0000 C.ar    1  LIG1        0.0075
     17 C          -2.3540   -1.4630    0.0000 C.ar    1  LIG1        0.0085
     18 BR          2.0670   -1.8580    0.0000 Br      1  LIG1       -0.0273
     19 C           2.1040    0.0830    0.0000 C.1     1  LIG1        0.1025
     20 N           2.9790    0.5630    0.0000 N.1     1  LIG1       -0.1908
@<TRIPOS>BOND
     1     1     2   ar
     2     1     6   ar
     3     1    19    1
     4     2     3   ar
     5     2    18    1
     6     3     4   ar
     7     4     5   ar
     8     4    13    1
     9     5     6   ar
    10     6     7    1
    11     7     8   ar
    12     7    12   ar
    13     8     9   ar
    14     9    10   ar
    15    10    11   ar
    16    11    12   ar
    17    13    14   ar
    18    13    17   ar
    19    14    15   ar
    20    15    16   ar
    21    16    17   ar
    22    19    20    3
