@<TRIPOS>MOLECULE
26502_ChemDiv_1509-0133
 28 30 0 0 0
SMALL
GASTEIGER
Energy = 0

@<TRIPOS>ATOM
      1 S           3.1500    0.6130    0.0000 S.O2    1  LIG1        0.0769
      2 C           2.1330    0.7130    0.0000 C.ar    1  LIG1        0.1237
      3 C           1.5000   -0.0830    0.0000 C.ar    1  LIG1        0.0231
      4 C           0.5420    0.0790    0.0000 C.ar    1  LIG1        0.0403
      5 C          -0.2830   -0.5460    0.0000 C.2     1  LIG1        0.1956
      6 C          -1.1080    0.0210    0.0000 C.ar    1  LIG1        0.0403
      7 C          -0.8130    0.9830    0.0000 C.ar    1  LIG1        0.0033
      8 C           0.2130    0.9830    0.0000 C.ar    1  LIG1        0.0033
      9 C           0.8380    1.7330    0.0000 C.ar    1  LIG1        0.0015
     10 C           1.8000    1.5670    0.0000 C.ar    1  LIG1        0.0200
     11 C          -1.4750    1.7040    0.0000 C.ar    1  LIG1        0.0015
     12 C          -2.4330    1.5040    0.0000 C.ar    1  LIG1        0.0200
     13 C          -2.7630    0.5170    0.0000 C.ar    1  LIG1        0.1237
     14 S          -3.7540    0.2790    0.0000 S.O2    1  LIG1        0.0769
     15 O          -3.5580   -0.7080    0.0000 O.2     1  LIG1       -0.1516
     16 O          -3.9790    1.2710    0.0000 O.2     1  LIG1       -0.1516
     17 N          -4.7460    0.0790    0.0000 N.3     1  LIG1       -0.0750
     18 C          -5.0750   -0.8750    0.0000 C.3     1  LIG1        0.1509
     19 C          -6.0330   -1.1040    0.0000 C.3     1  LIG1        0.2028
     20 O          -6.3250   -2.0330    0.0000 O.3     1  LIG1       -0.2187
     21 C          -2.0750   -0.2170    0.0000 C.ar    1  LIG1        0.0231
     22 O          -0.2580   -1.5710    0.0000 O.2     1  LIG1       -0.2866
     23 O           3.0460   -0.4130    0.0000 O.2     1  LIG1       -0.1516
     24 O           3.2540    1.6040    0.0000 O.2     1  LIG1       -0.1516
     25 N           4.1420    0.5170    0.0000 N.3     1  LIG1       -0.0750
     26 C           4.7420    1.3130    0.0000 C.3     1  LIG1        0.1509
     27 C           5.7290    1.2080    0.0000 C.3     1  LIG1        0.2028
     28 O           6.3250    2.0380    0.0000 O.3     1  LIG1       -0.2187
@<TRIPOS>BOND
     1     1     2    1
     2     1    23    2
     3     1    24    2
     4     1    25    1
     5     2     3   ar
     6     2    10   ar
     7     3     4   ar
     8     4     5    1
     9     4     8   ar
    10     5     6    1
    11     5    22    2
    12     6     7   ar
    13     6    21   ar
    14     7     8    1
    15     7    11   ar
    16     8     9   ar
    17     9    10   ar
    18    11    12   ar
    19    12    13   ar
    20    13    14    1
    21    13    21   ar
    22    14    15    2
    23    14    16    2
    24    14    17    1
    25    17    18    1
    26    18    19    1
    27    19    20    1
    28    25    26    1
    29    26    27    1
    30    27    28    1
