@<TRIPOS>MOLECULE
26504_ChemDiv_1509-0151
 32 36 0 0 0
SMALL
GASTEIGER
Energy = 0

@<TRIPOS>ATOM
      1 S           3.4710    0.5880    0.0000 S.O2    1  LIG1        0.0633
      2 C           2.4250    0.5880    0.0000 C.ar    1  LIG1        0.1223
      3 C           1.7630   -0.1790    0.0000 C.ar    1  LIG1        0.0231
      4 C           0.7790   -0.0080    0.0000 C.ar    1  LIG1        0.0403
      5 C          -0.0210   -0.5960    0.0000 C.2     1  LIG1        0.1956
      6 C          -0.8210   -0.0750    0.0000 C.ar    1  LIG1        0.0403
      7 C          -0.5170    0.8710    0.0000 C.ar    1  LIG1        0.0033
      8 C           0.5130    0.8710    0.0000 C.ar    1  LIG1        0.0033
      9 C           1.1710    1.6790    0.0000 C.ar    1  LIG1        0.0015
     10 C           2.1130    1.4330    0.0000 C.ar    1  LIG1        0.0199
     11 C          -1.2080    1.6080    0.0000 C.ar    1  LIG1        0.0015
     12 C          -2.1500    1.4000    0.0000 C.ar    1  LIG1        0.0199
     13 C          -2.5000    0.4830    0.0000 C.ar    1  LIG1        0.1223
     14 S          -3.4830    0.3880    0.0000 S.O2    1  LIG1        0.0633
     15 N          -4.4670    0.3170    0.0000 N.3     1  LIG1       -0.1555
     16 C          -4.8830   -0.5670    0.0000 C.3     1  LIG1        0.0958
     17 C          -5.8880   -0.6580    0.0000 C.3     1  LIG1        0.0192
     18 C          -6.4630    0.1540    0.0000 C.3     1  LIG1        0.0030
     19 C          -6.0330    1.0380    0.0000 C.3     1  LIG1        0.0192
     20 C          -5.0670    1.1250    0.0000 C.3     1  LIG1        0.0958
     21 O          -3.3670   -0.6710    0.0000 O.2     1  LIG1       -0.1528
     22 O          -3.6290    1.4000    0.0000 O.2     1  LIG1       -0.1528
     23 C          -1.7670   -0.2920    0.0000 C.ar    1  LIG1        0.0231
     24 O           0.0540   -1.6750    0.0000 O.2     1  LIG1       -0.2866
     25 N           4.4540    0.5000    0.0000 N.3     1  LIG1       -0.1555
     26 C           4.9000   -0.4130    0.0000 C.3     1  LIG1        0.0958
     27 C           5.9000   -0.5000    0.0000 C.3     1  LIG1        0.0192
     28 C           6.4630    0.3170    0.0000 C.3     1  LIG1        0.0030
     29 C           6.0500    1.2170    0.0000 C.3     1  LIG1        0.0192
     30 C           5.0380    1.3000    0.0000 C.3     1  LIG1        0.0958
     31 O           3.4710   -0.3830    0.0000 O.2     1  LIG1       -0.1528
     32 O           3.4710    1.6790    0.0000 O.2     1  LIG1       -0.1528
@<TRIPOS>BOND
     1     1     2    1
     2     1    25    1
     3     1    31    2
     4     1    32    2
     5     2     3   ar
     6     2    10   ar
     7     3     4   ar
     8     4     5    1
     9     4     8   ar
    10     5     6    1
    11     5    24    2
    12     6     7   ar
    13     6    23   ar
    14     7     8    1
    15     7    11   ar
    16     8     9   ar
    17     9    10   ar
    18    11    12   ar
    19    12    13   ar
    20    13    14    1
    21    13    23   ar
    22    14    15    1
    23    14    21    2
    24    14    22    2
    25    15    16    1
    26    15    20    1
    27    16    17    1
    28    17    18    1
    29    18    19    1
    30    19    20    1
    31    25    26    1
    32    25    30    1
    33    26    27    1
    34    27    28    1
    35    28    29    1
    36    29    30    1
