@<TRIPOS>MOLECULE
26506_ChemDiv_2248-6909
 22 24 0 0 0
SMALL
GASTEIGER
Energy = 0

@<TRIPOS>ATOM
      1 S          -3.3880   -0.4540    0.0000 S.O2    1  LIG1        0.0935
      2 C          -2.5250    0.0210    0.0000 C.ar    1  LIG1        0.1251
      3 C          -1.6960   -0.4380    0.0000 C.ar    1  LIG1        0.0232
      4 C          -0.8540    0.0210    0.0000 C.ar    1  LIG1        0.0403
      5 C          -0.0170   -0.4380    0.0000 C.2     1  LIG1        0.1956
      6 C           0.8250    0.0210    0.0000 C.ar    1  LIG1        0.0403
      7 C           0.8250    0.9710    0.0000 C.ar    1  LIG1        0.0033
      8 C          -0.8540    0.9710    0.0000 C.ar    1  LIG1        0.0033
      9 C          -1.6960    1.4460    0.0000 C.ar    1  LIG1        0.0015
     10 C          -2.5250    0.9710    0.0000 C.ar    1  LIG1        0.0200
     11 C           1.6420    1.4460    0.0000 C.ar    1  LIG1        0.0015
     12 C           2.4830    0.9710    0.0000 C.ar    1  LIG1        0.0200
     13 C           2.4830    0.0210    0.0000 C.ar    1  LIG1        0.1251
     14 S           3.3500   -0.4540    0.0000 S.O2    1  LIG1        0.0935
     15 O           3.7830    0.3790    0.0000 O.2     1  LIG1       -0.1503
     16 O           4.2880   -0.9380    0.0000 O.2     1  LIG1       -0.1503
     17 N           2.8670   -1.3380    0.0000 N.3     1  LIG1        0.0392
     18 C           1.6420   -0.4380    0.0000 C.ar    1  LIG1        0.0232
     19 O          -0.0170   -1.4420    0.0000 O.2     1  LIG1       -0.2866
     20 O          -4.2920   -1.0130    0.0000 O.2     1  LIG1       -0.1503
     21 O          -2.8830   -1.2670    0.0000 O.2     1  LIG1       -0.1503
     22 N          -3.8960    0.3920    0.0000 N.3     1  LIG1        0.0392
@<TRIPOS>BOND
     1     1     2    1
     2     1    20    2
     3     1    21    2
     4     1    22    1
     5     2     3   ar
     6     2    10   ar
     7     3     4   ar
     8     4     5    1
     9     4     8   ar
    10     5     6    1
    11     5    19    2
    12     6     7   ar
    13     6    18   ar
    14     7     8    1
    15     7    11   ar
    16     8     9   ar
    17     9    10   ar
    18    11    12   ar
    19    12    13   ar
    20    13    14    1
    21    13    18   ar
    22    14    15    2
    23    14    16    2
    24    14    17    1
