@<TRIPOS>MOLECULE
26509_ChemDiv_1187-0166
 25 28 0 0 0
SMALL
GASTEIGER
Energy = 0

@<TRIPOS>ATOM
      1 C           0.0790   -0.3460    0.0000 C.ar    1  LIG1        0.1561
      2 N           0.9290   -0.8630    0.0000 N.ar    1  LIG1       -0.2645
      3 C           0.9290   -1.9000    0.0000 C.ar    1  LIG1        0.1870
      4 N           1.8080   -2.3880    0.0000 N.ar    1  LIG1       -0.2200
      5 C           2.6830   -1.9000    0.0000 C.ar    1  LIG1        0.1031
      6 C           2.6830   -0.8630    0.0000 C.ar    1  LIG1        0.0455
      7 C           1.8080   -0.3750    0.0000 C.ar    1  LIG1        0.1046
      8 S           1.8080    0.6630    0.0000 S.2     1  LIG1       -0.0314
      9 S           0.2630   -2.4290    0.0000 S.2     1  LIG1       -0.0106
     10 N           0.0540    0.6290    0.0000 N.ar    1  LIG1       -0.2209
     11 C          -0.9460    0.9080    0.0000 C.ar    1  LIG1        0.1124
     12 S          -1.4880    0.0580    0.0000 S.2     1  LIG1       -0.0649
     13 C          -0.8170   -0.7210    0.0000 C.ar    1  LIG1        0.0653
     14 C          -1.0000   -1.6960    0.0000 C.ar    1  LIG1        0.0090
     15 C          -0.2460   -2.3290    0.0000 C.ar    1  LIG1        0.0006
     16 C          -0.4380   -3.3380    0.0000 C.ar    1  LIG1        0.0000
     17 C          -1.3670   -3.6670    0.0000 C.ar    1  LIG1        0.0000
     18 C          -2.1380   -3.0000    0.0000 C.ar    1  LIG1        0.0000
     19 C          -1.9380   -2.0040    0.0000 C.ar    1  LIG1        0.0006
     20 C          -1.3250    1.8250    0.0000 C.ar    1  LIG1        0.0239
     21 C          -0.7000    2.6040    0.0000 C.ar    1  LIG1        0.0020
     22 C          -1.0880    3.5250    0.0000 C.ar    1  LIG1        0.0001
     23 C          -2.0630    3.6710    0.0000 C.ar    1  LIG1        0.0000
     24 C          -2.6880    2.8830    0.0000 C.ar    1  LIG1        0.0001
     25 C          -2.3000    1.9330    0.0000 C.ar    1  LIG1        0.0020
@<TRIPOS>BOND
     1     1     2    1
     2     1    10   ar
     3     1    13   ar
     4     2     3   ar
     5     2     7   ar
     6     3     4   ar
     7     3     9    2
     8     4     5   ar
     9     5     6   ar
    10     6     7   ar
    11     7     8    2
    12    10    11   ar
    13    11    12   ar
    14    11    20    1
    15    12    13   ar
    16    13    14    1
    17    14    15   ar
    18    14    19   ar
    19    15    16   ar
    20    16    17   ar
    21    17    18   ar
    22    18    19   ar
    23    20    21   ar
    24    20    25   ar
    25    21    22   ar
    26    22    23   ar
    27    23    24   ar
    28    24    25   ar
