@<TRIPOS>MOLECULE
26507_ChemDiv_1187-0161
 26 29 0 0 0
SMALL
GASTEIGER
Energy = 0

@<TRIPOS>ATOM
      1 C          -0.7420   -0.1460    0.0000 C.ar    1  LIG1        0.1577
      2 N          -0.7670    0.8540    0.0000 N.ar    1  LIG1       -0.2414
      3 C          -1.6210    1.3790    0.0000 C.ar    1  LIG1        0.3556
      4 N          -1.6210    2.3540    0.0000 N.ar    1  LIG1       -0.1856
      5 C          -0.7670    2.8670    0.0000 C.ar    1  LIG1        0.1129
      6 C           0.0920    2.3790    0.0000 C.ar    1  LIG1        0.0448
      7 C           0.0920    1.3790    0.0000 C.ar    1  LIG1        0.0879
      8 S          -0.7420    3.8790    0.0000 S.3     1  LIG1       -0.0938
      9 C          -1.5880    4.3880    0.0000 C.3     1  LIG1        0.0757
     10 O          -2.5330    0.8540    0.0000 O.2     1  LIG1       -0.2440
     11 N          -1.4670   -0.8250    0.0000 N.ar    1  LIG1       -0.2208
     12 C          -1.0710   -1.7080    0.0000 C.ar    1  LIG1        0.1124
     13 S          -0.0960   -1.6420    0.0000 S.2     1  LIG1       -0.0649
     14 C           0.1170   -0.6710    0.0000 C.ar    1  LIG1        0.0654
     15 C           1.0630   -0.2960    0.0000 C.ar    1  LIG1        0.0090
     16 C           1.8500   -0.9080    0.0000 C.ar    1  LIG1        0.0006
     17 C           2.7630   -0.5460    0.0000 C.ar    1  LIG1        0.0000
     18 C           2.9540    0.4670    0.0000 C.ar    1  LIG1        0.0000
     19 C           2.1540    1.0750    0.0000 C.ar    1  LIG1        0.0000
     20 C           1.2130    0.7000    0.0000 C.ar    1  LIG1        0.0006
     21 C          -1.5040   -2.6210    0.0000 C.ar    1  LIG1        0.0239
     22 C          -0.9500   -3.4420    0.0000 C.ar    1  LIG1        0.0020
     23 C          -1.4080   -4.3290    0.0000 C.ar    1  LIG1        0.0001
     24 C          -2.4210   -4.3880    0.0000 C.ar    1  LIG1        0.0000
     25 C          -2.9580   -3.5670    0.0000 C.ar    1  LIG1        0.0001
     26 C          -2.5000   -2.6790    0.0000 C.ar    1  LIG1        0.0020
@<TRIPOS>BOND
     1     1     2    1
     2     1    11   ar
     3     1    14   ar
     4     2     3   ar
     5     2     7   ar
     6     3     4   ar
     7     3    10    2
     8     4     5   ar
     9     5     6   ar
    10     5     8    1
    11     6     7   ar
    12     8     9    1
    13    11    12   ar
    14    12    13   ar
    15    12    21    1
    16    13    14   ar
    17    14    15    1
    18    15    16   ar
    19    15    20   ar
    20    16    17   ar
    21    17    18   ar
    22    18    19   ar
    23    19    20   ar
    24    21    22   ar
    25    21    26   ar
    26    22    23   ar
    27    23    24   ar
    28    24    25   ar
    29    25    26   ar
