@<TRIPOS>MOLECULE
26500_ChemDiv_1509-0076
 31 33 0 0 0
SMALL
GASTEIGER
Energy = 0

@<TRIPOS>ATOM
      1 S           3.1040   -0.0670    0.0000 S.O2    1  LIG1        0.0768
      2 C           2.1290    0.1290    0.0000 C.ar    1  LIG1        0.1232
      3 C           1.4500   -0.6000    0.0000 C.ar    1  LIG1        0.0160
      4 C           0.4580   -0.4130    0.0000 C.ar    1  LIG1       -0.0165
      5 C           0.1960    0.5380    0.0000 C.ar    1  LIG1       -0.0039
      6 C          -0.8080    0.5380    0.0000 C.ar    1  LIG1       -0.0039
      7 C          -1.1330   -0.4130    0.0000 C.ar    1  LIG1       -0.0165
      8 C          -0.3540   -0.9880    0.0000 C.3     1  LIG1        0.0527
      9 C          -2.1130   -0.6000    0.0000 C.ar    1  LIG1        0.0160
     10 C          -2.7540    0.1290    0.0000 C.ar    1  LIG1        0.1232
     11 S          -3.7580   -0.0670    0.0000 S.O2    1  LIG1        0.0768
     12 O          -3.9380    0.9130    0.0000 O.2     1  LIG1       -0.1516
     13 O          -3.5710   -1.1080    0.0000 O.2     1  LIG1       -0.1516
     14 N          -4.7500   -0.2540    0.0000 N.3     1  LIG1       -0.0778
     15 C          -5.4210    0.4830    0.0000 C.3     1  LIG1        0.1155
     16 C          -5.0960    1.4540    0.0000 C.3     1  LIG1        0.0208
     17 C          -5.7670    2.1920    0.0000 C.3     1  LIG1        0.0015
     18 C          -5.4420    3.1630    0.0000 C.3     1  LIG1        0.0000
     19 C          -6.7580    1.9830    0.0000 C.3     1  LIG1        0.0000
     20 C          -2.4580    1.0250    0.0000 C.ar    1  LIG1        0.0199
     21 C          -1.4960    1.2500    0.0000 C.ar    1  LIG1        0.0011
     22 C           0.8460    1.2500    0.0000 C.ar    1  LIG1        0.0011
     23 C           1.7960    1.0250    0.0000 C.ar    1  LIG1        0.0199
     24 O           3.3080    0.9130    0.0000 O.2     1  LIG1       -0.1516
     25 O           2.9330   -1.1080    0.0000 O.2     1  LIG1       -0.1516
     26 N           4.1000   -0.2540    0.0000 N.3     1  LIG1       -0.0778
     27 C           4.4250   -1.2250    0.0000 C.3     1  LIG1        0.1155
     28 C           5.4380   -1.4380    0.0000 C.3     1  LIG1        0.0208
     29 C           5.7920   -2.3670    0.0000 C.3     1  LIG1        0.0015
     30 C           5.1790   -3.1580    0.0000 C.3     1  LIG1        0.0000
     31 C           6.7580   -2.5290    0.0000 C.3     1  LIG1        0.0000
@<TRIPOS>BOND
     1     1     2    1
     2     1    24    2
     3     1    25    2
     4     1    26    1
     5     2     3   ar
     6     2    23   ar
     7     3     4   ar
     8     4     5   ar
     9     4     8    1
    10     5     6    1
    11     5    22   ar
    12     6     7   ar
    13     6    21   ar
    14     7     8    1
    15     7     9   ar
    16     9    10   ar
    17    10    11    1
    18    10    20   ar
    19    11    12    2
    20    11    13    2
    21    11    14    1
    22    14    15    1
    23    15    16    1
    24    16    17    1
    25    17    18    1
    26    17    19    1
    27    20    21   ar
    28    22    23   ar
    29    26    27    1
    30    27    28    1
    31    28    29    1
    32    29    30    1
    33    29    31    1
