@<TRIPOS>MOLECULE
26517_ChemDiv_1319-0139
 19 21 0 0 0
SMALL
GASTEIGER
Energy = 0

@<TRIPOS>ATOM
      1 C           0.4250    0.4250    0.0000 C.ar    1  LIG1        0.0943
      2 C           0.4250   -0.5630    0.0000 C.ar    1  LIG1        0.3472
      3 O          -0.4500   -1.0790    0.0000 O.2     1  LIG1       -0.4201
      4 C          -1.3040   -0.5630    0.0000 C.ar    1  LIG1        0.1592
      5 C          -1.3040    0.4250    0.0000 C.ar    1  LIG1        0.0366
      6 C          -0.4500    0.9250    0.0000 C.ar    1  LIG1        0.0111
      7 C          -2.1750    0.9250    0.0000 C.ar    1  LIG1        0.0145
      8 C          -3.0420    0.4250    0.0000 C.ar    1  LIG1        0.0587
      9 C          -3.0420   -0.5630    0.0000 C.ar    1  LIG1        0.0259
     10 C          -2.1750   -1.0790    0.0000 C.ar    1  LIG1        0.0930
     11 CL         -2.1750   -2.0710    0.0000 Cl      1  LIG1       -0.0790
     12 CL         -3.8960    0.9380    0.0000 Cl      1  LIG1       -0.0822
     13 O           1.3000   -1.0920    0.0000 O.2     1  LIG1       -0.2444
     14 C           1.3000    0.9250    0.0000 C.ar    1  LIG1        0.0961
     15 N           2.1790    0.4920    0.0000 N.ar    1  LIG1       -0.2212
     16 C           2.8830    1.1920    0.0000 C.ar    1  LIG1        0.2006
     17 S           2.4210    2.0750    0.0000 S.2     1  LIG1       -0.0479
     18 C           1.4250    1.9080    0.0000 C.ar    1  LIG1        0.0575
     19 N           3.8920    1.1080    0.0000 N.pl3   1  LIG1       -0.0998
@<TRIPOS>BOND
     1     1     2   ar
     2     1     6   ar
     3     1    14    1
     4     2     3   ar
     5     2    13    2
     6     3     4   ar
     7     4     5   ar
     8     4    10   ar
     9     5     6   ar
    10     5     7   ar
    11     7     8   ar
    12     8     9   ar
    13     8    12    1
    14     9    10   ar
    15    10    11    1
    16    14    15   ar
    17    14    18   ar
    18    15    16   ar
    19    16    17   ar
    20    16    19    1
    21    17    18   ar
