@<TRIPOS>MOLECULE
26511_ChemDiv_1187-1061
 18 19 0 0 0
SMALL
GASTEIGER
Energy = 0

@<TRIPOS>ATOM
      1 C          -0.1830   -0.8380    0.0000 C.ar    1  LIG1        0.2427
      2 S          -0.8670   -0.2750    0.0000 S.O2    1  LIG1        0.0482
      3 O          -1.8380   -0.2750    0.0000 O.2     1  LIG1       -0.1627
      4 O           0.0790   -0.0500    0.0000 O.2     1  LIG1       -0.1627
      5 C          -0.8670    0.7420    0.0000 C.ar    1  LIG1        0.1121
      6 C           0.0000    1.2380    0.0000 C.ar    1  LIG1        0.0188
      7 C           0.0000    2.2420    0.0000 C.ar    1  LIG1        0.0013
      8 C          -0.8670    2.7380    0.0000 C.ar    1  LIG1        0.0001
      9 C          -1.7290    2.2420    0.0000 C.ar    1  LIG1        0.0013
     10 C          -1.7290    1.2380    0.0000 C.ar    1  LIG1        0.0188
     11 C          -0.5130   -1.8460    0.0000 C.ar    1  LIG1        0.2365
     12 O           0.3630   -2.4330    0.0000 O.2     1  LIG1       -0.4234
     13 C           1.1630   -1.7540    0.0000 C.ar    1  LIG1        0.2091
     14 N           0.8250   -0.8290    0.0000 N.ar    1  LIG1       -0.1921
     15 C           2.3250   -1.7790    0.0000 C.3     1  LIG1        0.0951
     16 N          -1.4540   -1.8960    0.0000 N.pl3   1  LIG1       -0.2736
     17 C          -2.3290   -1.3920    0.0000 C.3     1  LIG1        0.1152
     18 C          -1.7380   -2.7330    0.0000 C.3     1  LIG1        0.1152
@<TRIPOS>BOND
     1     1     2    1
     2     1    11   ar
     3     1    14   ar
     4     2     3    2
     5     2     4    2
     6     2     5    1
     7     5     6   ar
     8     5    10   ar
     9     6     7   ar
    10     7     8   ar
    11     8     9   ar
    12     9    10   ar
    13    11    12   ar
    14    11    16    1
    15    12    13   ar
    16    13    14   ar
    17    13    15    1
    18    16    17    1
    19    16    18    1
