@<TRIPOS>MOLECULE
26512_ChemDiv_4345-0006
 33 35 0 0 0
SMALL
GASTEIGER
Energy = 0

@<TRIPOS>ATOM
      1 S          -4.1080    0.6880    0.0000 S.O2    1  LIG1        0.0768
      2 C          -3.1540    0.8960    0.0000 C.ar    1  LIG1        0.1232
      3 C          -2.4790    0.1210    0.0000 C.ar    1  LIG1        0.0160
      4 C          -1.4880    0.3540    0.0000 C.ar    1  LIG1       -0.0165
      5 C          -1.1710    1.3670    0.0000 C.ar    1  LIG1       -0.0039
      6 C          -0.1710    1.3670    0.0000 C.ar    1  LIG1       -0.0039
      7 C           0.1670    0.4080    0.0000 C.ar    1  LIG1       -0.0165
      8 C          -0.6420   -0.1420    0.0000 C.3     1  LIG1        0.0527
      9 C           1.1880    0.2500    0.0000 C.ar    1  LIG1        0.0160
     10 C           1.8330    0.9750    0.0000 C.ar    1  LIG1        0.1232
     11 S           2.8170    0.7210    0.0000 S.O2    1  LIG1        0.0768
     12 O           3.0710    1.6880    0.0000 O.2     1  LIG1       -0.1516
     13 O           2.5750   -0.2710    0.0000 O.2     1  LIG1       -0.1516
     14 N           3.7750    0.4540    0.0000 N.3     1  LIG1       -0.0776
     15 C           4.4540    1.1380    0.0000 C.3     1  LIG1        0.1216
     16 C           5.4250    0.8960    0.0000 C.3     1  LIG1        0.0835
     17 C           6.1210    1.6040    0.0000 C.3     1  LIG1        0.1407
     18 N           5.8670    2.5460    0.0000 N.4     1  LIG1        0.3867
     19 C           6.5750    3.2580    0.0000 C.3     1  LIG1        0.2025
     20 C           4.9130    2.7420    0.0000 C.3     1  LIG1        0.2025
     21 C           1.4960    1.9750    0.0000 C.ar    1  LIG1        0.0199
     22 C           0.4540    2.1580    0.0000 C.ar    1  LIG1        0.0011
     23 C          -1.8790    2.0540    0.0000 C.ar    1  LIG1        0.0011
     24 C          -2.8710    1.8460    0.0000 C.ar    1  LIG1        0.0199
     25 O          -4.3040    1.6630    0.0000 O.2     1  LIG1       -0.1516
     26 O          -3.9130   -0.2710    0.0000 O.2     1  LIG1       -0.1516
     27 N          -5.0460    0.5040    0.0000 N.3     1  LIG1       -0.0776
     28 C          -5.3290   -0.4290    0.0000 C.3     1  LIG1        0.1216
     29 C          -6.2880   -0.6130    0.0000 C.3     1  LIG1        0.0835
     30 C          -6.5750   -1.5540    0.0000 C.3     1  LIG1        0.1407
     31 N          -5.8960   -2.2790    0.0000 N.4     1  LIG1        0.3867
     32 C          -6.1790   -3.2540    0.0000 C.3     1  LIG1        0.2025
     33 C          -4.9380   -2.0040    0.0000 C.3     1  LIG1        0.2025
@<TRIPOS>BOND
     1     1     2    1
     2     1    25    2
     3     1    26    2
     4     1    27    1
     5     2     3   ar
     6     2    24   ar
     7     3     4   ar
     8     4     5   ar
     9     4     8    1
    10     5     6    1
    11     5    23   ar
    12     6     7   ar
    13     6    22   ar
    14     7     8    1
    15     7     9   ar
    16     9    10   ar
    17    10    11    1
    18    10    21   ar
    19    11    12    2
    20    11    13    2
    21    11    14    1
    22    14    15    1
    23    15    16    1
    24    16    17    1
    25    17    18    1
    26    18    19    1
    27    18    20    1
    28    21    22   ar
    29    23    24   ar
    30    27    28    1
    31    28    29    1
    32    29    30    1
    33    30    31    1
    34    31    32    1
    35    31    33    1
