@<TRIPOS>MOLECULE
26513_ChemDiv_1239-0008
 15 16 0 0 0
SMALL
GASTEIGER
Energy = 0

@<TRIPOS>ATOM
      1 C          -0.4420   -0.7420    0.0000 C.ar    1  LIG1        0.1181
      2 C          -0.4420    0.2790    0.0000 C.ar    1  LIG1        0.1336
      3 N           0.4290    0.7790    0.0000 N.ar    1  LIG1       -0.2438
      4 C           1.2880    0.2790    0.0000 C.ar    1  LIG1        0.0730
      5 C           1.2880   -0.7330    0.0000 C.ar    1  LIG1        0.0729
      6 N           0.4290   -1.2210    0.0000 N.ar    1  LIG1       -0.2455
      7 C           2.1540   -1.2380    0.0000 C.3     1  LIG1        0.0534
      8 C           2.1540    0.7830    0.0000 C.3     1  LIG1        0.0534
      9 C          -1.3000    0.7830    0.0000 C.ar    1  LIG1        0.1577
     10 C          -2.1580    0.2790    0.0000 C.ar    1  LIG1        0.0399
     11 C          -2.1580   -0.7420    0.0000 C.ar    1  LIG1        0.0228
     12 C          -1.3000   -1.2210    0.0000 C.ar    1  LIG1        0.1083
     13 N          -1.3000   -2.2500    0.0000 N.pl3   1  LIG1       -0.1264
     14 O          -1.3000    1.7750    0.0000 O.3     1  LIG1       -0.4699
     15 C          -2.1580    2.2540    0.0000 C.3     1  LIG1        0.2525
@<TRIPOS>BOND
     1     1     2   ar
     2     1     6   ar
     3     1    12   ar
     4     2     3   ar
     5     2     9   ar
     6     3     4   ar
     7     4     5   ar
     8     4     8    1
     9     5     6   ar
    10     5     7    1
    11     9    10   ar
    12     9    14    1
    13    10    11   ar
    14    11    12   ar
    15    12    13    1
    16    14    15    1
