@<TRIPOS>MOLECULE
26526_ChemDiv_8009-9345
 28 31 0 0 0
SMALL
GASTEIGER
Energy = 0

@<TRIPOS>ATOM
      1 C          -0.6210   -0.3250    0.0000 C.ar    1  LIG1        0.0919
      2 C          -0.6210   -1.2920    0.0000 C.ar    1  LIG1        0.1164
      3 N          -1.4580   -1.8130    0.0000 N.ar    1  LIG1       -0.2380
      4 C          -2.3250   -1.3380    0.0000 C.ar    1  LIG1        0.0878
      5 C          -2.3130   -0.3250    0.0000 C.ar    1  LIG1        0.0204
      6 C          -1.5040    0.1830    0.0000 C.ar    1  LIG1        0.0131
      7 C          -1.5040    1.1540    0.0000 C.ar    1  LIG1        0.0008
      8 C          -2.3750    1.6210    0.0000 C.ar    1  LIG1        0.0000
      9 C          -2.3960    2.5830    0.0000 C.ar    1  LIG1        0.0000
     10 C          -1.6250    3.1540    0.0000 C.ar    1  LIG1        0.0000
     11 C          -0.6830    2.7210    0.0000 C.ar    1  LIG1        0.0000
     12 C          -0.7000    1.7250    0.0000 C.ar    1  LIG1        0.0000
     13 C          -3.1290   -1.8880    0.0000 C.ar    1  LIG1        0.0471
     14 S          -3.1460   -2.8880    0.0000 S.2     1  LIG1       -0.0849
     15 C          -4.0960   -3.1500    0.0000 C.ar    1  LIG1        0.0355
     16 C          -4.6830   -2.3380    0.0000 C.ar    1  LIG1        0.0075
     17 C          -4.0500   -1.5500    0.0000 C.ar    1  LIG1        0.0085
     18 S           0.2710   -1.8460    0.0000 S.3     1  LIG1       -0.0880
     19 C           1.1580   -1.2920    0.0000 C.3     1  LIG1        0.1261
     20 C           2.0540   -1.8000    0.0000 C.3     1  LIG1        0.1510
     21 N           2.9250   -1.3080    0.0000 N.4     1  LIG1        0.3819
     22 C           2.9250   -0.3250    0.0000 C.3     1  LIG1        0.1713
     23 C           3.7540    0.1960    0.0000 C.3     1  LIG1        0.2047
     24 O           4.6790   -0.2290    0.0000 O.3     1  LIG1       -0.3411
     25 C           4.6580   -1.2920    0.0000 C.3     1  LIG1        0.2047
     26 C           3.8170   -1.7830    0.0000 C.3     1  LIG1        0.1713
     27 C           0.2710    0.2250    0.0000 C.1     1  LIG1        0.1024
     28 N           1.1580    0.7250    0.0000 N.1     1  LIG1       -0.1908
@<TRIPOS>BOND
     1     1     2   ar
     2     1     6   ar
     3     1    27    1
     4     2     3   ar
     5     2    18    1
     6     3     4   ar
     7     4     5   ar
     8     4    13    1
     9     5     6   ar
    10     6     7    1
    11     7     8   ar
    12     7    12   ar
    13     8     9   ar
    14     9    10   ar
    15    10    11   ar
    16    11    12   ar
    17    13    14   ar
    18    13    17   ar
    19    14    15   ar
    20    15    16   ar
    21    16    17   ar
    22    18    19    1
    23    19    20    1
    24    20    21    1
    25    21    22    1
    26    21    26    1
    27    22    23    1
    28    23    24    1
    29    24    25    1
    30    25    26    1
    31    27    28    3
