@<TRIPOS>MOLECULE
26528_ChemDiv_8013-1406
 30 32 0 0 0
SMALL
GASTEIGER
Energy = 0

@<TRIPOS>ATOM
      1 C           1.9290    0.8750    0.0000 C.ar    1  LIG1        0.1182
      2 C           1.5000   -0.0170    0.0000 C.ar    1  LIG1        0.0926
      3 C           2.0750   -0.8580    0.0000 C.ar    1  LIG1        0.0241
      4 C           3.0630   -0.7500    0.0000 C.ar    1  LIG1        0.1038
      5 C           3.5040    0.1580    0.0000 C.ar    1  LIG1        0.1798
      6 N           2.9290    0.9670    0.0000 N.ar    1  LIG1       -0.2199
      7 N           4.4920    0.2500    0.0000 N.pl3   1  LIG1       -0.1065
      8 C           3.6500   -1.5920    0.0000 C.1     1  LIG1        0.1034
      9 N           4.2080   -2.4000    0.0000 N.1     1  LIG1       -0.1907
     10 C           1.6460   -1.7500    0.0000 C.ar    1  LIG1        0.0015
     11 C           2.2210   -2.5750    0.0000 C.ar    1  LIG1        0.0000
     12 C           1.7960   -3.4830    0.0000 C.ar    1  LIG1        0.0000
     13 C           0.7960   -3.5630    0.0000 C.ar    1  LIG1        0.0000
     14 C           0.2380   -2.7500    0.0000 C.ar    1  LIG1        0.0000
     15 C           0.6500   -1.8420    0.0000 C.ar    1  LIG1        0.0000
     16 C           0.5170   -0.1080    0.0000 C.1     1  LIG1        0.1025
     17 N          -0.4830   -0.1920    0.0000 N.1     1  LIG1       -0.1908
     18 S           1.3580    1.7000    0.0000 S.3     1  LIG1       -0.0858
     19 C           0.3750    1.6210    0.0000 C.3     1  LIG1        0.1315
     20 C          -0.6250    1.6210    0.0000 C.2     1  LIG1        0.2570
     21 N          -1.1330    2.4830    0.0000 N.am    1  LIG1       -0.1565
     22 C          -2.1290    2.4830    0.0000 C.ar    1  LIG1        0.1958
     23 N          -2.7330    1.6750    0.0000 N.ar    1  LIG1       -0.0604
     24 O          -3.6790    1.9790    0.0000 O.2     1  LIG1       -0.3565
     25 C          -3.6790    2.9790    0.0000 C.ar    1  LIG1        0.1563
     26 C          -2.7330    3.3000    0.0000 C.ar    1  LIG1        0.0751
     27 C          -4.4960    3.5670    0.0000 C.3     1  LIG1        0.0754
     28 O          -1.1330    0.7540    0.0000 O.2     1  LIG1       -0.2720
     29 C           0.8500    2.4830    0.0000 C.3     1  LIG1        0.0205
     30 C           0.3580    3.3670    0.0000 C.3     1  LIG1        0.0014
@<TRIPOS>BOND
     1     1     2   ar
     2     1     6   ar
     3     1    18    1
     4     2     3   ar
     5     2    16    1
     6     3     4   ar
     7     3    10    1
     8     4     5   ar
     9     4     8    1
    10     5     6   ar
    11     5     7    1
    12     8     9    3
    13    10    11   ar
    14    10    15   ar
    15    11    12   ar
    16    12    13   ar
    17    13    14   ar
    18    14    15   ar
    19    16    17    3
    20    18    19    1
    21    19    20    1
    22    19    29    1
    23    20    21   am
    24    20    28    2
    25    21    22    1
    26    22    23   ar
    27    22    26   ar
    28    23    24   ar
    29    24    25   ar
    30    25    26   ar
    31    25    27    1
    32    29    30    1
