@<TRIPOS>MOLECULE
26522_ChemDiv_8009-6847
 24 25 0 0 0
SMALL
GASTEIGER
Energy = 0

@<TRIPOS>ATOM
      1 C          -0.0500   -1.4170    0.0000 C.ar    1  LIG1        0.0926
      2 C          -0.0500   -2.4080    0.0000 C.ar    1  LIG1        0.1182
      3 N          -0.9040   -2.9080    0.0000 N.ar    1  LIG1       -0.2199
      4 C          -1.7630   -2.4080    0.0000 C.ar    1  LIG1        0.1798
      5 C          -1.7630   -1.4170    0.0000 C.ar    1  LIG1        0.1038
      6 C          -0.9040   -0.9210    0.0000 C.ar    1  LIG1        0.0241
      7 C          -0.9040    0.0500    0.0000 C.ar    1  LIG1        0.0017
      8 C          -1.7500    0.5420    0.0000 C.ar    1  LIG1        0.0032
      9 C          -1.7630    1.5170    0.0000 C.ar    1  LIG1        0.0369
     10 C          -0.9040    2.0130    0.0000 C.ar    1  LIG1        0.1387
     11 C          -0.0580    1.5380    0.0000 C.ar    1  LIG1        0.0369
     12 C          -0.0580    0.5500    0.0000 C.ar    1  LIG1        0.0032
     13 O          -0.9210    2.8670    0.0000 O.3     1  LIG1       -0.4714
     14 C           0.2790    3.0170    0.0000 C.3     1  LIG1        0.2525
     15 C          -2.6080   -0.9290    0.0000 C.1     1  LIG1        0.1034
     16 N          -3.4420   -0.4580    0.0000 N.1     1  LIG1       -0.1907
     17 N          -2.7210   -3.0130    0.0000 N.pl3   1  LIG1       -0.1065
     18 S           0.8880   -2.6920    0.0000 S.3     1  LIG1       -0.0843
     19 C           1.4540   -1.8710    0.0000 C.3     1  LIG1        0.1518
     20 C           2.5420   -2.0290    0.0000 C.2     1  LIG1        0.2721
     21 O           2.7960   -2.7790    0.0000 O.2     1  LIG1       -0.2707
     22 N           3.4380   -1.1830    0.0000 N.am    1  LIG1       -0.0870
     23 C           0.7960   -0.9210    0.0000 C.1     1  LIG1        0.1025
     24 N           1.6540   -0.4250    0.0000 N.1     1  LIG1       -0.1908
@<TRIPOS>BOND
     1     1     2   ar
     2     1     6   ar
     3     1    23    1
     4     2     3   ar
     5     2    18    1
     6     3     4   ar
     7     4     5   ar
     8     4    17    1
     9     5     6   ar
    10     5    15    1
    11     6     7    1
    12     7     8   ar
    13     7    12   ar
    14     8     9   ar
    15     9    10   ar
    16    10    11   ar
    17    10    13    1
    18    11    12   ar
    19    13    14    1
    20    15    16    3
    21    18    19    1
    22    19    20    1
    23    20    21    2
    24    20    22   am
    25    23    24    3
