@<TRIPOS>MOLECULE
26538_ChemDiv_8015-2426
 30 35 0 0 0
SMALL
GASTEIGER
Energy = 0

@<TRIPOS>ATOM
      1 S          -0.5000   -0.9750    0.0000 S.O2    1  LIG1       -0.0578
      2 N           0.3630   -1.4830    0.0000 N.pl3   1  LIG1       -0.5357
      3 C           1.2330   -0.9750    0.0000 C.ar    1  LIG1       -0.1091
      4 C           2.0960   -1.4830    0.0000 C.ar    1  LIG1        0.0164
      5 C           2.9630   -0.9750    0.0000 C.ar    1  LIG1        0.1741
      6 O           3.9130   -1.2880    0.0000 O.3     1  LIG1       -0.4456
      7 C           4.5000   -0.4790    0.0000 C.3     1  LIG1        0.2692
      8 O           3.9130    0.3290    0.0000 O.3     1  LIG1       -0.4456
      9 C           2.9630    0.0210    0.0000 C.ar    1  LIG1        0.1758
     10 C           2.0960    0.5210    0.0000 C.ar    1  LIG1        0.0383
     11 C           1.2330    0.0210    0.0000 C.ar    1  LIG1       -0.0205
     12 C           5.0920   -1.2880    0.0000 C.3     1  LIG1        0.0838
     13 C           6.0420   -0.9750    0.0000 C.3     1  LIG1        0.0078
     14 C           6.0420    0.0210    0.0000 C.3     1  LIG1        0.0078
     15 C           5.0920    0.3290    0.0000 C.3     1  LIG1        0.0838
     16 C          -1.3670   -0.4790    0.0000 C.ar    1  LIG1        0.0890
     17 C          -2.2380   -0.9750    0.0000 C.ar    1  LIG1        0.0130
     18 C          -3.1000   -0.4790    0.0000 C.ar    1  LIG1       -0.0166
     19 C          -3.1000    0.5210    0.0000 C.ar    1  LIG1       -0.0039
     20 C          -4.0500    0.8250    0.0000 C.ar    1  LIG1       -0.0039
     21 C          -4.6420    0.0210    0.0000 C.ar    1  LIG1       -0.0178
     22 C          -4.0500   -0.7920    0.0000 C.3     1  LIG1        0.0526
     23 C          -5.6330    0.1250    0.0000 C.ar    1  LIG1       -0.0039
     24 C          -6.0420    1.0380    0.0000 C.ar    1  LIG1       -0.0003
     25 C          -5.4500    1.8460    0.0000 C.ar    1  LIG1       -0.0000
     26 C          -4.4580    1.7420    0.0000 C.ar    1  LIG1       -0.0003
     27 C          -2.2380    1.0170    0.0000 C.ar    1  LIG1        0.0010
     28 C          -1.3670    0.5210    0.0000 C.ar    1  LIG1        0.0169
     29 O           0.0000   -0.1130    0.0000 O.2     1  LIG1       -0.1842
     30 O          -1.0040   -1.8420    0.0000 O.2     1  LIG1       -0.1842
@<TRIPOS>BOND
     1     1     2    1
     2     1    16    1
     3     1    29    2
     4     1    30    2
     5     2     3    1
     6     3     4   ar
     7     3    11   ar
     8     4     5   ar
     9     5     6    1
    10     5     9   ar
    11     6     7    1
    12     7     8    1
    13     7    12    1
    14     7    15    1
    15     8     9    1
    16     9    10   ar
    17    10    11   ar
    18    12    13    1
    19    13    14    1
    20    14    15    1
    21    16    17   ar
    22    16    28   ar
    23    17    18   ar
    24    18    19   ar
    25    18    22    1
    26    19    20    1
    27    19    27   ar
    28    20    21   ar
    29    20    26   ar
    30    21    22    1
    31    21    23   ar
    32    23    24   ar
    33    24    25   ar
    34    25    26   ar
    35    27    28   ar
