@<TRIPOS>MOLECULE
26536_ChemDiv_5267-1344
 30 32 0 0 0
SMALL
GASTEIGER
Energy = 0

@<TRIPOS>ATOM
      1 S          -3.4170    0.3380    0.0000 S.O2    1  LIG1        0.0634
      2 C          -2.4170    0.4960    0.0000 C.ar    1  LIG1        0.1223
      3 C          -1.7500   -0.2580    0.0000 C.ar    1  LIG1        0.0231
      4 C          -0.7630   -0.0330    0.0000 C.ar    1  LIG1        0.0403
      5 C           0.0130   -0.6330    0.0000 C.2     1  LIG1        0.1956
      6 C           0.8380   -0.0540    0.0000 C.ar    1  LIG1        0.0403
      7 C           0.5420    0.8830    0.0000 C.ar    1  LIG1        0.0033
      8 C          -0.4420    0.8830    0.0000 C.ar    1  LIG1        0.0033
      9 C          -1.1500    1.6210    0.0000 C.ar    1  LIG1        0.0015
     10 C          -2.1330    1.3880    0.0000 C.ar    1  LIG1        0.0199
     11 C           1.1920    1.6380    0.0000 C.ar    1  LIG1        0.0015
     12 C           2.2000    1.4250    0.0000 C.ar    1  LIG1        0.0199
     13 C           2.4960    0.4830    0.0000 C.ar    1  LIG1        0.1223
     14 S           3.4670    0.2880    0.0000 S.O2    1  LIG1        0.0634
     15 N           4.4290    0.0960    0.0000 N.3     1  LIG1       -0.1514
     16 C           4.7290   -0.8330    0.0000 C.3     1  LIG1        0.1313
     17 C           5.7250   -1.0460    0.0000 C.3     1  LIG1        0.2012
     18 O           6.4080   -0.3250    0.0000 O.3     1  LIG1       -0.2188
     19 C           5.1080    0.8540    0.0000 C.3     1  LIG1        0.1150
     20 O           3.2710   -0.7170    0.0000 O.2     1  LIG1       -0.1528
     21 O           3.7130    1.2540    0.0000 O.2     1  LIG1       -0.1528
     22 C           1.8250   -0.2750    0.0000 C.ar    1  LIG1        0.0231
     23 O           0.0130   -1.6330    0.0000 O.2     1  LIG1       -0.2866
     24 N          -4.4080    0.1670    0.0000 N.3     1  LIG1       -0.1514
     25 C          -4.7790   -0.7670    0.0000 C.3     1  LIG1        0.1313
     26 C          -5.7670   -0.9290    0.0000 C.3     1  LIG1        0.2012
     27 O          -6.4080   -0.1380    0.0000 O.3     1  LIG1       -0.2188
     28 C          -5.0210    0.9460    0.0000 C.3     1  LIG1        0.1150
     29 O          -3.2830   -0.6460    0.0000 O.2     1  LIG1       -0.1528
     30 O          -3.5750    1.3380    0.0000 O.2     1  LIG1       -0.1528
@<TRIPOS>BOND
     1     1     2    1
     2     1    24    1
     3     1    29    2
     4     1    30    2
     5     2     3   ar
     6     2    10   ar
     7     3     4   ar
     8     4     5    1
     9     4     8   ar
    10     5     6    1
    11     5    23    2
    12     6     7   ar
    13     6    22   ar
    14     7     8    1
    15     7    11   ar
    16     8     9   ar
    17     9    10   ar
    18    11    12   ar
    19    12    13   ar
    20    13    14    1
    21    13    22   ar
    22    14    15    1
    23    14    20    2
    24    14    21    2
    25    15    16    1
    26    15    19    1
    27    16    17    1
    28    17    18    1
    29    24    25    1
    30    24    28    1
    31    25    26    1
    32    26    27    1
