@<TRIPOS>MOLECULE
26544_ChemDiv_8017-4281
 29 32 0 0 0
SMALL
GASTEIGER
Energy = 0

@<TRIPOS>ATOM
      1 S           1.2790    2.3170    0.0000 S.O2    1  LIG1       -0.0578
      2 N           0.6960    3.1290    0.0000 N.pl3   1  LIG1       -0.5358
      3 C          -0.3080    3.0210    0.0000 C.ar    1  LIG1       -0.1126
      4 C          -0.7170    2.1040    0.0000 C.ar    1  LIG1       -0.0278
      5 C          -1.7080    2.0040    0.0000 C.ar    1  LIG1       -0.0196
      6 C          -2.2960    2.8170    0.0000 C.ar    1  LIG1       -0.0041
      7 C          -3.2540    2.5040    0.0000 C.ar    1  LIG1       -0.0039
      8 C          -3.2540    1.5040    0.0000 C.ar    1  LIG1       -0.0178
      9 C          -2.2960    1.1960    0.0000 C.3     1  LIG1        0.0525
     10 C          -4.1210    1.0080    0.0000 C.ar    1  LIG1       -0.0039
     11 C          -4.9920    1.5040    0.0000 C.ar    1  LIG1       -0.0003
     12 C          -4.9830    2.5040    0.0000 C.ar    1  LIG1       -0.0000
     13 C          -4.1210    3.0040    0.0000 C.ar    1  LIG1       -0.0003
     14 C          -1.8920    3.7330    0.0000 C.ar    1  LIG1       -0.0022
     15 C          -0.8960    3.8420    0.0000 C.ar    1  LIG1       -0.0239
     16 C           1.9790    1.6170    0.0000 C.ar    1  LIG1        0.0893
     17 C           1.7170    0.6580    0.0000 C.ar    1  LIG1        0.0166
     18 C           2.4170   -0.0420    0.0000 C.ar    1  LIG1       -0.0029
     19 C           3.3790    0.2080    0.0000 C.ar    1  LIG1       -0.0203
     20 C           3.6380    1.1710    0.0000 C.ar    1  LIG1       -0.0029
     21 C           2.9290    1.8710    0.0000 C.ar    1  LIG1        0.0166
     22 C           4.0880   -0.4960    0.0000 C.3     1  LIG1        0.0498
     23 C           3.8290   -1.4630    0.0000 C.3     1  LIG1        0.1198
     24 N           4.5380   -2.1670    0.0000 N.am    1  LIG1       -0.2051
     25 C           4.2790   -3.1290    0.0000 C.2     1  LIG1        0.2419
     26 O           3.3130   -3.3920    0.0000 O.2     1  LIG1       -0.2733
     27 C           4.9880   -3.8380    0.0000 C.3     1  LIG1        0.0964
     28 O           0.5210    1.6710    0.0000 O.2     1  LIG1       -0.1842
     29 O           2.0420    2.9670    0.0000 O.2     1  LIG1       -0.1842
@<TRIPOS>BOND
     1     1     2    1
     2     1    16    1
     3     1    28    2
     4     1    29    2
     5     2     3    1
     6     3     4   ar
     7     3    15   ar
     8     4     5   ar
     9     5     6   ar
    10     5     9    1
    11     6     7    1
    12     6    14   ar
    13     7     8   ar
    14     7    13   ar
    15     8     9    1
    16     8    10   ar
    17    10    11   ar
    18    11    12   ar
    19    12    13   ar
    20    14    15   ar
    21    16    17   ar
    22    16    21   ar
    23    17    18   ar
    24    18    19   ar
    25    19    20   ar
    26    19    22    1
    27    20    21   ar
    28    22    23    1
    29    23    24    1
    30    24    25   am
    31    25    26    2
    32    25    27    1
