@<TRIPOS>MOLECULE
26542_ChemDiv_8017-3866
 29 33 0 0 0
SMALL
GASTEIGER
Energy = 0

@<TRIPOS>ATOM
      1 S          -1.6210   -0.3420    0.0000 S.O2    1  LIG1       -0.0578
      2 C          -1.1460   -1.2040    0.0000 C.ar    1  LIG1        0.0890
      3 C          -0.1460   -1.2170    0.0000 C.ar    1  LIG1        0.0130
      4 C           0.3420   -2.0790    0.0000 C.ar    1  LIG1       -0.0166
      5 C          -0.1710   -2.9540    0.0000 C.ar    1  LIG1       -0.0039
      6 C           0.5000   -3.7130    0.0000 C.ar    1  LIG1       -0.0039
      7 C           1.4290   -3.3130    0.0000 C.ar    1  LIG1       -0.0178
      8 C           1.3290   -2.3040    0.0000 C.3     1  LIG1        0.0526
      9 C           2.2380   -3.9130    0.0000 C.ar    1  LIG1       -0.0039
     10 C           2.1170   -4.9130    0.0000 C.ar    1  LIG1       -0.0003
     11 C           1.1920   -5.3170    0.0000 C.ar    1  LIG1       -0.0000
     12 C           0.3790   -4.7130    0.0000 C.ar    1  LIG1       -0.0003
     13 C          -1.1710   -2.9380    0.0000 C.ar    1  LIG1        0.0010
     14 C          -1.6580   -2.0670    0.0000 C.ar    1  LIG1        0.0169
     15 N          -2.0330    0.5750    0.0000 N.pl3   1  LIG1       -0.5358
     16 C          -1.4460    1.3790    0.0000 C.ar    1  LIG1       -0.1122
     17 C          -0.4500    1.2880    0.0000 C.ar    1  LIG1       -0.0223
     18 C           0.1250    2.0880    0.0000 C.ar    1  LIG1        0.0173
     19 C          -0.2830    2.9920    0.0000 C.ar    1  LIG1        0.0827
     20 N           0.3040    3.7960    0.0000 N.ar    1  LIG1       -0.2285
     21 N           1.3000    3.7960    0.0000 N.ar    1  LIG1       -0.1694
     22 C           1.6040    4.7290    0.0000 C.ar    1  LIG1        0.0809
     23 C           0.8000    5.3170    0.0000 C.ar    1  LIG1        0.0371
     24 C          -0.0080    4.7290    0.0000 C.ar    1  LIG1        0.1016
     25 C           2.5540    5.0420    0.0000 C.3     1  LIG1        0.0540
     26 C          -1.2750    3.0920    0.0000 C.ar    1  LIG1        0.0173
     27 C          -1.8580    2.2880    0.0000 C.ar    1  LIG1       -0.0223
     28 O          -2.5580   -0.7750    0.0000 O.2     1  LIG1       -0.1842
     29 O          -0.7460    0.0500    0.0000 O.2     1  LIG1       -0.1842
@<TRIPOS>BOND
     1     1     2    1
     2     1    15    1
     3     1    28    2
     4     1    29    2
     5     2     3   ar
     6     2    14   ar
     7     3     4   ar
     8     4     5   ar
     9     4     8    1
    10     5     6    1
    11     5    13   ar
    12     6     7   ar
    13     6    12   ar
    14     7     8    1
    15     7     9   ar
    16     9    10   ar
    17    10    11   ar
    18    11    12   ar
    19    13    14   ar
    20    15    16    1
    21    16    17   ar
    22    16    27   ar
    23    17    18   ar
    24    18    19   ar
    25    19    20    1
    26    19    26   ar
    27    20    21   ar
    28    20    24   ar
    29    21    22   ar
    30    22    23   ar
    31    22    25    1
    32    23    24   ar
    33    26    27   ar
