@<TRIPOS>MOLECULE
26541_ChemDiv_6228-0215
 20 21 0 0 0
SMALL
GASTEIGER
Energy = 0

@<TRIPOS>ATOM
      1 N           0.1080    0.2380    0.0000 N.am    1  LIG1       -0.2297
      2 C          -0.4920    1.0000    0.0000 C.2     1  LIG1        0.2316
      3 C          -1.4790    0.6960    0.0000 C.3     1  LIG1        0.0900
      4 C          -1.4790   -0.2500    0.0000 C.3     1  LIG1        0.0900
      5 C          -0.4920   -0.5540    0.0000 C.2     1  LIG1        0.2316
      6 O          -0.1500   -1.4670    0.0000 O.2     1  LIG1       -0.2745
      7 C          -2.3630   -0.7290    0.0000 C.3     1  LIG1        0.0313
      8 C          -3.2580   -0.2500    0.0000 C.2     1  LIG1       -0.0477
      9 C          -3.2580    0.6960    0.0000 C.2     1  LIG1       -0.0344
     10 C          -2.3630    1.1790    0.0000 C.3     1  LIG1        0.0305
     11 C          -2.3630    2.1460    0.0000 C.3     1  LIG1        0.0052
     12 C          -4.1790   -0.7290    0.0000 C.3     1  LIG1        0.0260
     13 O          -0.1500    1.9040    0.0000 O.2     1  LIG1       -0.2745
     14 C           1.1540    0.2920    0.0000 C.3     1  LIG1        0.1070
     15 C           1.6830   -0.5210    0.0000 C.3     1  LIG1        0.0829
     16 C           2.7420   -0.5040    0.0000 C.3     1  LIG1        0.1110
     17 N           3.2670   -1.2960    0.0000 N.4     1  LIG1        0.3106
     18 C           4.1750   -0.8040    0.0000 C.3     1  LIG1        0.1710
     19 C           3.8210   -2.1420    0.0000 C.3     1  LIG1        0.1710
     20 C           2.3960   -1.8210    0.0000 C.3     1  LIG1        0.1710
@<TRIPOS>BOND
     1     1     2   am
     2     1     5   am
     3     1    14    1
     4     2     3    1
     5     2    13    2
     6     3     4    1
     7     3    10    1
     8     4     5    1
     9     4     7    1
    10     5     6    2
    11     7     8    1
    12     8     9    2
    13     8    12    1
    14     9    10    1
    15    10    11    1
    16    14    15    1
    17    15    16    1
    18    16    17    1
    19    17    18    1
    20    17    19    1
    21    17    20    1
