@<TRIPOS>MOLECULE
26540_ChemDiv_8016-3019
 29 32 0 0 0
SMALL
GASTEIGER
Energy = 0

@<TRIPOS>ATOM
      1 S           0.6040   -1.5670    0.0000 S.O2    1  LIG1       -0.0578
      2 C          -0.2710   -1.0670    0.0000 C.ar    1  LIG1        0.0890
      3 C          -1.1380   -1.5670    0.0000 C.ar    1  LIG1        0.0130
      4 C          -2.0000   -1.0670    0.0000 C.ar    1  LIG1       -0.0166
      5 C          -2.0000   -0.0670    0.0000 C.ar    1  LIG1       -0.0039
      6 C          -2.9500    0.2460    0.0000 C.ar    1  LIG1       -0.0039
      7 C          -3.5380   -0.5670    0.0000 C.ar    1  LIG1       -0.0178
      8 C          -2.9500   -1.3670    0.0000 C.3     1  LIG1        0.0526
      9 C          -4.5330   -0.4630    0.0000 C.ar    1  LIG1       -0.0039
     10 C          -4.9380    0.4500    0.0000 C.ar    1  LIG1       -0.0003
     11 C          -4.3500    1.2580    0.0000 C.ar    1  LIG1       -0.0000
     12 C          -3.3580    1.1580    0.0000 C.ar    1  LIG1       -0.0003
     13 C          -1.1380    0.4330    0.0000 C.ar    1  LIG1        0.0010
     14 C          -0.2710   -0.0670    0.0000 C.ar    1  LIG1        0.0169
     15 N           1.4710   -2.0630    0.0000 N.pl3   1  LIG1       -0.5358
     16 C           2.3330   -1.5670    0.0000 C.ar    1  LIG1       -0.1121
     17 C           3.2040   -2.0630    0.0000 C.ar    1  LIG1       -0.0207
     18 C           4.0710   -1.5670    0.0000 C.ar    1  LIG1        0.0351
     19 C           4.0710   -0.5670    0.0000 C.ar    1  LIG1        0.1393
     20 O           4.9330   -0.0670    0.0000 O.3     1  LIG1       -0.4638
     21 C           4.9330    0.9330    0.0000 C.3     1  LIG1        0.3141
     22 C           4.0710    1.4330    0.0000 C.2     1  LIG1        0.3621
     23 O           4.0710    2.4330    0.0000 O.2     1  LIG1       -0.2459
     24 O           3.2040    0.9330    0.0000 O.3     1  LIG1       -0.4418
     25 C           2.3330    1.4330    0.0000 C.3     1  LIG1        0.2557
     26 C           3.2040   -0.0670    0.0000 C.ar    1  LIG1        0.0351
     27 C           2.3330   -0.5670    0.0000 C.ar    1  LIG1       -0.0207
     28 O           0.0960   -2.4290    0.0000 O.2     1  LIG1       -0.1842
     29 O           1.1040   -0.7040    0.0000 O.2     1  LIG1       -0.1842
@<TRIPOS>BOND
     1     1     2    1
     2     1    15    1
     3     1    28    2
     4     1    29    2
     5     2     3   ar
     6     2    14   ar
     7     3     4   ar
     8     4     5   ar
     9     4     8    1
    10     5     6    1
    11     5    13   ar
    12     6     7   ar
    13     6    12   ar
    14     7     8    1
    15     7     9   ar
    16     9    10   ar
    17    10    11   ar
    18    11    12   ar
    19    13    14   ar
    20    15    16    1
    21    16    17   ar
    22    16    27   ar
    23    17    18   ar
    24    18    19   ar
    25    19    20    1
    26    19    26   ar
    27    20    21    1
    28    21    22    1
    29    22    23    2
    30    22    24    1
    31    24    25    1
    32    26    27   ar
