@<TRIPOS>MOLECULE
26548_ChemDiv_1404-0096
 24 27 0 0 0
SMALL
GASTEIGER
Energy = 0

@<TRIPOS>ATOM
      1 C           1.8080   -1.8630    0.0000 C.ar    1  LIG1        0.1042
      2 C           1.1880   -1.0040    0.0000 C.ar    1  LIG1        0.1015
      3 C           0.2380   -1.3130    0.0000 C.ar    1  LIG1        0.0412
      4 C           0.2380   -2.3250    0.0000 C.ar    1  LIG1        0.1118
      5 S           1.1880   -2.6500    0.0000 S.2     1  LIG1       -0.0620
      6 N          -0.6250   -2.8000    0.0000 N.ar    1  LIG1       -0.2431
      7 C          -1.4960   -2.3250    0.0000 C.ar    1  LIG1        0.0592
      8 C          -1.4960   -1.3130    0.0000 C.ar    1  LIG1        0.0148
      9 C          -0.6250   -0.7960    0.0000 C.ar    1  LIG1        0.0044
     10 C          -0.6250    0.2080    0.0000 C.ar    1  LIG1        0.0003
     11 C          -1.4960    0.6960    0.0000 C.ar    1  LIG1        0.0031
     12 C          -1.4960    1.7000    0.0000 C.ar    1  LIG1        0.0369
     13 C          -0.6250    2.1920    0.0000 C.ar    1  LIG1        0.1387
     14 C           0.2380    1.7000    0.0000 C.ar    1  LIG1        0.0369
     15 C           0.2380    0.6960    0.0000 C.ar    1  LIG1        0.0031
     16 O          -0.6380    3.1880    0.0000 O.3     1  LIG1       -0.4714
     17 C          -1.5130    3.6920    0.0000 C.3     1  LIG1        0.2525
     18 C          -2.3580   -2.8000    0.0000 C.3     1  LIG1        0.0403
     19 C          -2.8380   -3.6880    0.0000 C.3     1  LIG1        0.0063
     20 C          -3.3290   -2.8000    0.0000 C.3     1  LIG1        0.0063
     21 N           1.4630   -0.0580    0.0000 N.pl3   1  LIG1       -0.1273
     22 C           2.7960   -1.8460    0.0000 C.2     1  LIG1        0.2916
     23 O           3.2500   -0.9880    0.0000 O.2     1  LIG1       -0.2661
     24 N           3.3250   -2.6880    0.0000 N.am    1  LIG1       -0.0832
@<TRIPOS>BOND
     1     1     2   ar
     2     1     5   ar
     3     1    22    1
     4     2     3   ar
     5     2    21    1
     6     3     4   ar
     7     3     9   ar
     8     4     5   ar
     9     4     6   ar
    10     6     7   ar
    11     7     8   ar
    12     7    18    1
    13     8     9   ar
    14     9    10    1
    15    10    11   ar
    16    10    15   ar
    17    11    12   ar
    18    12    13   ar
    19    13    14   ar
    20    13    16    1
    21    14    15   ar
    22    16    17    1
    23    18    19    1
    24    18    20    1
    25    19    20    1
    26    22    23    2
    27    22    24   am
