@<TRIPOS>MOLECULE
26547_ChemDiv_8013-0435
 19 20 0 0 0
SMALL
GASTEIGER
Energy = 0

@<TRIPOS>ATOM
      1 S          -0.4580   -0.5750    0.0000 S.O2    1  LIG1       -0.0578
      2 N           0.4170   -1.0880    0.0000 N.pl3   1  LIG1       -0.5358
      3 C           1.2960   -0.5920    0.0000 C.ar    1  LIG1       -0.1115
      4 C           2.1420   -1.0880    0.0000 C.ar    1  LIG1       -0.0128
      5 C           3.0080   -0.5750    0.0000 C.ar    1  LIG1        0.0519
      6 C           3.0170    0.3960    0.0000 C.ar    1  LIG1       -0.0114
      7 C           2.1540    0.9000    0.0000 C.ar    1  LIG1       -0.0053
      8 C           1.2960    0.3960    0.0000 C.ar    1  LIG1       -0.0241
      9 C           3.8960    0.9000    0.0000 C.3     1  LIG1        0.0319
     10 CL          3.8790   -1.1040    0.0000 Cl      1  LIG1       -0.0826
     11 C          -1.3170   -0.0630    0.0000 C.ar    1  LIG1        0.0893
     12 C          -2.1750   -0.5580    0.0000 C.ar    1  LIG1        0.0166
     13 C          -3.0380   -0.0630    0.0000 C.ar    1  LIG1       -0.0030
     14 C          -3.0380    0.9460    0.0000 C.ar    1  LIG1       -0.0218
     15 C          -2.1750    1.4380    0.0000 C.ar    1  LIG1       -0.0030
     16 C          -1.3170    0.9460    0.0000 C.ar    1  LIG1        0.0166
     17 C          -3.9000    1.4380    0.0000 C.3     1  LIG1        0.0310
     18 O           0.0710    0.3000    0.0000 O.2     1  LIG1       -0.1842
     19 O          -0.9710   -1.4330    0.0000 O.2     1  LIG1       -0.1842
@<TRIPOS>BOND
     1     1     2    1
     2     1    11    1
     3     1    18    2
     4     1    19    2
     5     2     3    1
     6     3     4   ar
     7     3     8   ar
     8     4     5   ar
     9     5     6   ar
    10     5    10    1
    11     6     7   ar
    12     6     9    1
    13     7     8   ar
    14    11    12   ar
    15    11    16   ar
    16    12    13   ar
    17    13    14   ar
    18    14    15   ar
    19    14    17    1
    20    15    16   ar
