@<TRIPOS>MOLECULE
26549_ChemDiv_8016-3022
 28 30 0 0 0
SMALL
GASTEIGER
Energy = 0

@<TRIPOS>ATOM
      1 S           0.0920   -1.3210    0.0000 S.O2    1  LIG1       -0.0578
      2 N           0.5960   -0.4540    0.0000 N.pl3   1  LIG1       -0.5358
      3 C           1.5960   -0.4540    0.0000 C.ar    1  LIG1       -0.1121
      4 C           2.0960   -1.3210    0.0000 C.ar    1  LIG1       -0.0207
      5 C           3.0960   -1.3210    0.0000 C.ar    1  LIG1        0.0351
      6 C           3.5960   -0.4540    0.0000 C.ar    1  LIG1        0.1393
      7 O           4.5960   -0.4540    0.0000 O.3     1  LIG1       -0.4638
      8 C           5.0960    0.4170    0.0000 C.3     1  LIG1        0.3141
      9 C           4.5960    1.2830    0.0000 C.2     1  LIG1        0.3621
     10 O           5.0960    2.1460    0.0000 O.2     1  LIG1       -0.2459
     11 O           3.5960    1.2830    0.0000 O.3     1  LIG1       -0.4418
     12 C           3.0960    2.1460    0.0000 C.3     1  LIG1        0.2557
     13 C           3.0960    0.4170    0.0000 C.ar    1  LIG1        0.0351
     14 C           2.0960    0.4170    0.0000 C.ar    1  LIG1       -0.0207
     15 C          -0.7670   -0.8170    0.0000 C.ar    1  LIG1        0.0893
     16 C          -1.6380   -1.3210    0.0000 C.ar    1  LIG1        0.0166
     17 C          -2.5080   -0.8170    0.0000 C.ar    1  LIG1       -0.0030
     18 C          -2.5080    0.1790    0.0000 C.ar    1  LIG1       -0.0224
     19 C          -1.6380    0.6880    0.0000 C.ar    1  LIG1       -0.0030
     20 C          -0.7670    0.1790    0.0000 C.ar    1  LIG1        0.0166
     21 C          -3.3750    0.6880    0.0000 C.3     1  LIG1        0.0223
     22 C          -4.2330    0.1790    0.0000 C.3     1  LIG1        0.0044
     23 C          -5.1000    0.6880    0.0000 C.3     1  LIG1        0.0003
     24 C          -5.1000    1.6830    0.0000 C.3     1  LIG1        0.0000
     25 C          -4.2330    2.1880    0.0000 C.3     1  LIG1        0.0003
     26 C          -3.3750    1.6830    0.0000 C.3     1  LIG1        0.0044
     27 O          -0.4080   -2.1830    0.0000 O.2     1  LIG1       -0.1842
     28 O           0.9580   -1.8170    0.0000 O.2     1  LIG1       -0.1842
@<TRIPOS>BOND
     1     1     2    1
     2     1    15    1
     3     1    27    2
     4     1    28    2
     5     2     3    1
     6     3     4   ar
     7     3    14   ar
     8     4     5   ar
     9     5     6   ar
    10     6     7    1
    11     6    13   ar
    12     7     8    1
    13     8     9    1
    14     9    10    2
    15     9    11    1
    16    11    12    1
    17    13    14   ar
    18    15    16   ar
    19    15    20   ar
    20    16    17   ar
    21    17    18   ar
    22    18    19   ar
    23    18    21    1
    24    19    20   ar
    25    21    22    1
    26    21    26    1
    27    22    23    1
    28    23    24    1
    29    24    25    1
    30    25    26    1
