@<TRIPOS>MOLECULE
26553_ChemDiv_1304-0020
 13 15 0 0 0
SMALL
GASTEIGER
Energy = 0

@<TRIPOS>ATOM
      1 C          -0.3830    0.5080    0.0000 C.ar    1  LIG1        0.0676
      2 C          -0.3830   -0.5000    0.0000 C.ar    1  LIG1        0.0673
      3 S          -1.3290   -0.8080    0.0000 S.2     1  LIG1       -0.0661
      4 C          -1.9170   -0.0130    0.0000 C.ar    1  LIG1        0.0953
      5 S          -1.3290    0.8170    0.0000 S.2     1  LIG1       -0.0661
      6 S          -2.9040   -0.0130    0.0000 S.2     1  LIG1       -0.0365
      7 S           0.4830   -1.0040    0.0000 S.3     1  LIG1       -0.1056
      8 C           1.3630   -0.4880    0.0000 C.3     1  LIG1        0.0711
      9 C           1.3630    0.4960    0.0000 C.3     1  LIG1        0.0845
     10 S           0.4830    1.0080    0.0000 S.3     1  LIG1       -0.1018
     11 C           2.3130    0.8000    0.0000 C.2     1  LIG1       -0.0190
     12 C           2.9000   -0.0130    0.0000 C.2     1  LIG1       -0.0289
     13 C           2.3130   -0.7960    0.0000 C.3     1  LIG1        0.0381
@<TRIPOS>BOND
     1     1     2   ar
     2     1     5   ar
     3     1    10    1
     4     2     3   ar
     5     2     7    1
     6     3     4   ar
     7     4     5   ar
     8     4     6    2
     9     7     8    1
    10     8     9    1
    11     8    13    1
    12     9    10    1
    13     9    11    1
    14    11    12    2
    15    12    13    1
