@<TRIPOS>MOLECULE
26552_ChemDiv_3892-0061
 25 28 0 0 0
SMALL
GASTEIGER
Energy = 0

@<TRIPOS>ATOM
      1 C          -0.2630   -0.0330    0.0000 C.ar    1  LIG1        0.1029
      2 S          -0.8290   -0.8170    0.0000 S.2     1  LIG1       -0.0620
      3 C          -1.7880   -0.5080    0.0000 C.ar    1  LIG1        0.1117
      4 C          -1.7880    0.4830    0.0000 C.ar    1  LIG1        0.0409
      5 C          -0.8290    0.7920    0.0000 C.ar    1  LIG1        0.1014
      6 N          -0.5080    1.7380    0.0000 N.pl3   1  LIG1       -0.1273
      7 C          -2.6500    1.0000    0.0000 C.ar    1  LIG1        0.0003
      8 C          -3.5080    0.4830    0.0000 C.ar    1  LIG1       -0.0085
      9 C          -3.5080   -0.5080    0.0000 C.ar    1  LIG1        0.0555
     10 N          -2.6500   -1.0250    0.0000 N.ar    1  LIG1       -0.2434
     11 C          -4.3750   -1.0250    0.0000 C.3     1  LIG1        0.0455
     12 C          -5.2460   -0.5080    0.0000 C.3     1  LIG1        0.0066
     13 C          -5.2460    0.4830    0.0000 C.3     1  LIG1        0.0051
     14 C          -4.3750    1.0000    0.0000 C.3     1  LIG1        0.0276
     15 C           0.7380   -0.0330    0.0000 C.2     1  LIG1        0.2764
     16 N           1.2460   -0.8790    0.0000 N.am    1  LIG1       -0.1750
     17 C           2.2460   -0.8790    0.0000 C.ar    1  LIG1        0.0746
     18 C           2.7420   -0.0330    0.0000 C.ar    1  LIG1        0.0288
     19 C           3.7420   -0.0330    0.0000 C.ar    1  LIG1        0.0695
     20 C           4.2460   -0.8790    0.0000 C.ar    1  LIG1        0.0683
     21 C           3.7420   -1.7330    0.0000 C.ar    1  LIG1        0.0136
     22 C           2.7420   -1.7330    0.0000 C.ar    1  LIG1        0.0175
     23 CL          5.2420   -0.8790    0.0000 Cl      1  LIG1       -0.0814
     24 CL          4.2630    0.8580    0.0000 Cl      1  LIG1       -0.0813
     25 O           1.2460    0.8580    0.0000 O.2     1  LIG1       -0.2674
@<TRIPOS>BOND
     1     1     2   ar
     2     1     5   ar
     3     1    15    1
     4     2     3   ar
     5     3     4   ar
     6     3    10   ar
     7     4     5   ar
     8     4     7   ar
     9     5     6    1
    10     7     8   ar
    11     8     9   ar
    12     8    14    1
    13     9    10   ar
    14     9    11    1
    15    11    12    1
    16    12    13    1
    17    13    14    1
    18    15    16   am
    19    15    25    2
    20    16    17    1
    21    17    18   ar
    22    17    22   ar
    23    18    19   ar
    24    19    20   ar
    25    19    24    1
    26    20    21   ar
    27    20    23    1
    28    21    22   ar
