@<TRIPOS>MOLECULE
26556_ChemDiv_4554-6454
 32 36 0 0 0
SMALL
GASTEIGER
Energy = 0

@<TRIPOS>ATOM
      1 C           2.0330    0.2330    0.0000 C.ar    1  LIG1        0.1443
      2 C           2.5460   -0.6210    0.0000 C.ar    1  LIG1        0.2954
      3 N           3.5130   -0.3920    0.0000 N.ar    1  LIG1       -0.2134
      4 N           3.6040    0.5920    0.0000 N.ar    1  LIG1       -0.2646
      5 C           2.6880    0.9830    0.0000 C.ar    1  LIG1        0.0746
      6 C           2.4630    2.0000    0.0000 C.3     1  LIG1        0.0532
      7 C           4.4960    1.0880    0.0000 C.3     1  LIG1        0.1518
      8 C           3.9040   -1.3080    0.0000 C.ar    1  LIG1        0.0841
      9 C           3.4920   -2.1920    0.0000 C.ar    1  LIG1        0.0192
     10 C           4.0630   -3.0080    0.0000 C.ar    1  LIG1        0.0015
     11 C           5.0630   -2.9290    0.0000 C.ar    1  LIG1        0.0001
     12 C           5.4750   -2.0290    0.0000 C.ar    1  LIG1        0.0015
     13 C           4.9040   -1.2080    0.0000 C.ar    1  LIG1        0.0192
     14 O           2.1630   -1.5710    0.0000 O.2     1  LIG1       -0.2637
     15 N           1.0250    0.2000    0.0000 N.am    1  LIG1       -0.1689
     16 C           0.5000    1.0500    0.0000 C.2     1  LIG1        0.2766
     17 C          -0.5040    1.0170    0.0000 C.ar    1  LIG1        0.1029
     18 S          -1.0710    0.2000    0.0000 S.2     1  LIG1       -0.0620
     19 C          -2.0250    0.5000    0.0000 C.ar    1  LIG1        0.1118
     20 C          -2.0250    1.4790    0.0000 C.ar    1  LIG1        0.0413
     21 C          -1.0710    1.7880    0.0000 C.ar    1  LIG1        0.1015
     22 N          -0.7290    2.7420    0.0000 N.pl3   1  LIG1       -0.1273
     23 C          -2.8880    2.0000    0.0000 C.ar    1  LIG1        0.0074
     24 C          -3.7540    1.4960    0.0000 C.ar    1  LIG1        0.0484
     25 C          -3.7540    0.4920    0.0000 C.ar    1  LIG1        0.0623
     26 N          -2.8880   -0.0080    0.0000 N.ar    1  LIG1       -0.2430
     27 C          -4.6250   -0.0080    0.0000 C.3     1  LIG1        0.0464
     28 C          -5.4790    0.5000    0.0000 C.3     1  LIG1        0.0144
     29 C          -5.4790    1.4790    0.0000 C.3     1  LIG1        0.0696
     30 C          -4.6250    2.0000    0.0000 C.2     1  LIG1        0.1742
     31 O          -4.6250    3.0130    0.0000 O.2     1  LIG1       -0.2913
     32 O           0.9750    1.9330    0.0000 O.2     1  LIG1       -0.2674
@<TRIPOS>BOND
     1     1     2   ar
     2     1     5   ar
     3     1    15    1
     4     2     3   ar
     5     2    14    2
     6     3     4   ar
     7     3     8    1
     8     4     5   ar
     9     4     7    1
    10     5     6    1
    11     8     9   ar
    12     8    13   ar
    13     9    10   ar
    14    10    11   ar
    15    11    12   ar
    16    12    13   ar
    17    15    16   am
    18    16    17    1
    19    16    32    2
    20    17    18   ar
    21    17    21   ar
    22    18    19   ar
    23    19    20   ar
    24    19    26   ar
    25    20    21   ar
    26    20    23   ar
    27    21    22    1
    28    23    24   ar
    29    24    25   ar
    30    24    30    1
    31    25    26   ar
    32    25    27    1
    33    27    28    1
    34    28    29    1
    35    29    30    1
    36    30    31    2
