@<TRIPOS>MOLECULE
26558_ChemDiv_5169-0519
 19 22 0 0 0
SMALL
GASTEIGER
Energy = 0

@<TRIPOS>ATOM
      1 C          -0.4630    0.0040    0.0000 C.ar    1  LIG1        0.0897
      2 C          -0.4630   -0.9580    0.0000 C.ar    1  LIG1        0.3268
      3 S          -1.2880   -1.4330    0.0000 S.2     1  LIG1       -0.0172
      4 C          -2.1130   -0.9580    0.0000 C.ar    1  LIG1        0.0092
      5 C          -2.1130    0.0170    0.0000 C.ar    1  LIG1       -0.0122
      6 C          -2.9630    0.4920    0.0000 C.3     1  LIG1        0.0268
      7 C          -3.7830    0.0170    0.0000 C.3     1  LIG1        0.0050
      8 C          -3.7830   -0.9460    0.0000 C.3     1  LIG1        0.0055
      9 C          -2.9630   -1.4330    0.0000 C.3     1  LIG1        0.0328
     10 N           0.3670   -1.4460    0.0000 N.ar    1  LIG1        0.0780
     11 C           1.2130   -0.9880    0.0000 C.ar    1  LIG1        0.2719
     12 C           1.2210   -0.0130    0.0000 C.ar    1  LIG1        0.0604
     13 C           0.3830    0.4750    0.0000 C.ar    1  LIG1        0.0968
     14 N           0.3880    1.4750    0.0000 N.pl3   1  LIG1       -0.1280
     15 C           2.0630    0.4750    0.0000 C.3     1  LIG1        0.0336
     16 C           2.9000   -0.0170    0.0000 C.3     1  LIG1        0.0051
     17 C           2.8880   -0.9920    0.0000 C.3     1  LIG1        0.0116
     18 C           2.0330   -1.4710    0.0000 C.3     1  LIG1        0.1036
     19 C           3.7790    0.4710    0.0000 C.3     1  LIG1        0.0004
@<TRIPOS>BOND
     1     1     2   ar
     2     1     5   ar
     3     1    13   ar
     4     2     3   ar
     5     2    10   ar
     6     3     4   ar
     7     4     5   ar
     8     4     9    1
     9     5     6    1
    10     6     7    1
    11     7     8    1
    12     8     9    1
    13    10    11   ar
    14    11    12   ar
    15    11    18    1
    16    12    13   ar
    17    12    15    1
    18    13    14    1
    19    15    16    1
    20    16    17    1
    21    16    19    1
    22    17    18    1
