@<TRIPOS>MOLECULE
26554_ChemDiv_4072-2707
 19 22 0 0 0
SMALL
GASTEIGER
Energy = 0

@<TRIPOS>ATOM
      1 C           0.2210    0.0710    0.0000 C.ar    1  LIG1        0.0897
      2 C           0.2210   -0.8920    0.0000 C.ar    1  LIG1        0.3268
      3 S          -0.6170   -1.3880    0.0000 S.2     1  LIG1       -0.0172
      4 C          -1.4500   -0.8920    0.0000 C.ar    1  LIG1        0.0092
      5 C          -1.4500    0.0710    0.0000 C.ar    1  LIG1       -0.0122
      6 C          -2.2170    0.6750    0.0000 C.3     1  LIG1        0.0268
      7 C          -3.1580    0.4630    0.0000 C.3     1  LIG1        0.0047
      8 C          -3.5710   -0.4210    0.0000 C.3     1  LIG1        0.0007
      9 C          -3.1580   -1.2920    0.0000 C.3     1  LIG1        0.0052
     10 C          -2.2170   -1.5040    0.0000 C.3     1  LIG1        0.0328
     11 N           1.0630   -1.3790    0.0000 N.ar    1  LIG1        0.0780
     12 C           1.8960   -0.9080    0.0000 C.ar    1  LIG1        0.2719
     13 C           1.8960    0.0710    0.0000 C.ar    1  LIG1        0.0604
     14 C           1.0630    0.5580    0.0000 C.ar    1  LIG1        0.0968
     15 N           1.0630    1.5080    0.0000 N.pl3   1  LIG1       -0.1280
     16 C           2.7380    0.5580    0.0000 C.3     1  LIG1        0.0337
     17 C           3.5670    0.0670    0.0000 C.3     1  LIG1        0.0055
     18 C           3.5670   -0.9080    0.0000 C.3     1  LIG1        0.0117
     19 C           2.7380   -1.3880    0.0000 C.3     1  LIG1        0.1036
@<TRIPOS>BOND
     1     1     2   ar
     2     1     5   ar
     3     1    14   ar
     4     2     3   ar
     5     2    11   ar
     6     3     4   ar
     7     4     5   ar
     8     4    10    1
     9     5     6    1
    10     6     7    1
    11     7     8    1
    12     8     9    1
    13     9    10    1
    14    11    12   ar
    15    12    13   ar
    16    12    19    1
    17    13    14   ar
    18    13    16    1
    19    14    15    1
    20    16    17    1
    21    17    18    1
    22    18    19    1
