@<TRIPOS>MOLECULE
26561_ChemDiv_K906-0496
 17 19 0 0 0
SMALL
GASTEIGER
Energy = 0

@<TRIPOS>ATOM
      1 N           1.1040   -0.2790    0.0000 N.am    1  LIG1       -0.2244
      2 C           0.1960   -0.5920    0.0000 C.2     1  LIG1        0.2320
      3 C          -0.3750    0.1750    0.0000 C.3     1  LIG1        0.0900
      4 C           0.1750    0.9500    0.0000 C.3     1  LIG1        0.0900
      5 C           1.0830    0.6750    0.0000 C.2     1  LIG1        0.2320
      6 O           1.8420    1.2460    0.0000 O.2     1  LIG1       -0.2744
      7 C          -0.8920    1.5830    0.0000 C.3     1  LIG1        0.0308
      8 C          -2.0580    1.0500    0.0000 C.2     1  LIG1       -0.0305
      9 C          -2.5830    0.2170    0.0000 C.2     1  LIG1       -0.0305
     10 C          -1.4540    0.8210    0.0000 C.3     1  LIG1        0.0308
     11 C          -1.4540    1.7580    0.0000 C.3     1  LIG1        0.0052
     12 C          -0.8920    2.3210    0.0000 C.3     1  LIG1        0.0052
     13 O          -0.0750   -1.5000    0.0000 O.2     1  LIG1       -0.2744
     14 C           1.8880   -0.8210    0.0000 C.3     1  LIG1        0.1424
     15 C           1.7960   -1.7670    0.0000 C.2     1  LIG1        0.0709
     16 O           2.5790   -2.3170    0.0000 O.co2   1  LIG1       -0.5474
     17 O           0.9380   -2.1750    0.0000 O.co2   1  LIG1       -0.5474
@<TRIPOS>BOND
     1     1     2   am
     2     1     5   am
     3     1    14    1
     4     2     3    1
     5     2    13    2
     6     3     4    1
     7     3    10    1
     8     4     5    1
     9     4     7    1
    10     5     6    2
    11     7     8    1
    12     7    12    1
    13     8     9    2
    14     9    10    1
    15    10    11    1
    16    11    12    1
    17    14    15    1
    18    15    16   ar
    19    15    17   ar
