@<TRIPOS>MOLECULE
26563_ChemDiv_1189-1278
 29 32 0 0 0
SMALL
GASTEIGER
Energy = 0

@<TRIPOS>ATOM
      1 C          -0.8580    0.3500    0.0000 C.ar    1  LIG1        0.1540
      2 C          -1.8290    0.4580    0.0000 C.ar    1  LIG1        0.2977
      3 N          -2.0420    1.4130    0.0000 N.ar    1  LIG1       -0.2132
      4 N          -1.1670    1.9130    0.0000 N.ar    1  LIG1       -0.2644
      5 C          -0.4330    1.2460    0.0000 C.ar    1  LIG1        0.0770
      6 C           0.5670    1.4130    0.0000 C.3     1  LIG1        0.0534
      7 C          -1.0420    2.9130    0.0000 C.3     1  LIG1        0.1518
      8 C          -2.9170    1.9130    0.0000 C.ar    1  LIG1        0.0842
      9 C          -2.9170    2.9130    0.0000 C.ar    1  LIG1        0.0192
     10 C          -3.7710    3.4130    0.0000 C.ar    1  LIG1        0.0015
     11 C          -4.6460    2.9130    0.0000 C.ar    1  LIG1        0.0001
     12 C          -4.6460    1.9130    0.0000 C.ar    1  LIG1        0.0015
     13 C          -3.7710    1.4130    0.0000 C.ar    1  LIG1        0.0192
     14 O          -2.4960   -0.3000    0.0000 O.2     1  LIG1       -0.2635
     15 N          -0.3290   -0.5290    0.0000 N.2     1  LIG1       -0.2162
     16 C           0.6710   -0.5290    0.0000 C.ar    1  LIG1        0.1758
     17 N           1.1710   -1.4080    0.0000 N.ar    1  LIG1       -0.3029
     18 C           2.1580   -1.1790    0.0000 C.ar    1  LIG1        0.0683
     19 C           2.2330   -0.1960    0.0000 C.ar    1  LIG1        0.0555
     20 S           1.3380    0.2290    0.0000 S.2     1  LIG1       -0.0483
     21 C           2.9290   -1.8000    0.0000 C.ar    1  LIG1        0.0164
     22 C           3.8380   -1.4460    0.0000 C.ar    1  LIG1        0.0015
     23 C           4.6420   -2.0540    0.0000 C.ar    1  LIG1        0.0000
     24 C           4.4540   -3.0580    0.0000 C.ar    1  LIG1        0.0000
     25 C           3.5290   -3.4080    0.0000 C.ar    1  LIG1        0.0000
     26 C           2.7630   -2.7880    0.0000 C.ar    1  LIG1        0.0015
     27 C           0.7630   -2.3290    0.0000 C.3     1  LIG1        0.1344
     28 C          -0.2420   -2.4540    0.0000 C.2     1  LIG1       -0.0017
     29 C          -0.6460   -3.3710    0.0000 C.2     1  LIG1       -0.0029
@<TRIPOS>BOND
     1     1     2   ar
     2     1     5   ar
     3     1    15    1
     4     2     3   ar
     5     2    14    2
     6     3     4   ar
     7     3     8    1
     8     4     5   ar
     9     4     7    1
    10     5     6    1
    11     8     9   ar
    12     8    13   ar
    13     9    10   ar
    14    10    11   ar
    15    11    12   ar
    16    12    13   ar
    17    15    16    2
    18    16    17   ar
    19    16    20   ar
    20    17    18   ar
    21    17    27    1
    22    18    19   ar
    23    18    21    1
    24    19    20   ar
    25    21    22   ar
    26    21    26   ar
    27    22    23   ar
    28    23    24   ar
    29    24    25   ar
    30    25    26   ar
    31    27    28    1
    32    28    29    2
