@<TRIPOS>MOLECULE
26565_ChemDiv_1189-1436
 25 28 0 0 0
SMALL
GASTEIGER
Energy = 0

@<TRIPOS>ATOM
      1 C           0.7250   -0.0880    0.0000 C.ar    1  LIG1        0.1521
      2 C           1.6210   -0.2920    0.0000 C.ar    1  LIG1        0.2977
      3 N           1.7130   -1.2460    0.0000 N.ar    1  LIG1       -0.2132
      4 N           0.8710   -1.5960    0.0000 N.ar    1  LIG1       -0.2644
      5 C           0.2080   -0.9000    0.0000 C.ar    1  LIG1        0.0769
      6 C          -0.7540   -0.9790    0.0000 C.3     1  LIG1        0.0534
      7 C           0.6710   -2.5500    0.0000 C.3     1  LIG1        0.1518
      8 C           2.5290   -1.7040    0.0000 C.ar    1  LIG1        0.0842
      9 C           3.3380   -1.2460    0.0000 C.ar    1  LIG1        0.0192
     10 C           4.1790   -1.7040    0.0000 C.ar    1  LIG1        0.0015
     11 C           4.1790   -2.6670    0.0000 C.ar    1  LIG1        0.0001
     12 C           3.3630   -3.1330    0.0000 C.ar    1  LIG1        0.0015
     13 C           2.5580   -2.6670    0.0000 C.ar    1  LIG1        0.0192
     14 O           2.3830    0.3250    0.0000 O.2     1  LIG1       -0.2635
     15 N           0.2630    0.7630    0.0000 N.2     1  LIG1       -0.2346
     16 C          -2.1040    0.7630    0.0000 C.2     1  LIG1        0.1379
     17 C          -2.7130    0.0420    0.0000 C.2     1  LIG1        0.2867
     18 N          -3.5540    0.4040    0.0000 N.am    1  LIG1       -0.1741
     19 C          -3.5290    1.3210    0.0000 C.ar    1  LIG1        0.0753
     20 C          -2.5880    1.5960    0.0000 C.ar    1  LIG1        0.0375
     21 C          -2.3210    2.4830    0.0000 C.ar    1  LIG1        0.0029
     22 C          -3.0040    3.1380    0.0000 C.ar    1  LIG1        0.0001
     23 C          -3.9170    2.9380    0.0000 C.ar    1  LIG1        0.0013
     24 C          -4.1830    2.0000    0.0000 C.ar    1  LIG1        0.0167
     25 O          -2.4750   -0.9080    0.0000 O.2     1  LIG1       -0.2663
@<TRIPOS>BOND
     1     1     2   ar
     2     1     5   ar
     3     1    15    1
     4     2     3   ar
     5     2    14    2
     6     3     4   ar
     7     3     8    1
     8     4     5   ar
     9     4     7    1
    10     5     6    1
    11     8     9   ar
    12     8    13   ar
    13     9    10   ar
    14    10    11   ar
    15    11    12   ar
    16    12    13   ar
    17    15    16    2
    18    16    17    1
    19    16    20    1
    20    17    18   am
    21    17    25    2
    22    18    19    1
    23    19    20   ar
    24    19    24   ar
    25    20    21   ar
    26    21    22   ar
    27    22    23   ar
    28    23    24   ar
