@<TRIPOS>MOLECULE
26560_ChemDiv_5350-0227
 31 34 0 0 0
SMALL
GASTEIGER
Energy = 0

@<TRIPOS>ATOM
      1 C           0.2830   -0.7250    0.0000 C.ar    1  LIG1        0.1029
      2 S          -0.0170   -1.6710    0.0000 S.2     1  LIG1       -0.0620
      3 C          -1.0250   -1.6710    0.0000 C.ar    1  LIG1        0.1117
      4 C          -1.3380   -0.7250    0.0000 C.ar    1  LIG1        0.0409
      5 C          -0.5000   -0.1420    0.0000 C.ar    1  LIG1        0.1014
      6 N          -0.4790    0.8540    0.0000 N.pl3   1  LIG1       -0.1273
      7 C          -2.3210   -0.5130    0.0000 C.ar    1  LIG1        0.0003
      8 C          -2.9880   -1.2460    0.0000 C.ar    1  LIG1       -0.0085
      9 C          -2.6710   -2.2000    0.0000 C.ar    1  LIG1        0.0555
     10 N          -1.6880   -2.4130    0.0000 N.ar    1  LIG1       -0.2434
     11 C          -3.3500   -2.9380    0.0000 C.3     1  LIG1        0.0455
     12 C          -4.3170   -2.7250    0.0000 C.3     1  LIG1        0.0066
     13 C          -4.6330   -1.7630    0.0000 C.3     1  LIG1        0.0048
     14 C          -3.9750   -1.0330    0.0000 C.3     1  LIG1        0.0276
     15 C          -5.6170   -1.5670    0.0000 C.3     1  LIG1        0.0003
     16 C          -6.3000   -2.3130    0.0000 C.3     1  LIG1        0.0000
     17 C           1.2830   -0.7250    0.0000 C.2     1  LIG1        0.2764
     18 N           1.7000    0.1750    0.0000 N.am    1  LIG1       -0.1748
     19 C           2.7080    0.2420    0.0000 C.ar    1  LIG1        0.0799
     20 C           3.1630    1.1580    0.0000 C.ar    1  LIG1        0.0568
     21 C           4.1540    1.2250    0.0000 C.ar    1  LIG1        0.1767
     22 C           4.7130    0.4000    0.0000 C.ar    1  LIG1        0.2061
     23 C           4.2750   -0.4750    0.0000 C.ar    1  LIG1        0.1767
     24 C           3.2880   -0.5710    0.0000 C.ar    1  LIG1        0.0568
     25 O           4.8380   -1.3290    0.0000 O.3     1  LIG1       -0.4682
     26 C           5.8290   -1.2460    0.0000 C.3     1  LIG1        0.2526
     27 O           5.7250    0.4750    0.0000 O.3     1  LIG1       -0.4654
     28 C           6.3000   -0.3380    0.0000 C.3     1  LIG1        0.2528
     29 O           4.6000    2.1080    0.0000 O.3     1  LIG1       -0.4682
     30 C           4.0630    2.9420    0.0000 C.3     1  LIG1        0.2526
     31 O           1.8290   -1.5460    0.0000 O.2     1  LIG1       -0.2674
@<TRIPOS>BOND
     1     1     2   ar
     2     1     5   ar
     3     1    17    1
     4     2     3   ar
     5     3     4   ar
     6     3    10   ar
     7     4     5   ar
     8     4     7   ar
     9     5     6    1
    10     7     8   ar
    11     8     9   ar
    12     8    14    1
    13     9    10   ar
    14     9    11    1
    15    11    12    1
    16    12    13    1
    17    13    14    1
    18    13    15    1
    19    15    16    1
    20    17    18   am
    21    17    31    2
    22    18    19    1
    23    19    20   ar
    24    19    24   ar
    25    20    21   ar
    26    21    22   ar
    27    21    29    1
    28    22    23   ar
    29    22    27    1
    30    23    24   ar
    31    23    25    1
    32    25    26    1
    33    27    28    1
    34    29    30    1
