@<TRIPOS>MOLECULE
26573_ChemDiv_1189-2229
 27 31 0 0 0
SMALL
GASTEIGER
Energy = 0

@<TRIPOS>ATOM
      1 C           0.1790   -0.4170    0.0000 C.ar    1  LIG1        0.2234
      2 N          -0.4130   -1.2500    0.0000 N.ar    1  LIG1       -0.1930
      3 C          -1.3580   -0.9460    0.0000 C.ar    1  LIG1        0.1714
      4 C          -1.3580    0.0710    0.0000 C.ar    1  LIG1        0.1594
      5 N          -0.4130    0.3920    0.0000 N.ar    1  LIG1       -0.2678
      6 C           0.2080    1.1880    0.0000 C.ar    1  LIG1        0.1006
      7 C           1.1540    0.8420    0.0000 C.ar    1  LIG1        0.0842
      8 N           1.1250   -0.1330    0.0000 N.ar    1  LIG1       -0.2762
      9 C           1.9330   -0.7130    0.0000 C.ar    1  LIG1        0.0667
     10 C           2.8460   -0.3040    0.0000 C.ar    1  LIG1        0.0176
     11 C           3.6580   -0.8790    0.0000 C.ar    1  LIG1        0.0015
     12 C           3.5750   -1.8710    0.0000 C.ar    1  LIG1        0.0001
     13 C           2.6580   -2.3080    0.0000 C.ar    1  LIG1        0.0015
     14 C           1.8380   -1.7080    0.0000 C.ar    1  LIG1        0.0176
     15 C           2.1000    1.1670    0.0000 C.ar    1  LIG1        0.0177
     16 C           2.8460    0.4880    0.0000 C.ar    1  LIG1        0.0015
     17 C           3.7630    0.7960    0.0000 C.ar    1  LIG1        0.0000
     18 C           3.9830    1.7580    0.0000 C.ar    1  LIG1        0.0000
     19 C           3.2670    2.4420    0.0000 C.ar    1  LIG1        0.0000
     20 C           2.3210    2.1290    0.0000 C.ar    1  LIG1        0.0015
     21 C          -2.2290    0.5670    0.0000 C.ar    1  LIG1        0.3022
     22 N          -3.1000    0.0500    0.0000 N.ar    1  LIG1       -0.1518
     23 C          -3.1000   -0.9250    0.0000 C.ar    1  LIG1        0.3540
     24 N          -2.2290   -1.4420    0.0000 N.ar    1  LIG1       -0.2614
     25 C          -2.2290   -2.4380    0.0000 C.3     1  LIG1        0.1367
     26 O          -3.9880   -1.4210    0.0000 O.2     1  LIG1       -0.2443
     27 O          -2.2290    1.5880    0.0000 O.2     1  LIG1       -0.2633
@<TRIPOS>BOND
     1     1     2   ar
     2     1     5   ar
     3     1     8   ar
     4     2     3   ar
     5     3     4   ar
     6     3    24   ar
     7     4     5   ar
     8     4    21   ar
     9     5     6   ar
    10     6     7   ar
    11     7     8   ar
    12     7    15    1
    13     8     9    1
    14     9    10   ar
    15     9    14   ar
    16    10    11   ar
    17    11    12   ar
    18    12    13   ar
    19    13    14   ar
    20    15    16   ar
    21    15    20   ar
    22    16    17   ar
    23    17    18   ar
    24    18    19   ar
    25    19    20   ar
    26    21    22   ar
    27    21    27    2
    28    22    23   ar
    29    23    24   ar
    30    23    26    2
    31    24    25    1
