@<TRIPOS>MOLECULE
26575_ChemDiv_3175-0510
 31 36 0 0 0
SMALL
GASTEIGER
Energy = 0

@<TRIPOS>ATOM
      1 C          -1.3790   -1.2000    0.0000 C.ar    1  LIG1        0.1577
      2 C          -1.6920   -0.2460    0.0000 C.ar    1  LIG1        0.1713
      3 N          -0.8920    0.3380    0.0000 N.ar    1  LIG1       -0.1930
      4 C          -0.0710   -0.2330    0.0000 C.ar    1  LIG1        0.2234
      5 N          -0.3790   -1.2000    0.0000 N.ar    1  LIG1       -0.2678
      6 C           0.4420   -1.7710    0.0000 C.ar    1  LIG1        0.1006
      7 C           1.2420   -1.1790    0.0000 C.ar    1  LIG1        0.0842
      8 N           0.9290   -0.2170    0.0000 N.ar    1  LIG1       -0.2761
      9 C           1.5080    0.5830    0.0000 C.ar    1  LIG1        0.0700
     10 C           2.5130    0.4880    0.0000 C.ar    1  LIG1        0.0578
     11 C           3.0960    1.3040    0.0000 C.ar    1  LIG1        0.1779
     12 C           2.6830    2.2080    0.0000 C.ar    1  LIG1        0.1765
     13 O           3.4290    2.8790    0.0000 O.3     1  LIG1       -0.4346
     14 C           4.3000    2.3880    0.0000 C.3     1  LIG1        0.4294
     15 O           4.0880    1.4080    0.0000 O.3     1  LIG1       -0.4346
     16 C           1.6920    2.3210    0.0000 C.ar    1  LIG1        0.0417
     17 C           1.1080    1.5040    0.0000 C.ar    1  LIG1        0.0209
     18 C           2.2000   -1.4880    0.0000 C.ar    1  LIG1        0.0177
     19 C           2.9330   -0.8040    0.0000 C.ar    1  LIG1        0.0015
     20 C           3.8880   -1.1130    0.0000 C.ar    1  LIG1        0.0000
     21 C           4.1170   -2.0880    0.0000 C.ar    1  LIG1        0.0000
     22 C           3.3630   -2.7580    0.0000 C.ar    1  LIG1        0.0000
     23 C           2.4000   -2.4670    0.0000 C.ar    1  LIG1        0.0015
     24 N          -2.6790   -0.0330    0.0000 N.ar    1  LIG1       -0.2628
     25 C          -3.3290   -0.7880    0.0000 C.ar    1  LIG1        0.3350
     26 N          -3.0130   -1.7330    0.0000 N.ar    1  LIG1       -0.2454
     27 C          -2.0330   -1.9330    0.0000 C.ar    1  LIG1        0.2835
     28 O          -1.7420   -2.8750    0.0000 O.2     1  LIG1       -0.2651
     29 C          -3.6790   -2.4750    0.0000 C.3     1  LIG1        0.1383
     30 O          -4.3040   -0.5790    0.0000 O.2     1  LIG1       -0.2461
     31 C          -2.9830    0.9170    0.0000 C.3     1  LIG1        0.1366
@<TRIPOS>BOND
     1     1     2   ar
     2     1     5   ar
     3     1    27   ar
     4     2     3   ar
     5     2    24   ar
     6     3     4   ar
     7     4     5   ar
     8     4     8   ar
     9     5     6   ar
    10     6     7   ar
    11     7     8   ar
    12     7    18    1
    13     8     9    1
    14     9    10   ar
    15     9    17   ar
    16    10    11   ar
    17    11    12   ar
    18    11    15    1
    19    12    13    1
    20    12    16   ar
    21    13    14    1
    22    14    15    1
    23    16    17   ar
    24    18    19   ar
    25    18    23   ar
    26    19    20   ar
    27    20    21   ar
    28    21    22   ar
    29    22    23   ar
    30    24    25   ar
    31    24    31    1
    32    25    26   ar
    33    25    30    2
    34    26    27   ar
    35    26    29    1
    36    27    28    2
