@<TRIPOS>MOLECULE
26578_ChemDiv_5518-1658
 29 32 0 0 0
SMALL
GASTEIGER
Energy = 0

@<TRIPOS>ATOM
      1 C          -1.2330   -0.3670    0.0000 C.ar    1  LIG1        0.1026
      2 S          -1.8210   -1.1830    0.0000 S.2     1  LIG1       -0.0620
      3 C          -2.7830   -0.8790    0.0000 C.ar    1  LIG1        0.1117
      4 C          -2.7830    0.1210    0.0000 C.ar    1  LIG1        0.0409
      5 C          -1.8210    0.4330    0.0000 C.ar    1  LIG1        0.1014
      6 N          -1.5000    1.3880    0.0000 N.pl3   1  LIG1       -0.1273
      7 C          -3.6460    0.6170    0.0000 C.ar    1  LIG1        0.0003
      8 C          -4.5130    0.1210    0.0000 C.ar    1  LIG1       -0.0085
      9 C          -4.5130   -0.8830    0.0000 C.ar    1  LIG1        0.0555
     10 N          -3.6460   -1.3830    0.0000 N.ar    1  LIG1       -0.2434
     11 C          -5.3960   -1.3830    0.0000 C.3     1  LIG1        0.0455
     12 C          -6.2580   -0.8790    0.0000 C.3     1  LIG1        0.0066
     13 C          -6.2580    0.1210    0.0000 C.3     1  LIG1        0.0051
     14 C          -5.3960    0.6170    0.0000 C.3     1  LIG1        0.0276
     15 C          -0.2250   -0.3670    0.0000 C.2     1  LIG1        0.2722
     16 O           0.2630   -1.2500    0.0000 O.2     1  LIG1       -0.2678
     17 N           0.2630    0.4830    0.0000 N.am    1  LIG1       -0.2008
     18 C           1.2630    0.4830    0.0000 C.3     1  LIG1        0.1202
     19 C           1.7630   -0.3830    0.0000 C.3     1  LIG1        0.0498
     20 C           2.7460   -0.3830    0.0000 C.ar    1  LIG1       -0.0203
     21 C           3.2540    0.4710    0.0000 C.ar    1  LIG1       -0.0028
     22 C           4.2580    0.4710    0.0000 C.ar    1  LIG1        0.0197
     23 C           4.7580   -0.3960    0.0000 C.ar    1  LIG1        0.1250
     24 S           5.7580   -0.3960    0.0000 S.O2    1  LIG1        0.0935
     25 O           5.0540    0.3000    0.0000 O.2     1  LIG1       -0.1503
     26 O           6.2500   -1.2750    0.0000 O.2     1  LIG1       -0.1503
     27 N           6.2580    0.4540    0.0000 N.3     1  LIG1        0.0392
     28 C           4.2580   -1.2500    0.0000 C.ar    1  LIG1        0.0197
     29 C           3.2540   -1.2500    0.0000 C.ar    1  LIG1       -0.0028
@<TRIPOS>BOND
     1     1     2   ar
     2     1     5   ar
     3     1    15    1
     4     2     3   ar
     5     3     4   ar
     6     3    10   ar
     7     4     5   ar
     8     4     7   ar
     9     5     6    1
    10     7     8   ar
    11     8     9   ar
    12     8    14    1
    13     9    10   ar
    14     9    11    1
    15    11    12    1
    16    12    13    1
    17    13    14    1
    18    15    16    2
    19    15    17   am
    20    17    18    1
    21    18    19    1
    22    19    20    1
    23    20    21   ar
    24    20    29   ar
    25    21    22   ar
    26    22    23   ar
    27    23    24    1
    28    23    28   ar
    29    24    25    2
    30    24    26    2
    31    24    27    1
    32    28    29   ar
