@<TRIPOS>MOLECULE
26571_ChemDiv_1189-2168
 18 20 0 0 0
SMALL
GASTEIGER
Energy = 0

@<TRIPOS>ATOM
      1 C          -0.0080    1.0080    0.0000 C.ar    1  LIG1        0.1387
      2 C          -0.8830    0.5000    0.0000 C.ar    1  LIG1        0.0369
      3 C          -0.8830   -0.5170    0.0000 C.ar    1  LIG1        0.0369
      4 C          -0.0080   -1.0250    0.0000 C.ar    1  LIG1        0.1387
      5 C           0.8790   -0.5170    0.0000 C.ar    1  LIG1        0.0369
      6 C           0.8790    0.5000    0.0000 C.ar    1  LIG1        0.0369
      7 C           1.7210    1.0080    0.0000 C.ar    1  LIG1        0.0031
      8 C           2.6040    0.5000    0.0000 C.ar    1  LIG1        0.0001
      9 C           2.6040   -0.5170    0.0000 C.ar    1  LIG1        0.0001
     10 C           1.7210   -1.0250    0.0000 C.ar    1  LIG1        0.0031
     11 O          -0.0080   -2.0380    0.0000 O.3     1  LIG1       -0.4714
     12 C          -0.8000   -2.4380    0.0000 C.3     1  LIG1        0.2525
     13 C          -1.7290   -1.0250    0.0000 C.ar    1  LIG1        0.0031
     14 C          -2.6080   -0.5170    0.0000 C.ar    1  LIG1        0.0001
     15 C          -2.6080    0.5000    0.0000 C.ar    1  LIG1        0.0001
     16 C          -1.7290    1.0080    0.0000 C.ar    1  LIG1        0.0031
     17 O          -0.0080    2.0210    0.0000 O.3     1  LIG1       -0.4714
     18 C           0.8330    2.4420    0.0000 C.3     1  LIG1        0.2525
@<TRIPOS>BOND
     1     1     2   ar
     2     1     6   ar
     3     1    17    1
     4     2     3   ar
     5     2    16   ar
     6     3     4   ar
     7     3    13   ar
     8     4     5   ar
     9     4    11    1
    10     5     6   ar
    11     5    10   ar
    12     6     7   ar
    13     7     8   ar
    14     8     9   ar
    15     9    10   ar
    16    11    12    1
    17    13    14   ar
    18    14    15   ar
    19    15    16   ar
    20    17    18    1
