@<TRIPOS>MOLECULE
26577_ChemDiv_4340-2120
 24 27 0 0 0
SMALL
GASTEIGER
Energy = 0

@<TRIPOS>ATOM
      1 C           1.2420    0.7290    0.0000 C.ar    1  LIG1        0.2026
      2 N           2.1960    0.4880    0.0000 N.ar    1  LIG1       -0.1962
      3 C           2.3000   -0.4750    0.0000 C.ar    1  LIG1        0.2320
      4 O           1.4080   -0.8920    0.0000 O.2     1  LIG1       -0.4188
      5 C           0.7460   -0.1420    0.0000 C.ar    1  LIG1        0.2447
      6 N          -0.2500   -0.1420    0.0000 N.pl3   1  LIG1       -0.1984
      7 C          -0.7500   -1.0170    0.0000 C.3     1  LIG1        0.1418
      8 C          -1.7880   -1.0170    0.0000 C.ar    1  LIG1        0.0027
      9 C          -2.2830   -1.8880    0.0000 C.ar    1  LIG1        0.0376
     10 C          -3.2790   -1.8880    0.0000 C.ar    1  LIG1        0.1762
     11 C          -3.7790   -1.0170    0.0000 C.ar    1  LIG1        0.1764
     12 O          -4.7540   -1.2210    0.0000 O.3     1  LIG1       -0.4346
     13 C          -4.8580   -2.2170    0.0000 C.3     1  LIG1        0.4294
     14 O          -3.9250   -2.6130    0.0000 O.3     1  LIG1       -0.4346
     15 C          -3.2790   -0.1420    0.0000 C.ar    1  LIG1        0.0399
     16 C          -2.2830   -0.1420    0.0000 C.ar    1  LIG1        0.0008
     17 C           3.1330   -1.0540    0.0000 C.ar    1  LIG1        0.0536
     18 C           3.0710   -2.0540    0.0000 C.ar    1  LIG1        0.0047
     19 C           3.9000   -2.6130    0.0000 C.ar    1  LIG1        0.0002
     20 C           4.7920   -2.1750    0.0000 C.ar    1  LIG1        0.0000
     21 C           4.8540   -1.1790    0.0000 C.ar    1  LIG1        0.0002
     22 C           4.0670   -0.6420    0.0000 C.ar    1  LIG1        0.0047
     23 C           0.8630    1.6500    0.0000 C.1     1  LIG1        0.1245
     24 N           0.4460    2.6170    0.0000 N.1     1  LIG1       -0.1891
@<TRIPOS>BOND
     1     1     2   ar
     2     1     5   ar
     3     1    23    1
     4     2     3   ar
     5     3     4   ar
     6     3    17    1
     7     4     5   ar
     8     5     6    1
     9     6     7    1
    10     7     8    1
    11     8     9   ar
    12     8    16   ar
    13     9    10   ar
    14    10    11   ar
    15    10    14    1
    16    11    12    1
    17    11    15   ar
    18    12    13    1
    19    13    14    1
    20    15    16   ar
    21    17    18   ar
    22    17    22   ar
    23    18    19   ar
    24    19    20   ar
    25    20    21   ar
    26    21    22   ar
    27    23    24    3
