@<TRIPOS>MOLECULE
26588_ChemDiv_5867-0066
 34 38 0 0 0
SMALL
GASTEIGER
Energy = 0

@<TRIPOS>ATOM
      1 C           0.8830    0.3880    0.0000 C.ar    1  LIG1        0.1011
      2 C          -0.0170    0.7960    0.0000 C.ar    1  LIG1        0.1014
      3 C          -0.6880    0.0540    0.0000 C.ar    1  LIG1        0.0413
      4 C          -0.1920   -0.8170    0.0000 C.ar    1  LIG1        0.1118
      5 S           0.7880   -0.6040    0.0000 S.2     1  LIG1       -0.0621
      6 N          -0.6880   -1.6750    0.0000 N.ar    1  LIG1       -0.2430
      7 C          -1.6920   -1.6750    0.0000 C.ar    1  LIG1        0.0623
      8 C          -2.1880   -0.8170    0.0000 C.ar    1  LIG1        0.0484
      9 C          -1.6920    0.0540    0.0000 C.ar    1  LIG1        0.0072
     10 C          -2.1880    0.9170    0.0000 C.ar    1  LIG1        0.0004
     11 C          -3.1960    0.9170    0.0000 C.ar    1  LIG1        0.0031
     12 C          -3.6960    1.7750    0.0000 C.ar    1  LIG1        0.0369
     13 C          -3.1960    2.6500    0.0000 C.ar    1  LIG1        0.1387
     14 C          -2.1880    2.6500    0.0000 C.ar    1  LIG1        0.0369
     15 C          -1.6920    1.7830    0.0000 C.ar    1  LIG1        0.0031
     16 O          -3.6960    3.5290    0.0000 O.3     1  LIG1       -0.4714
     17 C          -4.7040    3.5290    0.0000 C.3     1  LIG1        0.2525
     18 C          -3.1960   -0.8170    0.0000 C.2     1  LIG1        0.1742
     19 C          -3.6960   -1.6750    0.0000 C.3     1  LIG1        0.0695
     20 C          -3.1960   -2.5420    0.0000 C.3     1  LIG1        0.0128
     21 C          -2.1880   -2.5420    0.0000 C.3     1  LIG1        0.0463
     22 C          -3.0210   -3.5250    0.0000 C.3     1  LIG1        0.0008
     23 C          -4.1830   -2.5420    0.0000 C.3     1  LIG1        0.0008
     24 O          -3.7000    0.0540    0.0000 O.2     1  LIG1       -0.2913
     25 N          -0.2040    1.7830    0.0000 N.pl3   1  LIG1       -0.1273
     26 C           1.7670    0.8830    0.0000 C.2     1  LIG1        0.2564
     27 N           2.6290    0.3710    0.0000 N.am    1  LIG1       -0.2756
     28 C           2.4630   -0.6080    0.0000 C.3     1  LIG1        0.0937
     29 C           3.1290   -1.3500    0.0000 C.3     1  LIG1        0.0215
     30 C           4.1130   -1.2880    0.0000 C.3     1  LIG1        0.0018
     31 C           4.7000   -0.4750    0.0000 C.3     1  LIG1        0.0018
     32 C           4.4250    0.4790    0.0000 C.3     1  LIG1        0.0215
     33 C           3.5040    0.8580    0.0000 C.3     1  LIG1        0.0937
     34 O           1.7710    1.8830    0.0000 O.2     1  LIG1       -0.2693
@<TRIPOS>BOND
     1     1     2   ar
     2     1     5   ar
     3     1    26    1
     4     2     3   ar
     5     2    25    1
     6     3     4   ar
     7     3     9   ar
     8     4     5   ar
     9     4     6   ar
    10     6     7   ar
    11     7     8   ar
    12     7    21    1
    13     8     9   ar
    14     8    18    1
    15     9    10    1
    16    10    11   ar
    17    10    15   ar
    18    11    12   ar
    19    12    13   ar
    20    13    14   ar
    21    13    16    1
    22    14    15   ar
    23    16    17    1
    24    18    19    1
    25    18    24    2
    26    19    20    1
    27    20    21    1
    28    20    22    1
    29    20    23    1
    30    26    27   am
    31    26    34    2
    32    27    28    1
    33    27    33    1
    34    28    29    1
    35    29    30    1
    36    30    31    1
    37    31    32    1
    38    32    33    1
