@<TRIPOS>MOLECULE
26582_ChemDiv_5542-0266
 26 29 0 0 0
SMALL
GASTEIGER
Energy = 0

@<TRIPOS>ATOM
      1 C           0.8460    0.6210    0.0000 C.ar    1  LIG1        0.1026
      2 S           0.2880   -0.2000    0.0000 S.2     1  LIG1       -0.0620
      3 C          -0.6630    0.1040    0.0000 C.ar    1  LIG1        0.1118
      4 C          -0.6630    1.1500    0.0000 C.ar    1  LIG1        0.0413
      5 C           0.2880    1.4380    0.0000 C.ar    1  LIG1        0.1014
      6 N           0.6380    2.4040    0.0000 N.pl3   1  LIG1       -0.1273
      7 C          -1.5330    1.6210    0.0000 C.ar    1  LIG1        0.0074
      8 C          -2.3920    1.1250    0.0000 C.ar    1  LIG1        0.0484
      9 C          -2.3920    0.1250    0.0000 C.ar    1  LIG1        0.0623
     10 N          -1.5330   -0.3880    0.0000 N.ar    1  LIG1       -0.2430
     11 C          -3.2460   -0.3880    0.0000 C.3     1  LIG1        0.0463
     12 C          -4.1290    0.1040    0.0000 C.3     1  LIG1        0.0128
     13 C          -4.1290    1.1500    0.0000 C.3     1  LIG1        0.0695
     14 C          -3.2460    1.6210    0.0000 C.2     1  LIG1        0.1742
     15 O          -3.2460    2.6380    0.0000 O.2     1  LIG1       -0.2913
     16 C          -5.1290    0.2880    0.0000 C.3     1  LIG1        0.0008
     17 C          -4.3130   -0.8670    0.0000 C.3     1  LIG1        0.0008
     18 C           1.8460    0.6210    0.0000 C.2     1  LIG1        0.2726
     19 N           2.3330   -0.2460    0.0000 N.am    1  LIG1       -0.1929
     20 C           3.3130   -0.2710    0.0000 C.3     1  LIG1        0.1794
     21 C           3.8210   -1.1290    0.0000 C.ar    1  LIG1        0.1449
     22 O           4.8210   -1.1040    0.0000 O.2     1  LIG1       -0.4529
     23 C           5.1250   -2.0580    0.0000 C.ar    1  LIG1        0.1792
     24 C           4.3330   -2.6330    0.0000 C.ar    1  LIG1        0.0435
     25 C           3.5210   -2.0750    0.0000 C.ar    1  LIG1        0.0380
     26 O           2.3500    1.4750    0.0000 O.2     1  LIG1       -0.2678
@<TRIPOS>BOND
     1     1     2   ar
     2     1     5   ar
     3     1    18    1
     4     2     3   ar
     5     3     4   ar
     6     3    10   ar
     7     4     5   ar
     8     4     7   ar
     9     5     6    1
    10     7     8   ar
    11     8     9   ar
    12     8    14    1
    13     9    10   ar
    14     9    11    1
    15    11    12    1
    16    12    13    1
    17    12    16    1
    18    12    17    1
    19    13    14    1
    20    14    15    2
    21    18    19   am
    22    18    26    2
    23    19    20    1
    24    20    21    1
    25    21    22   ar
    26    21    25   ar
    27    22    23   ar
    28    23    24   ar
    29    24    25   ar
