@<TRIPOS>MOLECULE
26580_ChemDiv_5518-1661
 26 29 0 0 0
SMALL
GASTEIGER
Energy = 0

@<TRIPOS>ATOM
      1 C          -0.2540   -1.2080    0.0000 C.ar    1  LIG1        0.1029
      2 S          -0.8380   -2.0250    0.0000 S.2     1  LIG1       -0.0620
      3 C          -1.7880   -1.6960    0.0000 C.ar    1  LIG1        0.1117
      4 C          -1.7880   -0.7000    0.0000 C.ar    1  LIG1        0.0409
      5 C          -0.8380   -0.4000    0.0000 C.ar    1  LIG1        0.1014
      6 N          -0.5210    0.5500    0.0000 N.pl3   1  LIG1       -0.1273
      7 C          -2.6540   -0.2290    0.0000 C.ar    1  LIG1        0.0003
      8 C          -3.5210   -0.7000    0.0000 C.ar    1  LIG1       -0.0085
      9 C          -3.5210   -1.7130    0.0000 C.ar    1  LIG1        0.0555
     10 N          -2.6540   -2.2250    0.0000 N.ar    1  LIG1       -0.2434
     11 C          -4.4000   -2.2250    0.0000 C.3     1  LIG1        0.0455
     12 C          -5.2670   -1.6960    0.0000 C.3     1  LIG1        0.0066
     13 C          -5.2670   -0.7000    0.0000 C.3     1  LIG1        0.0051
     14 C          -4.3830   -0.2290    0.0000 C.3     1  LIG1        0.0276
     15 C           0.7420   -1.2080    0.0000 C.2     1  LIG1        0.2764
     16 N           1.2540   -0.3630    0.0000 N.am    1  LIG1       -0.1750
     17 C           2.2500   -0.3630    0.0000 C.ar    1  LIG1        0.0737
     18 C           2.7380    0.5040    0.0000 C.ar    1  LIG1        0.0177
     19 C           3.7540    0.5000    0.0000 C.ar    1  LIG1        0.0153
     20 C           4.2630    1.3630    0.0000 C.2     1  LIG1        0.0729
     21 O           3.7540    2.2290    0.0000 O.co2   1  LIG1       -0.5446
     22 O           5.2630    1.3630    0.0000 O.co2   1  LIG1       -0.5446
     23 C           4.2460   -0.3670    0.0000 C.ar    1  LIG1        0.0012
     24 C           3.7380   -1.2250    0.0000 C.ar    1  LIG1        0.0014
     25 C           2.7380   -1.2080    0.0000 C.ar    1  LIG1        0.0166
     26 O           1.2540   -2.0920    0.0000 O.2     1  LIG1       -0.2674
@<TRIPOS>BOND
     1     1     2   ar
     2     1     5   ar
     3     1    15    1
     4     2     3   ar
     5     3     4   ar
     6     3    10   ar
     7     4     5   ar
     8     4     7   ar
     9     5     6    1
    10     7     8   ar
    11     8     9   ar
    12     8    14    1
    13     9    10   ar
    14     9    11    1
    15    11    12    1
    16    12    13    1
    17    13    14    1
    18    15    16   am
    19    15    26    2
    20    16    17    1
    21    17    18   ar
    22    17    25   ar
    23    18    19   ar
    24    19    20    1
    25    19    23   ar
    26    20    21   ar
    27    20    22   ar
    28    23    24   ar
    29    24    25   ar
