@<TRIPOS>MOLECULE
26595_ChemDiv_8012-2899
 35 39 0 0 0
SMALL
GASTEIGER
Energy = 0

@<TRIPOS>ATOM
      1 C          -0.7750   -0.1630    0.0000 C.ar    1  LIG1        0.2235
      2 N          -0.5040    0.7750    0.0000 N.ar    1  LIG1       -0.2678
      3 C          -1.3130    1.3330    0.0000 C.ar    1  LIG1        0.1577
      4 C          -2.1210    0.7000    0.0000 C.ar    1  LIG1        0.1713
      5 N          -1.7830   -0.2130    0.0000 N.ar    1  LIG1       -0.1930
      6 N          -3.0330    1.0880    0.0000 N.ar    1  LIG1       -0.2628
      7 C          -3.1920    2.0830    0.0000 C.ar    1  LIG1        0.3350
      8 N          -2.3880    2.7210    0.0000 N.ar    1  LIG1       -0.2454
      9 C          -1.4580    2.3000    0.0000 C.ar    1  LIG1        0.2835
     10 O          -0.6630    2.9420    0.0000 O.2     1  LIG1       -0.2651
     11 C          -2.5420    3.7080    0.0000 C.3     1  LIG1        0.1383
     12 O          -4.1080    2.4790    0.0000 O.2     1  LIG1       -0.2461
     13 C          -3.8380    0.4500    0.0000 C.3     1  LIG1        0.1366
     14 C           0.5130    0.7750    0.0000 C.ar    1  LIG1        0.1006
     15 C           0.8420   -0.1460    0.0000 C.ar    1  LIG1        0.0844
     16 N           0.0540   -0.7250    0.0000 N.ar    1  LIG1       -0.2732
     17 C           0.0540   -1.7380    0.0000 C.ar    1  LIG1        0.1005
     18 C          -0.7960   -2.2210    0.0000 C.ar    1  LIG1        0.1545
     19 O          -1.7130   -1.6880    0.0000 O.3     1  LIG1       -0.4740
     20 C          -2.5710   -2.1460    0.0000 C.3     1  LIG1        0.2055
     21 C          -3.4380   -1.6130    0.0000 C.3     1  LIG1        0.0473
     22 C          -4.3210   -2.0710    0.0000 C.3     1  LIG1        0.0038
     23 C          -5.1750   -1.5380    0.0000 C.3     1  LIG1        0.0001
     24 C          -0.8290   -3.2040    0.0000 C.ar    1  LIG1        0.0384
     25 C           0.0290   -3.7040    0.0000 C.ar    1  LIG1        0.0032
     26 C           0.9330   -3.2250    0.0000 C.ar    1  LIG1        0.0017
     27 C           0.9130   -2.2380    0.0000 C.ar    1  LIG1        0.0207
     28 C           1.8000   -0.3670    0.0000 C.ar    1  LIG1        0.0207
     29 C           2.4960    0.3540    0.0000 C.ar    1  LIG1        0.0384
     30 C           3.4880    0.1500    0.0000 C.ar    1  LIG1        0.1388
     31 O           4.1880    0.8210    0.0000 O.3     1  LIG1       -0.4714
     32 C           5.1750    0.5710    0.0000 C.3     1  LIG1        0.2525
     33 C           3.7290   -0.8250    0.0000 C.ar    1  LIG1        0.0369
     34 C           3.0670   -1.5580    0.0000 C.ar    1  LIG1        0.0032
     35 C           2.0920   -1.3130    0.0000 C.ar    1  LIG1        0.0017
@<TRIPOS>BOND
     1     1     2   ar
     2     1     5   ar
     3     1    16   ar
     4     2     3   ar
     5     2    14   ar
     6     3     4   ar
     7     3     9   ar
     8     4     5   ar
     9     4     6   ar
    10     6     7   ar
    11     6    13    1
    12     7     8   ar
    13     7    12    2
    14     8     9   ar
    15     8    11    1
    16     9    10    2
    17    14    15   ar
    18    15    16   ar
    19    15    28    1
    20    16    17    1
    21    17    18   ar
    22    17    27   ar
    23    18    19    1
    24    18    24   ar
    25    19    20    1
    26    20    21    1
    27    21    22    1
    28    22    23    1
    29    24    25   ar
    30    25    26   ar
    31    26    27   ar
    32    28    29   ar
    33    28    35   ar
    34    29    30   ar
    35    30    31    1
    36    30    33   ar
    37    31    32    1
    38    33    34   ar
    39    34    35   ar
