@<TRIPOS>MOLECULE
26590_ChemDiv_5867-0067
 33 37 0 0 0
SMALL
GASTEIGER
Energy = 0

@<TRIPOS>ATOM
      1 C           1.0540    0.3830    0.0000 C.ar    1  LIG1        0.1011
      2 C           0.1500    0.7960    0.0000 C.ar    1  LIG1        0.1014
      3 C          -0.5210    0.0500    0.0000 C.ar    1  LIG1        0.0413
      4 C          -0.0210   -0.8130    0.0000 C.ar    1  LIG1        0.1118
      5 S           0.9500   -0.6000    0.0000 S.2     1  LIG1       -0.0621
      6 N          -0.5210   -1.6710    0.0000 N.ar    1  LIG1       -0.2430
      7 C          -1.5290   -1.6710    0.0000 C.ar    1  LIG1        0.0623
      8 C          -2.0250   -0.8130    0.0000 C.ar    1  LIG1        0.0484
      9 C          -1.5290    0.0500    0.0000 C.ar    1  LIG1        0.0072
     10 C          -2.0250    0.9170    0.0000 C.ar    1  LIG1        0.0004
     11 C          -3.0250    0.9170    0.0000 C.ar    1  LIG1        0.0031
     12 C          -3.5210    1.7750    0.0000 C.ar    1  LIG1        0.0369
     13 C          -3.0250    2.6500    0.0000 C.ar    1  LIG1        0.1387
     14 C          -2.0250    2.6500    0.0000 C.ar    1  LIG1        0.0369
     15 C          -1.5290    1.7880    0.0000 C.ar    1  LIG1        0.0031
     16 O          -3.5250    3.5250    0.0000 O.3     1  LIG1       -0.4714
     17 C          -4.5330    3.5290    0.0000 C.3     1  LIG1        0.2525
     18 C          -3.0250   -0.8130    0.0000 C.2     1  LIG1        0.1742
     19 C          -3.5210   -1.6710    0.0000 C.3     1  LIG1        0.0695
     20 C          -3.0250   -2.5420    0.0000 C.3     1  LIG1        0.0128
     21 C          -2.0250   -2.5420    0.0000 C.3     1  LIG1        0.0463
     22 C          -2.8580   -3.5250    0.0000 C.3     1  LIG1        0.0008
     23 C          -4.0210   -2.5420    0.0000 C.3     1  LIG1        0.0008
     24 O          -3.5380    0.0540    0.0000 O.2     1  LIG1       -0.2913
     25 N          -0.0330    1.7880    0.0000 N.pl3   1  LIG1       -0.1273
     26 C           1.9330    0.8790    0.0000 C.2     1  LIG1        0.2566
     27 N           2.7920    0.3710    0.0000 N.am    1  LIG1       -0.2705
     28 C           3.6670    0.8670    0.0000 C.3     1  LIG1        0.1258
     29 C           4.5290    0.3500    0.0000 C.3     1  LIG1        0.1637
     30 O           4.5130   -0.6540    0.0000 O.3     1  LIG1       -0.3501
     31 C           3.6380   -1.1290    0.0000 C.3     1  LIG1        0.1637
     32 C           2.7790   -0.6250    0.0000 C.3     1  LIG1        0.1258
     33 O           1.9460    1.8830    0.0000 O.2     1  LIG1       -0.2693
@<TRIPOS>BOND
     1     1     2   ar
     2     1     5   ar
     3     1    26    1
     4     2     3   ar
     5     2    25    1
     6     3     4   ar
     7     3     9   ar
     8     4     5   ar
     9     4     6   ar
    10     6     7   ar
    11     7     8   ar
    12     7    21    1
    13     8     9   ar
    14     8    18    1
    15     9    10    1
    16    10    11   ar
    17    10    15   ar
    18    11    12   ar
    19    12    13   ar
    20    13    14   ar
    21    13    16    1
    22    14    15   ar
    23    16    17    1
    24    18    19    1
    25    18    24    2
    26    19    20    1
    27    20    21    1
    28    20    22    1
    29    20    23    1
    30    26    27   am
    31    26    33    2
    32    27    28    1
    33    27    32    1
    34    28    29    1
    35    29    30    1
    36    30    31    1
    37    31    32    1
