@<TRIPOS>MOLECULE
26592_ChemDiv_5867-0089
 32 36 0 0 0
SMALL
GASTEIGER
Energy = 0

@<TRIPOS>ATOM
      1 C           0.6290    0.8250    0.0000 C.ar    1  LIG1        0.1011
      2 C          -0.2790    1.2330    0.0000 C.ar    1  LIG1        0.1014
      3 C          -0.9500    0.4920    0.0000 C.ar    1  LIG1        0.0413
      4 C          -0.4500   -0.3790    0.0000 C.ar    1  LIG1        0.1118
      5 S           0.5210   -0.1670    0.0000 S.2     1  LIG1       -0.0621
      6 N          -0.9500   -1.2420    0.0000 N.ar    1  LIG1       -0.2430
      7 C          -1.9580   -1.2420    0.0000 C.ar    1  LIG1        0.0623
      8 C          -2.4540   -0.3790    0.0000 C.ar    1  LIG1        0.0484
      9 C          -1.9580    0.4920    0.0000 C.ar    1  LIG1        0.0072
     10 C          -2.4540    1.3540    0.0000 C.ar    1  LIG1        0.0002
     11 C          -3.4540    1.3540    0.0000 C.ar    1  LIG1        0.0000
     12 C          -3.9540    2.2170    0.0000 C.ar    1  LIG1        0.0000
     13 C          -3.4540    3.0920    0.0000 C.ar    1  LIG1        0.0000
     14 C          -2.4540    3.0920    0.0000 C.ar    1  LIG1        0.0000
     15 C          -1.9580    2.2210    0.0000 C.ar    1  LIG1        0.0000
     16 C          -3.4540   -0.3790    0.0000 C.2     1  LIG1        0.1742
     17 C          -3.9540   -1.2420    0.0000 C.3     1  LIG1        0.0695
     18 C          -3.4540   -2.1080    0.0000 C.3     1  LIG1        0.0128
     19 C          -2.4540   -2.1080    0.0000 C.3     1  LIG1        0.0463
     20 C          -3.2880   -3.0880    0.0000 C.3     1  LIG1        0.0008
     21 C          -4.4500   -2.1080    0.0000 C.3     1  LIG1        0.0008
     22 O          -3.9670    0.4920    0.0000 O.2     1  LIG1       -0.2913
     23 N          -0.4630    2.2210    0.0000 N.pl3   1  LIG1       -0.1273
     24 C           1.5040    1.3250    0.0000 C.2     1  LIG1        0.2564
     25 N           2.3670    0.8130    0.0000 N.am    1  LIG1       -0.2756
     26 C           3.2420    1.3000    0.0000 C.3     1  LIG1        0.0937
     27 C           4.1670    0.9170    0.0000 C.3     1  LIG1        0.0215
     28 C           4.4460   -0.0380    0.0000 C.3     1  LIG1        0.0018
     29 C           3.8630   -0.8500    0.0000 C.3     1  LIG1        0.0018
     30 C           2.8750   -0.9130    0.0000 C.3     1  LIG1        0.0215
     31 C           2.2000   -0.1710    0.0000 C.3     1  LIG1        0.0937
     32 O           1.5210    2.3210    0.0000 O.2     1  LIG1       -0.2693
@<TRIPOS>BOND
     1     1     2   ar
     2     1     5   ar
     3     1    24    1
     4     2     3   ar
     5     2    23    1
     6     3     4   ar
     7     3     9   ar
     8     4     5   ar
     9     4     6   ar
    10     6     7   ar
    11     7     8   ar
    12     7    19    1
    13     8     9   ar
    14     8    16    1
    15     9    10    1
    16    10    11   ar
    17    10    15   ar
    18    11    12   ar
    19    12    13   ar
    20    13    14   ar
    21    14    15   ar
    22    16    17    1
    23    16    22    2
    24    17    18    1
    25    18    19    1
    26    18    20    1
    27    18    21    1
    28    24    25   am
    29    24    32    2
    30    25    26    1
    31    25    31    1
    32    26    27    1
    33    27    28    1
    34    28    29    1
    35    29    30    1
    36    30    31    1
