@<TRIPOS>MOLECULE
26597_ChemDiv_8012-3868
 30 34 0 0 0
SMALL
GASTEIGER
Energy = 0

@<TRIPOS>ATOM
      1 C          -1.6380   -0.2960    0.0000 C.ar    1  LIG1        0.1577
      2 C          -1.6380   -1.3210    0.0000 C.ar    1  LIG1        0.1713
      3 N          -0.6960   -1.6210    0.0000 N.ar    1  LIG1       -0.1930
      4 C          -0.1170   -0.8250    0.0000 C.ar    1  LIG1        0.2234
      5 N          -0.6960    0.0040    0.0000 N.ar    1  LIG1       -0.2678
      6 C          -0.1170    0.7960    0.0000 C.ar    1  LIG1        0.1006
      7 C           0.8540    0.4790    0.0000 C.ar    1  LIG1        0.0842
      8 N           0.8460   -0.5170    0.0000 N.ar    1  LIG1       -0.2762
      9 C           1.6540   -1.0880    0.0000 C.ar    1  LIG1        0.0664
     10 C           2.5460   -0.6830    0.0000 C.ar    1  LIG1        0.0134
     11 C           3.3670   -1.2330    0.0000 C.ar    1  LIG1       -0.0204
     12 C           3.3000   -2.2290    0.0000 C.ar    1  LIG1       -0.0042
     13 C           2.3960   -2.6630    0.0000 C.ar    1  LIG1        0.0012
     14 C           1.5830   -2.0960    0.0000 C.ar    1  LIG1        0.0176
     15 C           4.2500   -0.7920    0.0000 C.3     1  LIG1        0.0311
     16 C           1.6750    1.0380    0.0000 C.ar    1  LIG1        0.0177
     17 C           2.6040    0.6330    0.0000 C.ar    1  LIG1        0.0020
     18 C           3.4080    1.2040    0.0000 C.ar    1  LIG1        0.0067
     19 C           3.3210    2.2250    0.0000 C.ar    1  LIG1        0.0346
     20 C           2.4000    2.6170    0.0000 C.ar    1  LIG1        0.0067
     21 C           1.6000    2.0330    0.0000 C.ar    1  LIG1        0.0020
     22 BR          4.1130    2.8210    0.0000 Br      1  LIG1       -0.0490
     23 N          -2.5040   -1.8210    0.0000 N.ar    1  LIG1       -0.2628
     24 C          -3.3710   -1.3210    0.0000 C.ar    1  LIG1        0.3350
     25 N          -3.3710   -0.2960    0.0000 N.ar    1  LIG1       -0.2454
     26 C          -2.5040    0.2040    0.0000 C.ar    1  LIG1        0.2835
     27 O          -2.5040    1.1960    0.0000 O.2     1  LIG1       -0.2651
     28 C          -4.2540    0.2040    0.0000 C.3     1  LIG1        0.1383
     29 O          -4.2540   -1.8210    0.0000 O.2     1  LIG1       -0.2461
     30 C          -2.5040   -2.8170    0.0000 C.3     1  LIG1        0.1366
@<TRIPOS>BOND
     1     1     2   ar
     2     1     5   ar
     3     1    26   ar
     4     2     3   ar
     5     2    23   ar
     6     3     4   ar
     7     4     5   ar
     8     4     8   ar
     9     5     6   ar
    10     6     7   ar
    11     7     8   ar
    12     7    16    1
    13     8     9    1
    14     9    10   ar
    15     9    14   ar
    16    10    11   ar
    17    11    12   ar
    18    11    15    1
    19    12    13   ar
    20    13    14   ar
    21    16    17   ar
    22    16    21   ar
    23    17    18   ar
    24    18    19   ar
    25    19    20   ar
    26    19    22    1
    27    20    21   ar
    28    23    24   ar
    29    23    30    1
    30    24    25   ar
    31    24    29    2
    32    25    26   ar
    33    25    28    1
    34    26    27    2
