@<TRIPOS>MOLECULE
26603_ChemDiv_8012-8976
 31 35 0 0 0
SMALL
GASTEIGER
Energy = 0

@<TRIPOS>ATOM
      1 C          -2.1000   -0.1330    0.0000 C.ar    1  LIG1        0.1577
      2 C          -2.1000   -1.1330    0.0000 C.ar    1  LIG1        0.1713
      3 N          -1.1290   -1.4290    0.0000 N.ar    1  LIG1       -0.1930
      4 C          -0.5750   -0.6250    0.0000 C.ar    1  LIG1        0.2234
      5 N          -1.1460    0.1920    0.0000 N.ar    1  LIG1       -0.2678
      6 C          -0.5630    1.0000    0.0000 C.ar    1  LIG1        0.1006
      7 C           0.3960    0.6750    0.0000 C.ar    1  LIG1        0.0842
      8 N           0.3830   -0.3080    0.0000 N.ar    1  LIG1       -0.2762
      9 C           1.1880   -0.8670    0.0000 C.ar    1  LIG1        0.0669
     10 C           2.0880   -0.4580    0.0000 C.ar    1  LIG1        0.0209
     11 C           2.8920   -1.0080    0.0000 C.ar    1  LIG1        0.0435
     12 C           2.8130   -2.0080    0.0000 C.ar    1  LIG1        0.1958
     13 C           1.9000   -2.4170    0.0000 C.ar    1  LIG1        0.0435
     14 C           1.1080   -1.8580    0.0000 C.ar    1  LIG1        0.0209
     15 O           3.6130   -2.5830    0.0000 O.3     1  LIG1       -0.2866
     16 C           1.2380    1.1750    0.0000 C.ar    1  LIG1        0.0179
     17 C           2.1210    0.6830    0.0000 C.ar    1  LIG1        0.0046
     18 C           2.9960    1.1830    0.0000 C.ar    1  LIG1        0.0369
     19 C           2.9960    2.1880    0.0000 C.ar    1  LIG1        0.1387
     20 C           2.1210    2.6960    0.0000 C.ar    1  LIG1        0.0369
     21 C           1.2580    2.1880    0.0000 C.ar    1  LIG1        0.0046
     22 O           3.8710    2.6750    0.0000 O.3     1  LIG1       -0.4714
     23 C           4.7210    2.1710    0.0000 C.3     1  LIG1        0.2525
     24 N          -2.9500   -1.6580    0.0000 N.ar    1  LIG1       -0.2628
     25 C          -3.8250   -1.1580    0.0000 C.ar    1  LIG1        0.3350
     26 N          -3.8330   -0.1670    0.0000 N.ar    1  LIG1       -0.2454
     27 C          -2.9750    0.3420    0.0000 C.ar    1  LIG1        0.2835
     28 O          -3.0080    1.3710    0.0000 O.2     1  LIG1       -0.2651
     29 C          -4.7250    0.3080    0.0000 C.3     1  LIG1        0.1383
     30 O          -4.7250   -1.6750    0.0000 O.2     1  LIG1       -0.2461
     31 C          -2.9500   -2.6920    0.0000 C.3     1  LIG1        0.1366
@<TRIPOS>BOND
     1     1     2   ar
     2     1     5   ar
     3     1    27   ar
     4     2     3   ar
     5     2    24   ar
     6     3     4   ar
     7     4     5   ar
     8     4     8   ar
     9     5     6   ar
    10     6     7   ar
    11     7     8   ar
    12     7    16    1
    13     8     9    1
    14     9    10   ar
    15     9    14   ar
    16    10    11   ar
    17    11    12   ar
    18    12    13   ar
    19    12    15    1
    20    13    14   ar
    21    16    17   ar
    22    16    21   ar
    23    17    18   ar
    24    18    19   ar
    25    19    20   ar
    26    19    22    1
    27    20    21   ar
    28    22    23    1
    29    24    25   ar
    30    24    31    1
    31    25    26   ar
    32    25    30    2
    33    26    27   ar
    34    26    29    1
    35    27    28    2
