@<TRIPOS>MOLECULE
26601_ChemDiv_8012-6866
 29 33 0 0 0
SMALL
GASTEIGER
Energy = 0

@<TRIPOS>ATOM
      1 C          -1.5500   -0.1330    0.0000 C.ar    1  LIG1        0.1577
      2 C          -1.5500   -1.1330    0.0000 C.ar    1  LIG1        0.1713
      3 N          -0.5830   -1.4250    0.0000 N.ar    1  LIG1       -0.1930
      4 C          -0.0290   -0.6250    0.0000 C.ar    1  LIG1        0.2234
      5 N          -0.6000    0.1920    0.0000 N.ar    1  LIG1       -0.2678
      6 C          -0.0130    1.0000    0.0000 C.ar    1  LIG1        0.1006
      7 C           0.9420    0.6710    0.0000 C.ar    1  LIG1        0.0842
      8 N           0.9290   -0.3080    0.0000 N.ar    1  LIG1       -0.2762
      9 C           1.7330   -0.8670    0.0000 C.ar    1  LIG1        0.0667
     10 C           1.6540   -1.8580    0.0000 C.ar    1  LIG1        0.0173
     11 C           2.4460   -2.4170    0.0000 C.ar    1  LIG1       -0.0028
     12 C           3.3580   -2.0080    0.0000 C.ar    1  LIG1       -0.0218
     13 C           3.4380   -1.0080    0.0000 C.ar    1  LIG1       -0.0028
     14 C           2.6330   -0.4580    0.0000 C.ar    1  LIG1        0.0173
     15 C           4.1710   -2.5790    0.0000 C.3     1  LIG1        0.0310
     16 C           1.7830    1.1750    0.0000 C.ar    1  LIG1        0.0177
     17 C           1.8040    2.1880    0.0000 C.ar    1  LIG1        0.0015
     18 C           2.6670    2.6920    0.0000 C.ar    1  LIG1        0.0000
     19 C           3.5380    2.1880    0.0000 C.ar    1  LIG1        0.0000
     20 C           3.5380    1.1830    0.0000 C.ar    1  LIG1        0.0000
     21 C           2.6670    0.6830    0.0000 C.ar    1  LIG1        0.0015
     22 N          -2.4040   -1.6580    0.0000 N.ar    1  LIG1       -0.2628
     23 C          -3.2750   -1.1580    0.0000 C.ar    1  LIG1        0.3350
     24 N          -3.2830   -0.1670    0.0000 N.ar    1  LIG1       -0.2454
     25 C          -2.4250    0.3420    0.0000 C.ar    1  LIG1        0.2835
     26 O          -2.4630    1.3670    0.0000 O.2     1  LIG1       -0.2651
     27 C          -4.1750    0.3080    0.0000 C.3     1  LIG1        0.1383
     28 O          -4.1750   -1.6750    0.0000 O.2     1  LIG1       -0.2461
     29 C          -2.4040   -2.6880    0.0000 C.3     1  LIG1        0.1366
@<TRIPOS>BOND
     1     1     2   ar
     2     1     5   ar
     3     1    25   ar
     4     2     3   ar
     5     2    22   ar
     6     3     4   ar
     7     4     5   ar
     8     4     8   ar
     9     5     6   ar
    10     6     7   ar
    11     7     8   ar
    12     7    16    1
    13     8     9    1
    14     9    10   ar
    15     9    14   ar
    16    10    11   ar
    17    11    12   ar
    18    12    13   ar
    19    12    15    1
    20    13    14   ar
    21    16    17   ar
    22    16    21   ar
    23    17    18   ar
    24    18    19   ar
    25    19    20   ar
    26    20    21   ar
    27    22    23   ar
    28    22    29    1
    29    23    24   ar
    30    23    28    2
    31    24    25   ar
    32    24    27    1
    33    25    26    2
