@<TRIPOS>MOLECULE
26605_ChemDiv_8012-9825
 29 33 0 0 0
SMALL
GASTEIGER
Energy = 0

@<TRIPOS>ATOM
      1 C          -2.0710    1.4630    0.0000 C.ar    1  LIG1        0.1577
      2 C          -2.0710    0.5170    0.0000 C.ar    1  LIG1        0.1713
      3 N          -1.2500    0.0630    0.0000 N.ar    1  LIG1       -0.1930
      4 C          -0.4500    0.5170    0.0000 C.ar    1  LIG1        0.2234
      5 N          -0.4500    1.4630    0.0000 N.ar    1  LIG1       -0.2678
      6 C           1.1790    1.4630    0.0000 C.ar    1  LIG1        0.1006
      7 C           1.1790    0.5170    0.0000 C.ar    1  LIG1        0.0842
      8 N           0.3880    0.0630    0.0000 N.ar    1  LIG1       -0.2762
      9 C           0.3880   -0.8790    0.0000 C.ar    1  LIG1        0.0667
     10 C          -0.4790   -1.4000    0.0000 C.ar    1  LIG1        0.0176
     11 C          -0.4790   -2.3830    0.0000 C.ar    1  LIG1        0.0015
     12 C           0.3880   -2.9000    0.0000 C.ar    1  LIG1        0.0001
     13 C           1.2460   -2.3830    0.0000 C.ar    1  LIG1        0.0015
     14 C           1.2460   -1.4210    0.0000 C.ar    1  LIG1        0.0176
     15 C           1.9920    0.0540    0.0000 C.ar    1  LIG1        0.0177
     16 C           1.9920   -0.8960    0.0000 C.ar    1  LIG1        0.0024
     17 C           2.8670   -1.3830    0.0000 C.ar    1  LIG1        0.0114
     18 C           3.6790   -0.8960    0.0000 C.ar    1  LIG1        0.0577
     19 C           3.6790    0.0630    0.0000 C.ar    1  LIG1        0.0114
     20 C           2.8290    0.5170    0.0000 C.ar    1  LIG1        0.0024
     21 CL          4.5420   -1.4000    0.0000 Cl      1  LIG1       -0.0822
     22 N          -2.8830    0.0630    0.0000 N.ar    1  LIG1       -0.2628
     23 C          -3.6960    0.5170    0.0000 C.ar    1  LIG1        0.3350
     24 N          -3.6960    1.4630    0.0000 N.ar    1  LIG1       -0.2454
     25 C          -2.8830    1.9170    0.0000 C.ar    1  LIG1        0.2835
     26 O          -2.8830    2.9040    0.0000 O.2     1  LIG1       -0.2651
     27 C          -4.5460    1.9460    0.0000 C.3     1  LIG1        0.1383
     28 O          -4.5460    0.0380    0.0000 O.2     1  LIG1       -0.2461
     29 C          -2.8830   -0.8880    0.0000 C.3     1  LIG1        0.1366
@<TRIPOS>BOND
     1     1     2   ar
     2     1     5   ar
     3     1    25   ar
     4     2     3   ar
     5     2    22   ar
     6     3     4   ar
     7     4     5   ar
     8     4     8   ar
     9     5     6   ar
    10     6     7   ar
    11     7     8   ar
    12     7    15    1
    13     8     9    1
    14     9    10   ar
    15     9    14   ar
    16    10    11   ar
    17    11    12   ar
    18    12    13   ar
    19    13    14   ar
    20    15    16   ar
    21    15    20   ar
    22    16    17   ar
    23    17    18   ar
    24    18    19   ar
    25    18    21    1
    26    19    20   ar
    27    22    23   ar
    28    22    29    1
    29    23    24   ar
    30    23    28    2
    31    24    25   ar
    32    24    27    1
    33    25    26    2
