@<TRIPOS>MOLECULE
26610_ChemDiv_8002-0385
 23 26 0 0 0
SMALL
GASTEIGER
Energy = 0

@<TRIPOS>ATOM
      1 C           0.7290   -0.9960    0.0000 C.ar    1  LIG1        0.0865
      2 S           0.1540   -1.8290    0.0000 S.2     1  LIG1       -0.0634
      3 C          -0.8290   -1.5040    0.0000 C.ar    1  LIG1        0.1117
      4 C          -0.8290   -0.5170    0.0000 C.ar    1  LIG1        0.0409
      5 C           0.1540   -0.1960    0.0000 C.ar    1  LIG1        0.1001
      6 N           0.4710    0.7630    0.0000 N.pl3   1  LIG1       -0.1274
      7 C          -1.6960   -0.0040    0.0000 C.ar    1  LIG1        0.0003
      8 C          -2.5710   -0.5170    0.0000 C.ar    1  LIG1       -0.0085
      9 C          -2.5710   -1.5040    0.0000 C.ar    1  LIG1        0.0555
     10 N          -1.6960   -2.0210    0.0000 N.ar    1  LIG1       -0.2434
     11 C          -3.4460   -2.0210    0.0000 C.3     1  LIG1        0.0455
     12 C          -4.3210   -1.5040    0.0000 C.3     1  LIG1        0.0066
     13 C          -4.3210   -0.5170    0.0000 C.3     1  LIG1        0.0051
     14 C          -3.4460   -0.0040    0.0000 C.3     1  LIG1        0.0276
     15 C           1.7290   -0.9960    0.0000 C.2     1  LIG1        0.2028
     16 C           2.3670   -0.2420    0.0000 C.ar    1  LIG1        0.0396
     17 C           2.0380    0.6960    0.0000 C.ar    1  LIG1        0.0041
     18 C           2.6750    1.4580    0.0000 C.ar    1  LIG1        0.0115
     19 C           3.6670    1.2750    0.0000 C.ar    1  LIG1        0.0577
     20 C           3.9960    0.3460    0.0000 C.ar    1  LIG1        0.0115
     21 C           3.3460   -0.4080    0.0000 C.ar    1  LIG1        0.0041
     22 CL          4.3170    2.0250    0.0000 Cl      1  LIG1       -0.0822
     23 O           1.9960   -1.8580    0.0000 O.2     1  LIG1       -0.2860
@<TRIPOS>BOND
     1     1     2   ar
     2     1     5   ar
     3     1    15    1
     4     2     3   ar
     5     3     4   ar
     6     3    10   ar
     7     4     5   ar
     8     4     7   ar
     9     5     6    1
    10     7     8   ar
    11     8     9   ar
    12     8    14    1
    13     9    10   ar
    14     9    11    1
    15    11    12    1
    16    12    13    1
    17    13    14    1
    18    15    16    1
    19    15    23    2
    20    16    17   ar
    21    16    21   ar
    22    17    18   ar
    23    18    19   ar
    24    19    20   ar
    25    19    22    1
    26    20    21   ar
