@<TRIPOS>MOLECULE
26616_ChemDiv_K891-0180
 22 25 0 0 0
SMALL
GASTEIGER
Energy = 0

@<TRIPOS>ATOM
      1 C           0.2960   -0.5330    0.0000 C.ar    1  LIG1        0.0438
      2 C           1.2880   -0.5170    0.0000 C.ar    1  LIG1        0.1016
      3 C           1.5960   -1.4790    0.0000 C.ar    1  LIG1        0.1042
      4 S           0.8000   -2.0670    0.0000 S.2     1  LIG1       -0.0620
      5 C          -0.0170   -1.4830    0.0000 C.ar    1  LIG1        0.1118
      6 N          -0.9830   -1.7000    0.0000 N.ar    1  LIG1       -0.2434
      7 C          -1.6580   -0.9580    0.0000 C.ar    1  LIG1        0.0556
      8 C          -1.3500   -0.0080    0.0000 C.ar    1  LIG1       -0.0056
      9 C          -0.3830    0.2080    0.0000 C.ar    1  LIG1        0.0350
     10 C          -0.0710    1.1580    0.0000 C.ar    1  LIG1        0.1453
     11 O           0.9000    1.3750    0.0000 O.2     1  LIG1       -0.4504
     12 C           0.9960    2.3670    0.0000 C.ar    1  LIG1        0.1796
     13 C           0.0960    2.7670    0.0000 C.ar    1  LIG1        0.0438
     14 C          -0.5830    2.0170    0.0000 C.ar    1  LIG1        0.0407
     15 C          -2.0250    0.7380    0.0000 C.3     1  LIG1        0.0277
     16 C          -3.0040    0.5210    0.0000 C.3     1  LIG1        0.0051
     17 C          -3.3040   -0.4330    0.0000 C.3     1  LIG1        0.0066
     18 C          -2.6380   -1.1750    0.0000 C.3     1  LIG1        0.0455
     19 C           2.5540   -1.7830    0.0000 C.2     1  LIG1        0.2916
     20 O           2.7710   -2.7630    0.0000 O.2     1  LIG1       -0.2661
     21 N           3.3000   -1.1000    0.0000 N.am    1  LIG1       -0.0832
     22 N           1.8790    0.2920    0.0000 N.pl3   1  LIG1       -0.1273
@<TRIPOS>BOND
     1     1     2   ar
     2     1     5   ar
     3     1     9   ar
     4     2     3   ar
     5     2    22    1
     6     3     4   ar
     7     3    19    1
     8     4     5   ar
     9     5     6   ar
    10     6     7   ar
    11     7     8   ar
    12     7    18    1
    13     8     9   ar
    14     8    15    1
    15     9    10    1
    16    10    11   ar
    17    10    14   ar
    18    11    12   ar
    19    12    13   ar
    20    13    14   ar
    21    15    16    1
    22    16    17    1
    23    17    18    1
    24    19    20    2
    25    19    21   am
