@<TRIPOS>MOLECULE
26612_ChemDiv_8017-2288
 22 25 0 0 0
SMALL
GASTEIGER
Energy = 0

@<TRIPOS>ATOM
      1 C          -0.9210    0.0210    0.0000 C.ar    1  LIG1        0.0897
      2 C          -0.9210   -0.9670    0.0000 C.ar    1  LIG1        0.3268
      3 S          -1.7710   -1.4790    0.0000 S.2     1  LIG1       -0.0172
      4 C          -2.6210   -0.9790    0.0000 C.ar    1  LIG1        0.0092
      5 C          -2.6130    0.0040    0.0000 C.ar    1  LIG1       -0.0122
      6 C          -3.4580    0.4920    0.0000 C.3     1  LIG1        0.0268
      7 C          -4.3210    0.0130    0.0000 C.3     1  LIG1        0.0050
      8 C          -4.3210   -0.9750    0.0000 C.3     1  LIG1        0.0055
      9 C          -3.4710   -1.4750    0.0000 C.3     1  LIG1        0.0328
     10 N          -0.0750   -1.4670    0.0000 N.ar    1  LIG1        0.0780
     11 C           0.7790   -0.9790    0.0000 C.ar    1  LIG1        0.2719
     12 C           0.7920    0.0040    0.0000 C.ar    1  LIG1        0.0604
     13 C          -0.0580    0.5040    0.0000 C.ar    1  LIG1        0.0968
     14 N          -0.0460    1.4830    0.0000 N.pl3   1  LIG1       -0.1280
     15 C           1.6500    0.4790    0.0000 C.3     1  LIG1        0.0336
     16 C           2.4920   -0.0250    0.0000 C.3     1  LIG1        0.0051
     17 C           3.3540    0.4540    0.0000 C.3     1  LIG1        0.0003
     18 C           3.8750   -0.1420    0.0000 C.3     1  LIG1        0.0000
     19 C           2.9380    1.0540    0.0000 C.3     1  LIG1        0.0000
     20 C           4.3170    1.0170    0.0000 C.3     1  LIG1        0.0000
     21 C           2.4790   -1.0040    0.0000 C.3     1  LIG1        0.0116
     22 C           1.6170   -1.4790    0.0000 C.3     1  LIG1        0.1036
@<TRIPOS>BOND
     1     1     2   ar
     2     1     5   ar
     3     1    13   ar
     4     2     3   ar
     5     2    10   ar
     6     3     4   ar
     7     4     5   ar
     8     4     9    1
     9     5     6    1
    10     6     7    1
    11     7     8    1
    12     8     9    1
    13    10    11   ar
    14    11    12   ar
    15    11    22    1
    16    12    13   ar
    17    12    15    1
    18    13    14    1
    19    15    16    1
    20    16    17    1
    21    16    21    1
    22    17    18    1
    23    17    19    1
    24    17    20    1
    25    21    22    1
