@<TRIPOS>MOLECULE
26614_ChemDiv_K891-0150
 23 26 0 0 0
SMALL
GASTEIGER
Energy = 0

@<TRIPOS>ATOM
      1 C           0.1330   -1.1540    0.0000 C.ar    1  LIG1        0.0409
      2 C           1.1250   -1.1420    0.0000 C.ar    1  LIG1        0.1015
      3 C           1.4330   -2.0960    0.0000 C.ar    1  LIG1        0.1042
      4 S           0.6420   -2.6920    0.0000 S.2     1  LIG1       -0.0620
      5 C          -0.1750   -2.1040    0.0000 C.ar    1  LIG1        0.1117
      6 N          -1.1540   -2.3210    0.0000 N.ar    1  LIG1       -0.2434
      7 C          -1.8210   -1.5790    0.0000 C.ar    1  LIG1        0.0556
      8 C          -1.5210   -0.6250    0.0000 C.ar    1  LIG1       -0.0085
      9 C          -0.5420   -0.4080    0.0000 C.ar    1  LIG1        0.0004
     10 C          -0.2380    0.5420    0.0000 C.ar    1  LIG1       -0.0002
     11 C          -0.9040    1.2710    0.0000 C.ar    1  LIG1       -0.0003
     12 C          -0.5920    2.2040    0.0000 C.ar    1  LIG1       -0.0043
     13 C           0.3920    2.4380    0.0000 C.ar    1  LIG1       -0.0218
     14 C           1.0580    1.6880    0.0000 C.ar    1  LIG1       -0.0043
     15 C           0.7500    0.7580    0.0000 C.ar    1  LIG1       -0.0003
     16 C           0.7000    3.4000    0.0000 C.3     1  LIG1        0.0310
     17 C          -2.3380   -0.0420    0.0000 C.3     1  LIG1        0.0279
     18 C          -3.1380   -0.6380    0.0000 C.3     1  LIG1        0.0110
     19 C          -2.8210   -1.5790    0.0000 C.3     1  LIG1        0.0458
     20 C           2.3960   -2.4130    0.0000 C.2     1  LIG1        0.2916
     21 O           2.6000   -3.3960    0.0000 O.2     1  LIG1       -0.2661
     22 N           3.1330   -1.7460    0.0000 N.am    1  LIG1       -0.0832
     23 N           1.7170   -0.3250    0.0000 N.pl3   1  LIG1       -0.1273
@<TRIPOS>BOND
     1     1     2   ar
     2     1     5   ar
     3     1     9   ar
     4     2     3   ar
     5     2    23    1
     6     3     4   ar
     7     3    20    1
     8     4     5   ar
     9     5     6   ar
    10     6     7   ar
    11     7     8   ar
    12     7    19    1
    13     8     9   ar
    14     8    17    1
    15     9    10    1
    16    10    11   ar
    17    10    15   ar
    18    11    12   ar
    19    12    13   ar
    20    13    14   ar
    21    13    16    1
    22    14    15   ar
    23    17    18    1
    24    18    19    1
    25    20    21    2
    26    20    22   am
