@<TRIPOS>MOLECULE
26627_ChemDiv_8014-9028
 33 38 0 0 0
SMALL
GASTEIGER
Energy = 0

@<TRIPOS>ATOM
      1 C          -0.3000    0.2330    0.0000 C.ar    1  LIG1        0.2231
      2 N          -0.3000    1.2330    0.0000 N.ar    1  LIG1       -0.2731
      3 C          -1.2500    1.5380    0.0000 C.ar    1  LIG1        0.1574
      4 C          -1.8380    0.7330    0.0000 C.ar    1  LIG1        0.1713
      5 N          -1.2500   -0.0750    0.0000 N.ar    1  LIG1       -0.1930
      6 N          -2.8330    0.8380    0.0000 N.ar    1  LIG1       -0.2628
      7 C          -3.2420    1.7500    0.0000 C.ar    1  LIG1        0.3350
      8 N          -2.6500    2.5580    0.0000 N.ar    1  LIG1       -0.2454
      9 C          -1.6580    2.4540    0.0000 C.ar    1  LIG1        0.2835
     10 O          -1.1580    3.3210    0.0000 O.2     1  LIG1       -0.2651
     11 C          -3.1540    3.4250    0.0000 C.3     1  LIG1        0.1383
     12 O          -4.2420    1.7500    0.0000 O.2     1  LIG1       -0.2461
     13 C          -3.3330   -0.0290    0.0000 C.3     1  LIG1        0.1366
     14 C           0.6540    1.5380    0.0000 C.ar    1  LIG1        0.0604
     15 C           1.2380    0.7380    0.0000 C.ar    1  LIG1        0.0786
     16 N           0.6540   -0.0750    0.0000 N.ar    1  LIG1       -0.2764
     17 C           1.1500   -0.9460    0.0000 C.ar    1  LIG1        0.0699
     18 C           2.1500   -0.9460    0.0000 C.ar    1  LIG1        0.0578
     19 C           2.6500   -1.8080    0.0000 C.ar    1  LIG1        0.1779
     20 C           2.1500   -2.6750    0.0000 C.ar    1  LIG1        0.1765
     21 O           2.8250   -3.4210    0.0000 O.3     1  LIG1       -0.4346
     22 C           3.7330   -3.0170    0.0000 C.3     1  LIG1        0.4294
     23 O           3.6290   -2.0170    0.0000 O.3     1  LIG1       -0.4346
     24 C           1.1500   -2.6750    0.0000 C.ar    1  LIG1        0.0417
     25 C           0.6540   -1.8080    0.0000 C.ar    1  LIG1        0.0209
     26 C           2.2380    0.7380    0.0000 C.ar    1  LIG1        0.0173
     27 C           2.7380   -0.1330    0.0000 C.ar    1  LIG1        0.0015
     28 C           3.7380   -0.1330    0.0000 C.ar    1  LIG1        0.0000
     29 C           4.2380    0.7380    0.0000 C.ar    1  LIG1        0.0000
     30 C           3.7380    1.6000    0.0000 C.ar    1  LIG1        0.0000
     31 C           2.7380    1.6000    0.0000 C.ar    1  LIG1        0.0015
     32 C           1.1500    2.4080    0.0000 C.3     1  LIG1        0.0458
     33 C           2.1500    2.4080    0.0000 C.3     1  LIG1        0.0067
@<TRIPOS>BOND
     1     1     2   ar
     2     1     5   ar
     3     1    16   ar
     4     2     3   ar
     5     2    14   ar
     6     3     4   ar
     7     3     9   ar
     8     4     5   ar
     9     4     6   ar
    10     6     7   ar
    11     6    13    1
    12     7     8   ar
    13     7    12    2
    14     8     9   ar
    15     8    11    1
    16     9    10    2
    17    14    15   ar
    18    14    32    1
    19    15    16   ar
    20    15    26    1
    21    16    17    1
    22    17    18   ar
    23    17    25   ar
    24    18    19   ar
    25    19    20   ar
    26    19    23    1
    27    20    21    1
    28    20    24   ar
    29    21    22    1
    30    22    23    1
    31    24    25   ar
    32    26    27   ar
    33    26    31   ar
    34    27    28   ar
    35    28    29   ar
    36    29    30   ar
    37    30    31   ar
    38    32    33    1
