@<TRIPOS>MOLECULE
26620_ChemDiv_K891-0207
 25 28 0 0 0
SMALL
GASTEIGER
Energy = 0

@<TRIPOS>ATOM
      1 C          -1.0170   -0.5330    0.0000 C.ar    1  LIG1        0.0415
      2 C          -0.0250   -0.5170    0.0000 C.ar    1  LIG1        0.1033
      3 C           0.2830   -1.4790    0.0000 C.ar    1  LIG1        0.1232
      4 S          -0.5130   -2.0670    0.0000 S.2     1  LIG1       -0.0602
      5 C          -1.3290   -1.4830    0.0000 C.ar    1  LIG1        0.1118
      6 N          -2.2960   -1.7000    0.0000 N.ar    1  LIG1       -0.2434
      7 C          -2.9710   -0.9630    0.0000 C.ar    1  LIG1        0.0556
      8 C          -2.6670   -0.0080    0.0000 C.ar    1  LIG1       -0.0080
      9 C          -1.6960    0.2080    0.0000 C.ar    1  LIG1        0.0064
     10 C          -1.3830    1.1580    0.0000 C.ar    1  LIG1        0.0293
     11 S          -0.4130    1.3750    0.0000 S.2     1  LIG1       -0.0864
     12 C          -0.3170    2.3670    0.0000 C.ar    1  LIG1        0.0354
     13 C          -1.2170    2.7670    0.0000 C.ar    1  LIG1        0.0075
     14 C          -1.8960    2.0170    0.0000 C.ar    1  LIG1        0.0070
     15 C          -3.3380    0.7380    0.0000 C.3     1  LIG1        0.0276
     16 C          -4.3170    0.5210    0.0000 C.3     1  LIG1        0.0051
     17 C          -4.6170   -0.4330    0.0000 C.3     1  LIG1        0.0066
     18 C          -3.9500   -1.1790    0.0000 C.3     1  LIG1        0.0455
     19 C           1.2420   -1.7830    0.0000 C.2     1  LIG1        0.3487
     20 O           1.4580   -2.7630    0.0000 O.2     1  LIG1       -0.2443
     21 O           1.9880   -1.1000    0.0000 O.3     1  LIG1       -0.4451
     22 C           2.9290   -1.4170    0.0000 C.3     1  LIG1        0.2088
     23 C           3.6750   -0.7420    0.0000 C.3     1  LIG1        0.0475
     24 C           4.6130   -1.0500    0.0000 C.3     1  LIG1        0.0040
     25 N           0.5670    0.2920    0.0000 N.pl3   1  LIG1       -0.1272
@<TRIPOS>BOND
     1     1     2   ar
     2     1     5   ar
     3     1     9   ar
     4     2     3   ar
     5     2    25    1
     6     3     4   ar
     7     3    19    1
     8     4     5   ar
     9     5     6   ar
    10     6     7   ar
    11     7     8   ar
    12     7    18    1
    13     8     9   ar
    14     8    15    1
    15     9    10    1
    16    10    11   ar
    17    10    14   ar
    18    11    12   ar
    19    12    13   ar
    20    13    14   ar
    21    15    16    1
    22    16    17    1
    23    17    18    1
    24    19    20    2
    25    19    21    1
    26    21    22    1
    27    22    23    1
    28    23    24    1
