@<TRIPOS>MOLECULE
26622_ChemDiv_K891-0270
 24 27 0 0 0
SMALL
GASTEIGER
Energy = 0

@<TRIPOS>ATOM
      1 C           0.2960   -1.1670    0.0000 C.ar    1  LIG1        0.0409
      2 C           1.2830   -1.1500    0.0000 C.ar    1  LIG1        0.1015
      3 C           1.5960   -2.1130    0.0000 C.ar    1  LIG1        0.1042
      4 S           0.8000   -2.7000    0.0000 S.2     1  LIG1       -0.0620
      5 C          -0.0170   -2.1170    0.0000 C.ar    1  LIG1        0.1117
      6 N          -0.9830   -2.3330    0.0000 N.ar    1  LIG1       -0.2434
      7 C          -1.6580   -1.5960    0.0000 C.ar    1  LIG1        0.0555
      8 C          -1.3500   -0.6420    0.0000 C.ar    1  LIG1       -0.0085
      9 C          -0.3830   -0.4250    0.0000 C.ar    1  LIG1        0.0004
     10 C          -0.0710    0.5250    0.0000 C.ar    1  LIG1       -0.0001
     11 C          -0.7500    1.2630    0.0000 C.ar    1  LIG1        0.0009
     12 C          -0.4380    2.2000    0.0000 C.ar    1  LIG1        0.0114
     13 C           0.5330    2.4330    0.0000 C.ar    1  LIG1        0.0577
     14 C           1.2000    1.6920    0.0000 C.ar    1  LIG1        0.0114
     15 C           0.9000    0.7420    0.0000 C.ar    1  LIG1        0.0009
     16 CL          0.8330    3.4000    0.0000 Cl      1  LIG1       -0.0822
     17 C          -2.0250    0.1000    0.0000 C.3     1  LIG1        0.0276
     18 C          -3.0000   -0.1170    0.0000 C.3     1  LIG1        0.0051
     19 C          -3.3040   -1.0670    0.0000 C.3     1  LIG1        0.0066
     20 C          -2.6330   -1.8130    0.0000 C.3     1  LIG1        0.0455
     21 C           2.5540   -2.4170    0.0000 C.2     1  LIG1        0.2916
     22 O           2.7710   -3.3960    0.0000 O.2     1  LIG1       -0.2661
     23 N           3.3000   -1.7330    0.0000 N.am    1  LIG1       -0.0832
     24 N           1.8790   -0.3420    0.0000 N.pl3   1  LIG1       -0.1273
@<TRIPOS>BOND
     1     1     2   ar
     2     1     5   ar
     3     1     9   ar
     4     2     3   ar
     5     2    24    1
     6     3     4   ar
     7     3    21    1
     8     4     5   ar
     9     5     6   ar
    10     6     7   ar
    11     7     8   ar
    12     7    20    1
    13     8     9   ar
    14     8    17    1
    15     9    10    1
    16    10    11   ar
    17    10    15   ar
    18    11    12   ar
    19    12    13   ar
    20    13    14   ar
    21    13    16    1
    22    14    15   ar
    23    17    18    1
    24    18    19    1
    25    19    20    1
    26    21    22    2
    27    21    23   am
