@<TRIPOS>MOLECULE
26625_ChemDiv_8013-4022
 32 36 0 0 0
SMALL
GASTEIGER
Energy = 0

@<TRIPOS>ATOM
      1 C          -1.7000    2.6880    0.0000 C.ar    1  LIG1        0.1577
      2 C          -1.7000    1.7750    0.0000 C.ar    1  LIG1        0.1713
      3 N          -0.8960    1.3250    0.0000 N.ar    1  LIG1       -0.1930
      4 C          -0.0920    1.7750    0.0000 C.ar    1  LIG1        0.2234
      5 N          -0.0920    2.6880    0.0000 N.ar    1  LIG1       -0.2678
      6 C           1.5170    2.6880    0.0000 C.ar    1  LIG1        0.1006
      7 C           1.5170    1.7750    0.0000 C.ar    1  LIG1        0.0842
      8 N           0.7080    1.3250    0.0000 N.ar    1  LIG1       -0.2762
      9 C           0.7080    0.3330    0.0000 C.ar    1  LIG1        0.0667
     10 C           1.6000   -0.1880    0.0000 C.ar    1  LIG1        0.0173
     11 C           1.6000   -1.1670    0.0000 C.ar    1  LIG1       -0.0024
     12 C           0.7080   -1.6880    0.0000 C.ar    1  LIG1       -0.0165
     13 C           0.7080   -2.6000    0.0000 C.3     1  LIG1        0.0679
     14 C           1.5750   -3.0750    0.0000 C.2     1  LIG1        0.0547
     15 O           2.4380   -2.5880    0.0000 O.co2   1  LIG1       -0.5488
     16 O           1.5750   -4.1040    0.0000 O.co2   1  LIG1       -0.5488
     17 C          -0.1290   -1.1670    0.0000 C.ar    1  LIG1       -0.0024
     18 C          -0.1290   -0.1880    0.0000 C.ar    1  LIG1        0.0173
     19 C           2.3790    1.2790    0.0000 C.ar    1  LIG1        0.0177
     20 C           3.2540    1.7630    0.0000 C.ar    1  LIG1        0.0015
     21 C           4.1330    1.2790    0.0000 C.ar    1  LIG1        0.0000
     22 C           4.1330    0.2630    0.0000 C.ar    1  LIG1        0.0000
     23 C           3.2540   -0.2330    0.0000 C.ar    1  LIG1        0.0000
     24 C           2.3790    0.2750    0.0000 C.ar    1  LIG1        0.0015
     25 N          -2.5040    1.3250    0.0000 N.ar    1  LIG1       -0.2628
     26 C          -3.3080    1.7750    0.0000 C.ar    1  LIG1        0.3350
     27 N          -3.3080    2.6880    0.0000 N.ar    1  LIG1       -0.2454
     28 C          -2.5040    3.1500    0.0000 C.ar    1  LIG1        0.2835
     29 O          -2.5040    4.1040    0.0000 O.2     1  LIG1       -0.2651
     30 C          -4.1380    3.1500    0.0000 C.3     1  LIG1        0.1383
     31 O          -4.1380    1.3130    0.0000 O.2     1  LIG1       -0.2461
     32 C          -2.5040    0.3670    0.0000 C.3     1  LIG1        0.1366
@<TRIPOS>BOND
     1     1     2   ar
     2     1     5   ar
     3     1    28   ar
     4     2     3   ar
     5     2    25   ar
     6     3     4   ar
     7     4     5   ar
     8     4     8   ar
     9     5     6   ar
    10     6     7   ar
    11     7     8   ar
    12     7    19    1
    13     8     9    1
    14     9    10   ar
    15     9    18   ar
    16    10    11   ar
    17    11    12   ar
    18    12    13    1
    19    12    17   ar
    20    13    14    1
    21    14    15   ar
    22    14    16   ar
    23    17    18   ar
    24    19    20   ar
    25    19    24   ar
    26    20    21   ar
    27    21    22   ar
    28    22    23   ar
    29    23    24   ar
    30    25    26   ar
    31    25    32    1
    32    26    27   ar
    33    26    31    2
    34    27    28   ar
    35    27    30    1
    36    28    29    2
