@<TRIPOS>MOLECULE
26633_ChemDiv_8017-3370
 32 36 0 0 0
SMALL
GASTEIGER
Energy = 0

@<TRIPOS>ATOM
      1 C          -2.7960    0.0290    0.0000 C.ar    1  LIG1        0.1577
      2 C          -2.7960   -0.9920    0.0000 C.ar    1  LIG1        0.1713
      3 N          -1.8290   -1.2920    0.0000 N.ar    1  LIG1       -0.1930
      4 C          -1.2540   -0.4790    0.0000 C.ar    1  LIG1        0.2234
      5 N          -1.8290    0.3380    0.0000 N.ar    1  LIG1       -0.2678
      6 C          -1.2330    1.1380    0.0000 C.ar    1  LIG1        0.1006
      7 C          -0.2790    0.8080    0.0000 C.ar    1  LIG1        0.0842
      8 N          -0.2960   -0.1710    0.0000 N.ar    1  LIG1       -0.2762
      9 C           0.4580   -0.8040    0.0000 C.ar    1  LIG1        0.0667
     10 C           0.2920   -1.7880    0.0000 C.ar    1  LIG1        0.0173
     11 C           1.0500   -2.4170    0.0000 C.ar    1  LIG1       -0.0028
     12 C           1.9920   -2.0750    0.0000 C.ar    1  LIG1       -0.0221
     13 C           2.1580   -1.1170    0.0000 C.ar    1  LIG1       -0.0028
     14 C           1.3790   -0.4580    0.0000 C.ar    1  LIG1        0.0173
     15 C           2.7670   -2.7330    0.0000 C.3     1  LIG1        0.0264
     16 C           3.7040   -2.3790    0.0000 C.3     1  LIG1        0.0047
     17 C           4.4670   -3.0130    0.0000 C.3     1  LIG1        0.0003
     18 C           5.3880   -2.6670    0.0000 C.3     1  LIG1        0.0000
     19 C           0.5000    1.4210    0.0000 C.ar    1  LIG1        0.0177
     20 C           1.4170    1.0330    0.0000 C.ar    1  LIG1        0.0015
     21 C           2.2170    1.6290    0.0000 C.ar    1  LIG1        0.0000
     22 C           2.0920    2.6330    0.0000 C.ar    1  LIG1        0.0000
     23 C           1.1750    3.0170    0.0000 C.ar    1  LIG1        0.0000
     24 C           0.3750    2.4080    0.0000 C.ar    1  LIG1        0.0015
     25 N          -3.6580   -1.4790    0.0000 N.ar    1  LIG1       -0.2628
     26 C          -4.5130   -0.9920    0.0000 C.ar    1  LIG1        0.3350
     27 N          -4.5130    0.0290    0.0000 N.ar    1  LIG1       -0.2454
     28 C          -3.6580    0.5250    0.0000 C.ar    1  LIG1        0.2835
     29 O          -3.6580    1.5210    0.0000 O.2     1  LIG1       -0.2651
     30 C          -5.3920    0.5630    0.0000 C.3     1  LIG1        0.1383
     31 O          -5.3920   -1.5170    0.0000 O.2     1  LIG1       -0.2461
     32 C          -3.6580   -2.4790    0.0000 C.3     1  LIG1        0.1366
@<TRIPOS>BOND
     1     1     2   ar
     2     1     5   ar
     3     1    28   ar
     4     2     3   ar
     5     2    25   ar
     6     3     4   ar
     7     4     5   ar
     8     4     8   ar
     9     5     6   ar
    10     6     7   ar
    11     7     8   ar
    12     7    19    1
    13     8     9    1
    14     9    10   ar
    15     9    14   ar
    16    10    11   ar
    17    11    12   ar
    18    12    13   ar
    19    12    15    1
    20    13    14   ar
    21    15    16    1
    22    16    17    1
    23    17    18    1
    24    19    20   ar
    25    19    24   ar
    26    20    21   ar
    27    21    22   ar
    28    22    23   ar
    29    23    24   ar
    30    25    26   ar
    31    25    32    1
    32    26    27   ar
    33    26    31    2
    34    27    28   ar
    35    27    30    1
    36    28    29    2
