@<TRIPOS>MOLECULE
26635_ChemDiv_8017-9056
 32 36 0 0 0
SMALL
GASTEIGER
Energy = 0

@<TRIPOS>ATOM
      1 C          -0.7960    0.2960    0.0000 C.ar    1  LIG1        0.2231
      2 N          -0.7960    1.2960    0.0000 N.ar    1  LIG1       -0.2731
      3 C          -1.7460    1.6000    0.0000 C.ar    1  LIG1        0.1574
      4 C          -2.3420    0.7960    0.0000 C.ar    1  LIG1        0.1713
      5 N          -1.7460   -0.0170    0.0000 N.ar    1  LIG1       -0.1930
      6 N          -3.3290    0.8960    0.0000 N.ar    1  LIG1       -0.2628
      7 C          -3.7420    1.8080    0.0000 C.ar    1  LIG1        0.3350
      8 N          -3.1540    2.6210    0.0000 N.ar    1  LIG1       -0.2454
      9 C          -2.1540    2.5210    0.0000 C.ar    1  LIG1        0.2835
     10 O          -1.6540    3.3830    0.0000 O.2     1  LIG1       -0.2651
     11 C          -3.6540    3.4830    0.0000 C.3     1  LIG1        0.1383
     12 O          -4.7420    1.8080    0.0000 O.2     1  LIG1       -0.2461
     13 C          -3.8290    0.0330    0.0000 C.3     1  LIG1        0.1366
     14 C           0.1500    1.6000    0.0000 C.ar    1  LIG1        0.0608
     15 C           0.7380    0.7960    0.0000 C.ar    1  LIG1        0.0786
     16 N           0.1500   -0.0170    0.0000 N.ar    1  LIG1       -0.2765
     17 C           0.6500   -0.8790    0.0000 C.ar    1  LIG1        0.0667
     18 C           0.1500   -1.7500    0.0000 C.ar    1  LIG1        0.0173
     19 C           0.6500   -2.6170    0.0000 C.ar    1  LIG1       -0.0028
     20 C           1.6500   -2.6170    0.0000 C.ar    1  LIG1       -0.0221
     21 C           2.1500   -1.7500    0.0000 C.ar    1  LIG1       -0.0028
     22 C           1.6500   -0.8790    0.0000 C.ar    1  LIG1        0.0173
     23 C           2.1500   -3.4790    0.0000 C.3     1  LIG1        0.0264
     24 C           3.1500   -3.4790    0.0000 C.3     1  LIG1        0.0050
     25 C           1.7380    0.7960    0.0000 C.ar    1  LIG1        0.0173
     26 C           2.2380    1.6580    0.0000 C.ar    1  LIG1        0.0012
     27 C           3.2380    1.6580    0.0000 C.ar    1  LIG1       -0.0042
     28 C           3.7380    0.7960    0.0000 C.ar    1  LIG1       -0.0218
     29 C           3.2380   -0.0750    0.0000 C.ar    1  LIG1       -0.0042
     30 C           2.2380   -0.0750    0.0000 C.ar    1  LIG1        0.0012
     31 C           4.7380    0.7960    0.0000 C.3     1  LIG1        0.0310
     32 C           0.6500    2.4710    0.0000 C.3     1  LIG1        0.0520
@<TRIPOS>BOND
     1     1     2   ar
     2     1     5   ar
     3     1    16   ar
     4     2     3   ar
     5     2    14   ar
     6     3     4   ar
     7     3     9   ar
     8     4     5   ar
     9     4     6   ar
    10     6     7   ar
    11     6    13    1
    12     7     8   ar
    13     7    12    2
    14     8     9   ar
    15     8    11    1
    16     9    10    2
    17    14    15   ar
    18    14    32    1
    19    15    16   ar
    20    15    25    1
    21    16    17    1
    22    17    18   ar
    23    17    22   ar
    24    18    19   ar
    25    19    20   ar
    26    20    21   ar
    27    20    23    1
    28    21    22   ar
    29    23    24    1
    30    25    26   ar
    31    25    30   ar
    32    26    27   ar
    33    27    28   ar
    34    28    29   ar
    35    28    31    1
    36    29    30   ar
