@<TRIPOS>MOLECULE
26639_ChemDiv_1189-2230
 24 27 0 0 0
SMALL
GASTEIGER
Energy = 0

@<TRIPOS>ATOM
      1 C           0.1670   -0.4880    0.0000 C.ar    1  LIG1        0.2195
      2 N          -0.4130   -1.3040    0.0000 N.ar    1  LIG1       -0.1933
      3 C          -1.3670   -0.9920    0.0000 C.ar    1  LIG1        0.1714
      4 C          -1.3670    0.0130    0.0000 C.ar    1  LIG1        0.1594
      5 N          -0.4130    0.3250    0.0000 N.ar    1  LIG1       -0.2681
      6 C           0.1920    1.1170    0.0000 C.ar    1  LIG1        0.1002
      7 C           1.1380    0.7830    0.0000 C.ar    1  LIG1        0.0800
      8 N           1.1170   -0.2000    0.0000 N.ar    1  LIG1       -0.2945
      9 C           1.9040   -0.8330    0.0000 C.3     1  LIG1        0.1444
     10 C           2.8290   -0.4380    0.0000 C.3     1  LIG1        0.2065
     11 O           3.6170   -1.0420    0.0000 O.3     1  LIG1       -0.2182
     12 C           2.0920    1.1420    0.0000 C.ar    1  LIG1        0.0174
     13 C           2.2500    2.1210    0.0000 C.ar    1  LIG1        0.0015
     14 C           3.1750    2.4960    0.0000 C.ar    1  LIG1        0.0000
     15 C           3.9630    1.8580    0.0000 C.ar    1  LIG1        0.0000
     16 C           3.7710    0.8540    0.0000 C.ar    1  LIG1        0.0000
     17 C           2.8500    0.5170    0.0000 C.ar    1  LIG1        0.0015
     18 C          -2.2040    0.5170    0.0000 C.ar    1  LIG1        0.3022
     19 N          -3.0790    0.0130    0.0000 N.ar    1  LIG1       -0.1518
     20 C          -3.0790   -0.9920    0.0000 C.ar    1  LIG1        0.3540
     21 N          -2.2040   -1.4920    0.0000 N.ar    1  LIG1       -0.2614
     22 C          -2.2040   -2.4920    0.0000 C.3     1  LIG1        0.1367
     23 O          -3.9670   -1.5170    0.0000 O.2     1  LIG1       -0.2443
     24 O          -2.2040    1.5130    0.0000 O.2     1  LIG1       -0.2633
@<TRIPOS>BOND
     1     1     2   ar
     2     1     5   ar
     3     1     8   ar
     4     2     3   ar
     5     3     4   ar
     6     3    21   ar
     7     4     5   ar
     8     4    18   ar
     9     5     6   ar
    10     6     7   ar
    11     7     8   ar
    12     7    12    1
    13     8     9    1
    14     9    10    1
    15    10    11    1
    16    12    13   ar
    17    12    17   ar
    18    13    14   ar
    19    14    15   ar
    20    15    16   ar
    21    16    17   ar
    22    18    19   ar
    23    18    24    2
    24    19    20   ar
    25    20    21   ar
    26    20    23    2
    27    21    22    1
