@<TRIPOS>MOLECULE
26631_ChemDiv_8016-8322
 36 40 0 0 0
SMALL
GASTEIGER
Energy = 0

@<TRIPOS>ATOM
      1 C          -1.0080   -0.6540    0.0000 C.ar    1  LIG1        0.2231
      2 N          -1.5960    0.1580    0.0000 N.ar    1  LIG1       -0.2731
      3 C          -2.5460   -0.1540    0.0000 C.ar    1  LIG1        0.1574
      4 C          -2.5460   -1.1540    0.0000 C.ar    1  LIG1        0.1713
      5 N          -1.5960   -1.4630    0.0000 N.ar    1  LIG1       -0.1930
      6 N          -3.4130   -1.6540    0.0000 N.ar    1  LIG1       -0.2628
      7 C          -4.2830   -1.1540    0.0000 C.ar    1  LIG1        0.3350
      8 N          -4.2830   -0.1540    0.0000 N.ar    1  LIG1       -0.2454
      9 C          -3.4130    0.3460    0.0000 C.ar    1  LIG1        0.2835
     10 O          -3.4130    1.3460    0.0000 O.2     1  LIG1       -0.2651
     11 C          -5.1420    0.3460    0.0000 C.3     1  LIG1        0.1383
     12 O          -5.1420   -1.6540    0.0000 O.2     1  LIG1       -0.2461
     13 C          -3.4130   -2.6540    0.0000 C.3     1  LIG1        0.1366
     14 C          -1.0080    0.9710    0.0000 C.ar    1  LIG1        0.0604
     15 C          -0.0580    0.6580    0.0000 C.ar    1  LIG1        0.0786
     16 N          -0.0580   -0.3420    0.0000 N.ar    1  LIG1       -0.2765
     17 C           0.8040   -0.8420    0.0000 C.ar    1  LIG1        0.0667
     18 C           1.6750   -0.3420    0.0000 C.ar    1  LIG1        0.0173
     19 C           2.5420   -0.8420    0.0000 C.ar    1  LIG1       -0.0022
     20 C           2.5420   -1.8420    0.0000 C.ar    1  LIG1       -0.0110
     21 C           3.4040   -2.3420    0.0000 C.3     1  LIG1        0.1359
     22 C           4.2750   -1.8420    0.0000 C.2     1  LIG1        0.3215
     23 O           5.1380   -2.3420    0.0000 O.2     1  LIG1       -0.2497
     24 O           4.2750   -0.8420    0.0000 O.3     1  LIG1       -0.4483
     25 C           5.1380   -0.3420    0.0000 C.3     1  LIG1        0.2086
     26 C           5.1380    0.6580    0.0000 C.3     1  LIG1        0.0513
     27 C           1.6750   -2.3420    0.0000 C.ar    1  LIG1       -0.0022
     28 C           0.8040   -1.8420    0.0000 C.ar    1  LIG1        0.0173
     29 C           0.8040    1.1580    0.0000 C.ar    1  LIG1        0.0173
     30 C           0.8040    2.1580    0.0000 C.ar    1  LIG1        0.0015
     31 C           1.6750    2.6580    0.0000 C.ar    1  LIG1        0.0000
     32 C           2.5420    2.1580    0.0000 C.ar    1  LIG1        0.0000
     33 C           2.5420    1.1580    0.0000 C.ar    1  LIG1        0.0000
     34 C           1.6750    0.6580    0.0000 C.ar    1  LIG1        0.0015
     35 C          -1.5080    1.8330    0.0000 C.3     1  LIG1        0.0458
     36 C          -2.5080    1.8330    0.0000 C.3     1  LIG1        0.0067
@<TRIPOS>BOND
     1     1     2   ar
     2     1     5   ar
     3     1    16   ar
     4     2     3   ar
     5     2    14   ar
     6     3     4   ar
     7     3     9   ar
     8     4     5   ar
     9     4     6   ar
    10     6     7   ar
    11     6    13    1
    12     7     8   ar
    13     7    12    2
    14     8     9   ar
    15     8    11    1
    16     9    10    2
    17    14    15   ar
    18    14    35    1
    19    15    16   ar
    20    15    29    1
    21    16    17    1
    22    17    18   ar
    23    17    28   ar
    24    18    19   ar
    25    19    20   ar
    26    20    21    1
    27    20    27   ar
    28    21    22    1
    29    22    23    2
    30    22    24    1
    31    24    25    1
    32    25    26    1
    33    27    28   ar
    34    29    30   ar
    35    29    34   ar
    36    30    31   ar
    37    31    32   ar
    38    32    33   ar
    39    33    34   ar
    40    35    36    1
