@<TRIPOS>MOLECULE
26637_ChemDiv_8017-9078
 30 34 0 0 0
SMALL
GASTEIGER
Energy = 0

@<TRIPOS>ATOM
      1 C          -1.7460    1.5960    0.0000 C.ar    1  LIG1        0.1577
      2 C          -2.3330    0.7920    0.0000 C.ar    1  LIG1        0.1713
      3 N          -1.7460   -0.0210    0.0000 N.ar    1  LIG1       -0.1930
      4 C          -0.7960    0.2960    0.0000 C.ar    1  LIG1        0.2234
      5 N          -0.7960    1.2920    0.0000 N.ar    1  LIG1       -0.2678
      6 C           0.1500    1.6040    0.0000 C.ar    1  LIG1        0.1006
      7 C           0.7380    0.7920    0.0000 C.ar    1  LIG1        0.0842
      8 N           0.1500   -0.0210    0.0000 N.ar    1  LIG1       -0.2762
      9 C           0.6500   -0.8790    0.0000 C.ar    1  LIG1        0.0669
     10 C           0.1500   -1.7500    0.0000 C.ar    1  LIG1        0.0209
     11 C           0.6500   -2.6170    0.0000 C.ar    1  LIG1        0.0435
     12 C           1.6500   -2.6170    0.0000 C.ar    1  LIG1        0.1958
     13 C           2.1500   -1.7500    0.0000 C.ar    1  LIG1        0.0435
     14 C           1.6500   -0.8790    0.0000 C.ar    1  LIG1        0.0209
     15 O           2.1500   -3.4790    0.0000 O.3     1  LIG1       -0.2866
     16 C           1.7380    0.7920    0.0000 C.ar    1  LIG1        0.0177
     17 C           2.2380    1.6540    0.0000 C.ar    1  LIG1        0.0012
     18 C           3.2380    1.6540    0.0000 C.ar    1  LIG1       -0.0042
     19 C           3.7380    0.7920    0.0000 C.ar    1  LIG1       -0.0218
     20 C           3.2380   -0.0710    0.0000 C.ar    1  LIG1       -0.0042
     21 C           2.2380   -0.0710    0.0000 C.ar    1  LIG1        0.0012
     22 C           4.7380    0.7920    0.0000 C.3     1  LIG1        0.0310
     23 N          -3.3290    0.8920    0.0000 N.ar    1  LIG1       -0.2628
     24 C          -3.7420    1.8080    0.0000 C.ar    1  LIG1        0.3350
     25 N          -3.1540    2.6170    0.0000 N.ar    1  LIG1       -0.2454
     26 C          -2.1540    2.5170    0.0000 C.ar    1  LIG1        0.2835
     27 O          -1.6540    3.3790    0.0000 O.2     1  LIG1       -0.2651
     28 C          -3.6540    3.4830    0.0000 C.3     1  LIG1        0.1383
     29 O          -4.7420    1.8080    0.0000 O.2     1  LIG1       -0.2461
     30 C          -3.8290    0.0330    0.0000 C.3     1  LIG1        0.1366
@<TRIPOS>BOND
     1     1     2   ar
     2     1     5   ar
     3     1    26   ar
     4     2     3   ar
     5     2    23   ar
     6     3     4   ar
     7     4     5   ar
     8     4     8   ar
     9     5     6   ar
    10     6     7   ar
    11     7     8   ar
    12     7    16    1
    13     8     9    1
    14     9    10   ar
    15     9    14   ar
    16    10    11   ar
    17    11    12   ar
    18    12    13   ar
    19    12    15    1
    20    13    14   ar
    21    16    17   ar
    22    16    21   ar
    23    17    18   ar
    24    18    19   ar
    25    19    20   ar
    26    19    22    1
    27    20    21   ar
    28    23    24   ar
    29    23    30    1
    30    24    25   ar
    31    24    29    2
    32    25    26   ar
    33    25    28    1
    34    26    27    2
