@<TRIPOS>MOLECULE
26648_ChemDiv_3132-1373
 32 36 0 0 0
SMALL
GASTEIGER
Energy = 0

@<TRIPOS>ATOM
      1 C           0.8880    1.5250    0.0000 C.3     1  LIG1        0.1780
      2 C          -0.0750    1.7500    0.0000 C.3     1  LIG1        0.0830
      3 N          -0.5960    0.8880    0.0000 N.pl3   1  LIG1       -0.3033
      4 C           0.0960    0.1130    0.0000 C.3     1  LIG1        0.1410
      5 C           1.0170    0.5420    0.0000 C.3     1  LIG1        0.0759
      6 C           1.8880    0.0750    0.0000 C.ar    1  LIG1       -0.0184
      7 C           2.7330    0.5960    0.0000 C.ar    1  LIG1       -0.0041
      8 C           3.6130    0.1330    0.0000 C.ar    1  LIG1       -0.0003
      9 C           3.6250   -0.8040    0.0000 C.ar    1  LIG1       -0.0000
     10 C           2.7920   -1.3540    0.0000 C.ar    1  LIG1       -0.0003
     11 C           1.8880   -0.8710    0.0000 C.ar    1  LIG1       -0.0041
     12 C          -0.1000   -0.8630    0.0000 C.2     1  LIG1        0.1912
     13 O           0.3960   -1.6380    0.0000 O.2     1  LIG1       -0.2896
     14 C          -1.0000   -1.2670    0.0000 C.ar    1  LIG1        0.0364
     15 C          -0.9920   -2.2170    0.0000 C.ar    1  LIG1        0.0029
     16 C          -1.9330   -2.6330    0.0000 C.ar    1  LIG1        0.0001
     17 C          -2.7290   -2.1250    0.0000 C.ar    1  LIG1        0.0000
     18 C          -2.7290   -1.1880    0.0000 C.ar    1  LIG1        0.0001
     19 C          -1.8250   -0.7000    0.0000 C.ar    1  LIG1        0.0029
     20 C          -1.6000    0.8880    0.0000 C.ar    1  LIG1        0.0480
     21 C          -2.1080    1.7500    0.0000 C.ar    1  LIG1        0.0131
     22 C          -1.6000    2.6380    0.0000 C.2     1  LIG1       -0.0020
     23 C          -0.5960    2.6380    0.0000 C.2     1  LIG1       -0.0105
     24 C          -3.1170    1.7500    0.0000 C.ar    1  LIG1        0.0012
     25 C          -3.6290    0.8880    0.0000 C.ar    1  LIG1        0.0001
     26 C          -3.1170    0.0000    0.0000 C.ar    1  LIG1        0.0013
     27 C          -2.1080    0.0000    0.0000 C.ar    1  LIG1        0.0145
     28 C           1.9330    1.6380    0.0000 C.1     1  LIG1        0.0875
     29 N           2.9500    1.7500    0.0000 N.1     1  LIG1       -0.1948
     30 C           1.7920    2.0460    0.0000 C.1     1  LIG1        0.0875
     31 N           2.6750    2.5540    0.0000 N.1     1  LIG1       -0.1948
     32 H           0.6080    2.4960    0.0000 H       1  LIG1        0.0576
@<TRIPOS>BOND
     1     1     2    1
     2     1     5    1
     3     1    28    1
     4     1    30    1
     5     2     3    1
     6     2    23    1
     7     2    32    1
     8     3     4    1
     9     3    20    1
    10     4     5    1
    11     4    12    1
    12     5     6    1
    13     6     7   ar
    14     6    11   ar
    15     7     8   ar
    16     8     9   ar
    17     9    10   ar
    18    10    11   ar
    19    12    13    2
    20    12    14    1
    21    14    15   ar
    22    14    19   ar
    23    15    16   ar
    24    16    17   ar
    25    17    18   ar
    26    18    19   ar
    27    20    21   ar
    28    20    27   ar
    29    21    22    1
    30    21    24   ar
    31    22    23    2
    32    24    25   ar
    33    25    26   ar
    34    26    27   ar
    35    28    29    3
    36    30    31    3
