@<TRIPOS>MOLECULE
26644_ChemDiv_1404-0115
 35 39 0 0 0
SMALL
GASTEIGER
Energy = 0

@<TRIPOS>ATOM
      1 C           1.1580    1.3290    0.0000 C.3     1  LIG1        0.1833
      2 C           0.4040    2.0170    0.0000 C.3     1  LIG1        0.1222
      3 N          -0.4540    1.5000    0.0000 N.pl3   1  LIG1       -0.2982
      4 C          -0.0920    0.4290    0.0000 C.3     1  LIG1        0.1413
      5 C           0.9290    0.4290    0.0000 C.3     1  LIG1        0.0764
      6 C           1.5920   -0.3130    0.0000 C.ar    1  LIG1       -0.0152
      7 C           1.2790   -1.2580    0.0000 C.ar    1  LIG1        0.0359
      8 C           1.9460   -2.0250    0.0000 C.ar    1  LIG1        0.1721
      9 C           2.9170   -1.8130    0.0000 C.ar    1  LIG1        0.1724
     10 C           3.2330   -0.8420    0.0000 C.ar    1  LIG1        0.0397
     11 C           2.5630   -0.1040    0.0000 C.ar    1  LIG1       -0.0008
     12 O           3.5920   -2.5540    0.0000 O.3     1  LIG1       -0.4684
     13 C           3.2750   -3.5080    0.0000 C.3     1  LIG1        0.2526
     14 O           1.6500   -2.9710    0.0000 O.3     1  LIG1       -0.4684
     15 C           0.6880   -3.1880    0.0000 C.3     1  LIG1        0.2526
     16 C          -0.6130   -0.4170    0.0000 C.2     1  LIG1        0.1912
     17 O          -0.1330   -1.2830    0.0000 O.2     1  LIG1       -0.2896
     18 C          -1.6040   -0.4170    0.0000 C.ar    1  LIG1        0.0364
     19 C          -2.0920    0.4420    0.0000 C.ar    1  LIG1        0.0029
     20 C          -3.0920    0.4670    0.0000 C.ar    1  LIG1        0.0001
     21 C          -3.5960   -0.4170    0.0000 C.ar    1  LIG1        0.0000
     22 C          -3.0920   -1.2580    0.0000 C.ar    1  LIG1        0.0001
     23 C          -2.0960   -1.2750    0.0000 C.ar    1  LIG1        0.0029
     24 C          -1.3330    2.0170    0.0000 C.ar    1  LIG1        0.0483
     25 C          -1.3330    3.0080    0.0000 C.ar    1  LIG1        0.0131
     26 C          -0.4540    3.5130    0.0000 C.2     1  LIG1       -0.0016
     27 C           0.4040    3.0080    0.0000 C.2     1  LIG1       -0.0047
     28 C          -2.1920    3.5130    0.0000 C.ar    1  LIG1        0.0012
     29 C          -3.0790    3.0380    0.0000 C.ar    1  LIG1        0.0001
     30 C          -3.0670    2.0170    0.0000 C.ar    1  LIG1        0.0013
     31 C          -2.1750    1.5250    0.0000 C.ar    1  LIG1        0.0145
     32 C           1.8500    2.0290    0.0000 C.1     1  LIG1        0.0879
     33 N           2.5330    2.7130    0.0000 N.1     1  LIG1       -0.1948
     34 C           2.1500    1.3290    0.0000 C.1     1  LIG1        0.0879
     35 N           3.1330    1.3250    0.0000 N.1     1  LIG1       -0.1948
@<TRIPOS>BOND
     1     1     2    1
     2     1     5    1
     3     1    32    1
     4     1    34    1
     5     2     3    1
     6     2    27    1
     7     3     4    1
     8     3    24    1
     9     4     5    1
    10     4    16    1
    11     5     6    1
    12     6     7   ar
    13     6    11   ar
    14     7     8   ar
    15     8     9   ar
    16     8    14    1
    17     9    10   ar
    18     9    12    1
    19    10    11   ar
    20    12    13    1
    21    14    15    1
    22    16    17    2
    23    16    18    1
    24    18    19   ar
    25    18    23   ar
    26    19    20   ar
    27    20    21   ar
    28    21    22   ar
    29    22    23   ar
    30    24    25   ar
    31    24    31   ar
    32    25    26    1
    33    25    28   ar
    34    26    27    2
    35    28    29   ar
    36    29    30   ar
    37    30    31   ar
    38    32    33    3
    39    34    35    3
