@<TRIPOS>MOLECULE
26646_ChemDiv_3132-1014
 36 40 0 0 0
SMALL
GASTEIGER
Energy = 0

@<TRIPOS>ATOM
      1 C           0.0380    1.7170    0.0000 C.3     1  LIG1        0.1780
      2 C          -0.9420    1.9380    0.0000 C.3     1  LIG1        0.0830
      3 N          -1.4460    1.0710    0.0000 N.pl3   1  LIG1       -0.3033
      4 C          -0.7710    0.3380    0.0000 C.3     1  LIG1        0.1410
      5 C           0.1460    0.7580    0.0000 C.3     1  LIG1        0.0761
      6 C           0.9750    0.1710    0.0000 C.ar    1  LIG1       -0.0124
      7 C           0.8580   -0.8130    0.0000 C.ar    1  LIG1        0.0330
      8 C           1.6790   -1.4080    0.0000 C.ar    1  LIG1        0.1414
      9 C           2.6000   -0.9830    0.0000 C.ar    1  LIG1        0.0737
     10 C           2.6960    0.0000    0.0000 C.ar    1  LIG1        0.1414
     11 C           1.8920    0.5920    0.0000 C.ar    1  LIG1        0.0330
     12 O           3.6130    0.4210    0.0000 O.3     1  LIG1       -0.4713
     13 C           4.4380   -0.1710    0.0000 C.3     1  LIG1        0.2525
     14 O           1.5710   -2.4170    0.0000 O.3     1  LIG1       -0.4713
     15 C           0.6500   -2.8130    0.0000 C.3     1  LIG1        0.2525
     16 C          -0.9580   -0.6750    0.0000 C.2     1  LIG1        0.1912
     17 O          -0.1920   -1.3170    0.0000 O.2     1  LIG1       -0.2896
     18 C          -1.8960   -1.0130    0.0000 C.ar    1  LIG1        0.0364
     19 C          -2.6420   -0.3920    0.0000 C.ar    1  LIG1        0.0029
     20 C          -3.5790   -0.7330    0.0000 C.ar    1  LIG1        0.0001
     21 C          -3.7500   -1.7170    0.0000 C.ar    1  LIG1        0.0000
     22 C          -2.9790   -2.3290    0.0000 C.ar    1  LIG1        0.0001
     23 C          -2.0670   -1.9960    0.0000 C.ar    1  LIG1        0.0029
     24 C          -2.4420    1.0710    0.0000 C.ar    1  LIG1        0.0480
     25 C          -2.9460    1.9380    0.0000 C.ar    1  LIG1        0.0131
     26 C          -2.4420    2.8170    0.0000 C.2     1  LIG1       -0.0020
     27 C          -1.4460    2.8170    0.0000 C.2     1  LIG1       -0.0105
     28 C          -3.9380    1.9380    0.0000 C.ar    1  LIG1        0.0012
     29 C          -4.4420    1.0710    0.0000 C.ar    1  LIG1        0.0001
     30 C          -3.9380    0.2290    0.0000 C.ar    1  LIG1        0.0013
     31 C          -2.9460    0.2290    0.0000 C.ar    1  LIG1        0.0145
     32 C           0.9170    2.2170    0.0000 C.1     1  LIG1        0.0875
     33 N           1.7960    2.7250    0.0000 N.1     1  LIG1       -0.1948
     34 C           1.0460    1.8250    0.0000 C.1     1  LIG1        0.0875
     35 N           2.0380    1.9380    0.0000 N.1     1  LIG1       -0.1948
     36 H          -0.2630    2.6670    0.0000 H       1  LIG1        0.0576
@<TRIPOS>BOND
     1     1     2    1
     2     1     5    1
     3     1    32    1
     4     1    34    1
     5     2     3    1
     6     2    27    1
     7     2    36    1
     8     3     4    1
     9     3    24    1
    10     4     5    1
    11     4    16    1
    12     5     6    1
    13     6     7   ar
    14     6    11   ar
    15     7     8   ar
    16     8     9   ar
    17     8    14    1
    18     9    10   ar
    19    10    11   ar
    20    10    12    1
    21    12    13    1
    22    14    15    1
    23    16    17    2
    24    16    18    1
    25    18    19   ar
    26    18    23   ar
    27    19    20   ar
    28    20    21   ar
    29    21    22   ar
    30    22    23   ar
    31    24    25   ar
    32    24    31   ar
    33    25    26    1
    34    25    28   ar
    35    26    27    2
    36    28    29   ar
    37    29    30   ar
    38    30    31   ar
    39    32    33    3
    40    34    35    3
