@<TRIPOS>MOLECULE
26642_ChemDiv_K891-0420
 25 28 0 0 0
SMALL
GASTEIGER
Energy = 0

@<TRIPOS>ATOM
      1 C           0.4420   -1.1540    0.0000 C.ar    1  LIG1        0.0409
      2 C           1.4420   -1.1500    0.0000 C.ar    1  LIG1        0.1015
      3 C           1.7420   -2.1000    0.0000 C.ar    1  LIG1        0.1042
      4 S           0.9580   -2.6880    0.0000 S.2     1  LIG1       -0.0620
      5 C           0.1420   -2.1040    0.0000 C.ar    1  LIG1        0.1117
      6 N          -0.8330   -2.3210    0.0000 N.ar    1  LIG1       -0.2434
      7 C          -1.5130   -1.5710    0.0000 C.ar    1  LIG1        0.0555
      8 C          -1.2000   -0.6210    0.0000 C.ar    1  LIG1       -0.0085
      9 C          -0.2250   -0.4040    0.0000 C.ar    1  LIG1        0.0004
     10 C           0.0830    0.5460    0.0000 C.ar    1  LIG1       -0.0001
     11 C          -0.5830    1.2750    0.0000 C.ar    1  LIG1        0.0009
     12 C          -0.2790    2.2080    0.0000 C.ar    1  LIG1        0.0114
     13 C           0.7080    2.4420    0.0000 C.ar    1  LIG1        0.0577
     14 C           1.3750    1.6920    0.0000 C.ar    1  LIG1        0.0114
     15 C           1.0580    0.7460    0.0000 C.ar    1  LIG1        0.0009
     16 CL          1.0170    3.3920    0.0000 Cl      1  LIG1       -0.0822
     17 C          -1.7630    0.2130    0.0000 C.3     1  LIG1        0.0276
     18 C          -2.7630    0.2960    0.0000 C.3     1  LIG1        0.0047
     19 C          -3.4460   -0.4330    0.0000 C.3     1  LIG1        0.0007
     20 C          -3.3000   -1.4210    0.0000 C.3     1  LIG1        0.0063
     21 C          -2.4460   -1.9380    0.0000 C.3     1  LIG1        0.0455
     22 C           2.7080   -2.4170    0.0000 C.2     1  LIG1        0.2916
     23 O           2.9210   -3.3880    0.0000 O.2     1  LIG1       -0.2661
     24 N           3.4420   -1.7380    0.0000 N.am    1  LIG1       -0.0832
     25 N           2.0250   -0.3210    0.0000 N.pl3   1  LIG1       -0.1273
@<TRIPOS>BOND
     1     1     2   ar
     2     1     5   ar
     3     1     9   ar
     4     2     3   ar
     5     2    25    1
     6     3     4   ar
     7     3    22    1
     8     4     5   ar
     9     5     6   ar
    10     6     7   ar
    11     7     8   ar
    12     7    21    1
    13     8     9   ar
    14     8    17    1
    15     9    10    1
    16    10    11   ar
    17    10    15   ar
    18    11    12   ar
    19    12    13   ar
    20    13    14   ar
    21    13    16    1
    22    14    15   ar
    23    17    18    1
    24    18    19    1
    25    19    20    1
    26    20    21    1
    27    22    23    2
    28    22    24   am
