@<TRIPOS>MOLECULE
26659_ChemDiv_8011-9010
 31 35 0 0 0
SMALL
GASTEIGER
Energy = 0

@<TRIPOS>ATOM
      1 C          -0.1500   -1.2000    0.0000 C.ar    1  LIG1        0.2197
      2 N          -0.4460   -0.2790    0.0000 N.ar    1  LIG1       -0.2681
      3 C          -1.4250   -0.2790    0.0000 C.ar    1  LIG1        0.1577
      4 C          -1.7580   -1.2460    0.0000 C.ar    1  LIG1        0.1713
      5 N          -0.9580   -1.8210    0.0000 N.ar    1  LIG1       -0.1933
      6 N          -2.7420   -1.4210    0.0000 N.ar    1  LIG1       -0.2628
      7 C          -3.4460   -0.6790    0.0000 C.ar    1  LIG1        0.3350
      8 N          -3.1250    0.2670    0.0000 N.ar    1  LIG1       -0.2454
      9 C          -2.1170    0.4670    0.0000 C.ar    1  LIG1        0.2835
     10 O          -1.7920    1.4330    0.0000 O.2     1  LIG1       -0.2651
     11 C          -3.7960    1.0210    0.0000 C.3     1  LIG1        0.1383
     12 O          -4.4380   -0.8960    0.0000 O.2     1  LIG1       -0.2461
     13 C          -3.0830   -2.4080    0.0000 C.3     1  LIG1        0.1366
     14 C           0.3330    0.2830    0.0000 C.ar    1  LIG1        0.1002
     15 C           1.1380   -0.2500    0.0000 C.ar    1  LIG1        0.0803
     16 N           0.8460   -1.2130    0.0000 N.ar    1  LIG1       -0.2930
     17 C           1.4130   -2.0380    0.0000 C.3     1  LIG1        0.1356
     18 C           2.4080   -1.9460    0.0000 C.ar    1  LIG1        0.0005
     19 C           2.8380   -1.0420    0.0000 C.ar    1  LIG1       -0.0024
     20 C           3.8250   -0.9500    0.0000 C.ar    1  LIG1       -0.0003
     21 C           4.4330   -1.7670    0.0000 C.ar    1  LIG1       -0.0000
     22 C           4.0000   -2.6580    0.0000 C.ar    1  LIG1       -0.0003
     23 C           2.9960   -2.7540    0.0000 C.ar    1  LIG1       -0.0024
     24 C           2.0830    0.1000    0.0000 C.ar    1  LIG1        0.0204
     25 C           2.2500    1.0580    0.0000 C.ar    1  LIG1        0.0384
     26 C           3.1830    1.4250    0.0000 C.ar    1  LIG1        0.1388
     27 O           3.3420    2.4130    0.0000 O.3     1  LIG1       -0.4714
     28 C           4.2830    2.7580    0.0000 C.3     1  LIG1        0.2525
     29 C           3.9460    0.8290    0.0000 C.ar    1  LIG1        0.0369
     30 C           3.8040   -0.1540    0.0000 C.ar    1  LIG1        0.0032
     31 C           2.8670   -0.5000    0.0000 C.ar    1  LIG1        0.0017
@<TRIPOS>BOND
     1     1     2   ar
     2     1     5   ar
     3     1    16   ar
     4     2     3   ar
     5     2    14   ar
     6     3     4   ar
     7     3     9   ar
     8     4     5   ar
     9     4     6   ar
    10     6     7   ar
    11     6    13    1
    12     7     8   ar
    13     7    12    2
    14     8     9   ar
    15     8    11    1
    16     9    10    2
    17    14    15   ar
    18    15    16   ar
    19    15    24    1
    20    16    17    1
    21    17    18    1
    22    18    19   ar
    23    18    23   ar
    24    19    20   ar
    25    20    21   ar
    26    21    22   ar
    27    22    23   ar
    28    24    25   ar
    29    24    31   ar
    30    25    26   ar
    31    26    27    1
    32    26    29   ar
    33    27    28    1
    34    29    30   ar
    35    30    31   ar
