@<TRIPOS>MOLECULE
26650_ChemDiv_8001-1388
 36 40 0 0 0
SMALL
GASTEIGER
Energy = 0

@<TRIPOS>ATOM
      1 C           0.8460    1.2420    0.0000 C.3     1  LIG1        0.1781
      2 C          -0.1250    1.4500    0.0000 C.3     1  LIG1        0.0830
      3 N          -0.6290    0.5880    0.0000 N.pl3   1  LIG1       -0.3033
      4 C           0.0500   -0.1630    0.0000 C.3     1  LIG1        0.1411
      5 C           0.9630    0.2540    0.0000 C.3     1  LIG1        0.0790
      6 C           1.8580   -0.2290    0.0000 C.ar    1  LIG1        0.0186
      7 C           2.6960    0.3210    0.0000 C.ar    1  LIG1        0.1350
      8 C           3.5880   -0.1630    0.0000 C.ar    1  LIG1        0.0397
      9 C           3.6250   -1.1630    0.0000 C.ar    1  LIG1        0.0400
     10 C           2.7670   -1.7040    0.0000 C.ar    1  LIG1        0.1386
     11 C           1.8880   -1.2290    0.0000 C.ar    1  LIG1        0.0357
     12 O           2.7880   -2.7040    0.0000 O.3     1  LIG1       -0.4714
     13 C           1.9330   -3.2080    0.0000 C.3     1  LIG1        0.2525
     14 O           2.6330    1.3170    0.0000 O.3     1  LIG1       -0.4717
     15 C           3.4830    1.7670    0.0000 C.3     1  LIG1        0.2525
     16 C          -0.1500   -1.1500    0.0000 C.2     1  LIG1        0.1912
     17 O           0.6170   -1.8000    0.0000 O.2     1  LIG1       -0.2896
     18 C          -1.0920   -1.4830    0.0000 C.ar    1  LIG1        0.0364
     19 C          -1.2710   -2.4540    0.0000 C.ar    1  LIG1        0.0029
     20 C          -2.2130   -2.7880    0.0000 C.ar    1  LIG1        0.0001
     21 C          -2.9710   -2.1290    0.0000 C.ar    1  LIG1        0.0000
     22 C          -2.7710   -1.1500    0.0000 C.ar    1  LIG1        0.0001
     23 C          -1.8380   -0.8290    0.0000 C.ar    1  LIG1        0.0029
     24 C          -1.6210    0.5880    0.0000 C.ar    1  LIG1        0.0480
     25 C          -2.1250    1.4500    0.0000 C.ar    1  LIG1        0.0131
     26 C          -1.6210    2.3250    0.0000 C.2     1  LIG1       -0.0020
     27 C          -0.6290    2.3250    0.0000 C.2     1  LIG1       -0.0105
     28 C          -3.1250    1.4500    0.0000 C.ar    1  LIG1        0.0012
     29 C          -3.6290    0.5880    0.0000 C.ar    1  LIG1        0.0001
     30 C          -3.1250   -0.2790    0.0000 C.ar    1  LIG1        0.0013
     31 C          -2.1250   -0.2790    0.0000 C.ar    1  LIG1        0.0145
     32 C           1.0170    2.2210    0.0000 C.1     1  LIG1        0.0875
     33 N           1.1710    3.2130    0.0000 N.1     1  LIG1       -0.1948
     34 C           1.7880    1.5830    0.0000 C.1     1  LIG1        0.0875
     35 N           2.7210    1.9540    0.0000 N.1     1  LIG1       -0.1948
     36 H           0.1330    2.4210    0.0000 H       1  LIG1        0.0576
@<TRIPOS>BOND
     1     1     2    1
     2     1     5    1
     3     1    32    1
     4     1    34    1
     5     2     3    1
     6     2    27    1
     7     2    36    1
     8     3     4    1
     9     3    24    1
    10     4     5    1
    11     4    16    1
    12     5     6    1
    13     6     7   ar
    14     6    11   ar
    15     7     8   ar
    16     7    14    1
    17     8     9   ar
    18     9    10   ar
    19    10    11   ar
    20    10    12    1
    21    12    13    1
    22    14    15    1
    23    16    17    2
    24    16    18    1
    25    18    19   ar
    26    18    23   ar
    27    19    20   ar
    28    20    21   ar
    29    21    22   ar
    30    22    23   ar
    31    24    25   ar
    32    24    31   ar
    33    25    26    1
    34    25    28   ar
    35    26    27    2
    36    28    29   ar
    37    29    30   ar
    38    30    31   ar
    39    32    33    3
    40    34    35    3
