@<TRIPOS>MOLECULE
26657_ChemDiv_8011-7113
 31 35 0 0 0
SMALL
GASTEIGER
Energy = 0

@<TRIPOS>ATOM
      1 C          -1.6670    2.1750    0.0000 C.ar    1  LIG1        0.1577
      2 C          -1.6670    1.2250    0.0000 C.ar    1  LIG1        0.1713
      3 N          -0.8330    0.7540    0.0000 N.ar    1  LIG1       -0.1933
      4 C          -0.0040    1.2250    0.0000 C.ar    1  LIG1        0.2194
      5 N          -0.0040    2.1750    0.0000 N.ar    1  LIG1       -0.2681
      6 C           1.6630    2.1750    0.0000 C.ar    1  LIG1        0.1002
      7 C           1.6630    1.2250    0.0000 C.ar    1  LIG1        0.0799
      8 N           0.8330    0.7540    0.0000 N.ar    1  LIG1       -0.2970
      9 C           0.8330   -0.2460    0.0000 C.3     1  LIG1        0.1151
     10 C          -0.0040   -0.7540    0.0000 C.3     1  LIG1        0.0872
     11 C          -0.0290   -1.7130    0.0000 C.3     1  LIG1        0.1408
     12 N           0.8710   -2.1790    0.0000 N.4     1  LIG1        0.3813
     13 C           0.8710   -3.1460    0.0000 C.3     1  LIG1        0.1713
     14 C           1.7130   -3.5920    0.0000 C.3     1  LIG1        0.2047
     15 O           2.5500   -3.1460    0.0000 O.3     1  LIG1       -0.3411
     16 C           2.5500   -2.1790    0.0000 C.3     1  LIG1        0.2047
     17 C           1.7080   -1.7130    0.0000 C.3     1  LIG1        0.1713
     18 C           2.5330    0.7380    0.0000 C.ar    1  LIG1        0.0174
     19 C           3.3580    1.2250    0.0000 C.ar    1  LIG1        0.0015
     20 C           4.1630    0.7380    0.0000 C.ar    1  LIG1        0.0000
     21 C           4.1630   -0.2290    0.0000 C.ar    1  LIG1        0.0000
     22 C           3.3580   -0.6830    0.0000 C.ar    1  LIG1        0.0000
     23 C           2.5330   -0.2290    0.0000 C.ar    1  LIG1        0.0015
     24 N          -2.5130    0.7540    0.0000 N.ar    1  LIG1       -0.2628
     25 C          -3.3380    1.2250    0.0000 C.ar    1  LIG1        0.3350
     26 N          -3.3380    2.1750    0.0000 N.ar    1  LIG1       -0.2454
     27 C          -2.5130    2.6460    0.0000 C.ar    1  LIG1        0.2835
     28 O          -2.5130    3.5960    0.0000 O.2     1  LIG1       -0.2651
     29 C          -4.1670    2.6460    0.0000 C.3     1  LIG1        0.1383
     30 O          -4.1670    0.7540    0.0000 O.2     1  LIG1       -0.2461
     31 C          -2.5130   -0.1960    0.0000 C.3     1  LIG1        0.1366
@<TRIPOS>BOND
     1     1     2   ar
     2     1     5   ar
     3     1    27   ar
     4     2     3   ar
     5     2    24   ar
     6     3     4   ar
     7     4     5   ar
     8     4     8   ar
     9     5     6   ar
    10     6     7   ar
    11     7     8   ar
    12     7    18    1
    13     8     9    1
    14     9    10    1
    15    10    11    1
    16    11    12    1
    17    12    13    1
    18    12    17    1
    19    13    14    1
    20    14    15    1
    21    15    16    1
    22    16    17    1
    23    18    19   ar
    24    18    23   ar
    25    19    20   ar
    26    20    21   ar
    27    21    22   ar
    28    22    23   ar
    29    24    25   ar
    30    24    31    1
    31    25    26   ar
    32    25    30    2
    33    26    27   ar
    34    26    29    1
    35    27    28    2
