@<TRIPOS>MOLECULE
26661_ChemDiv_8012-3453
 31 35 0 0 0
SMALL
GASTEIGER
Energy = 0

@<TRIPOS>ATOM
      1 C          -2.0830   -0.3380    0.0000 C.ar    1  LIG1        0.1577
      2 C          -2.0830   -1.3460    0.0000 C.ar    1  LIG1        0.1713
      3 N          -1.1290   -1.6380    0.0000 N.ar    1  LIG1       -0.1933
      4 C          -0.5460   -0.8630    0.0000 C.ar    1  LIG1        0.2195
      5 N          -1.1290   -0.0460    0.0000 N.ar    1  LIG1       -0.2681
      6 C          -0.5000    0.7630    0.0000 C.ar    1  LIG1        0.1002
      7 C           0.4460    0.4080    0.0000 C.ar    1  LIG1        0.0799
      8 N           0.4290   -0.5670    0.0000 N.ar    1  LIG1       -0.2968
      9 C           1.2540   -1.1500    0.0000 C.3     1  LIG1        0.1136
     10 C           2.1580   -0.7290    0.0000 C.3     1  LIG1        0.0509
     11 C           2.9830   -1.3130    0.0000 C.ar    1  LIG1       -0.0202
     12 C           2.8750   -2.2880    0.0000 C.ar    1  LIG1       -0.0042
     13 C           3.6750   -2.8670    0.0000 C.ar    1  LIG1       -0.0003
     14 C           4.6080   -2.4830    0.0000 C.ar    1  LIG1       -0.0000
     15 C           4.6920   -1.4750    0.0000 C.ar    1  LIG1       -0.0003
     16 C           3.8880   -0.8920    0.0000 C.ar    1  LIG1       -0.0042
     17 C           1.2290    1.0290    0.0000 C.ar    1  LIG1        0.0174
     18 C           1.0920    2.0290    0.0000 C.ar    1  LIG1        0.0020
     19 C           1.9040    2.6500    0.0000 C.ar    1  LIG1        0.0067
     20 C           2.8080    2.2580    0.0000 C.ar    1  LIG1        0.0346
     21 C           2.9330    1.2880    0.0000 C.ar    1  LIG1        0.0067
     22 C           2.1580    0.6670    0.0000 C.ar    1  LIG1        0.0020
     23 BR          3.6080    2.8710    0.0000 Br      1  LIG1       -0.0490
     24 N          -2.9460   -1.8330    0.0000 N.ar    1  LIG1       -0.2628
     25 C          -3.8130   -1.3460    0.0000 C.ar    1  LIG1        0.3350
     26 N          -3.8130   -0.3380    0.0000 N.ar    1  LIG1       -0.2454
     27 C          -2.9460    0.1500    0.0000 C.ar    1  LIG1        0.2835
     28 O          -2.9460    1.1540    0.0000 O.2     1  LIG1       -0.2651
     29 C          -4.6960    0.1500    0.0000 C.3     1  LIG1        0.1383
     30 O          -4.6960   -1.8330    0.0000 O.2     1  LIG1       -0.2461
     31 C          -2.9460   -2.8420    0.0000 C.3     1  LIG1        0.1366
@<TRIPOS>BOND
     1     1     2   ar
     2     1     5   ar
     3     1    27   ar
     4     2     3   ar
     5     2    24   ar
     6     3     4   ar
     7     4     5   ar
     8     4     8   ar
     9     5     6   ar
    10     6     7   ar
    11     7     8   ar
    12     7    17    1
    13     8     9    1
    14     9    10    1
    15    10    11    1
    16    11    12   ar
    17    11    16   ar
    18    12    13   ar
    19    13    14   ar
    20    14    15   ar
    21    15    16   ar
    22    17    18   ar
    23    17    22   ar
    24    18    19   ar
    25    19    20   ar
    26    20    21   ar
    27    20    23    1
    28    21    22   ar
    29    24    25   ar
    30    24    31    1
    31    25    26   ar
    32    25    30    2
    33    26    27   ar
    34    26    29    1
    35    27    28    2
