@<TRIPOS>MOLECULE
26663_ChemDiv_8012-6535
 36 40 0 0 0
SMALL
GASTEIGER
Energy = 0

@<TRIPOS>ATOM
      1 C          -3.3710    0.0250    0.0000 C.ar    1  LIG1        0.1577
      2 C          -3.3710   -0.9750    0.0000 C.ar    1  LIG1        0.1713
      3 N          -2.4420   -1.2880    0.0000 N.ar    1  LIG1       -0.1933
      4 C          -1.8630   -0.4880    0.0000 C.ar    1  LIG1        0.2195
      5 N          -2.4420    0.3170    0.0000 N.ar    1  LIG1       -0.2681
      6 C          -1.8380    1.1130    0.0000 C.ar    1  LIG1        0.1002
      7 C          -0.9040    0.7790    0.0000 C.ar    1  LIG1        0.0799
      8 N          -0.9040   -0.2000    0.0000 N.ar    1  LIG1       -0.2968
      9 C          -0.0830   -0.7540    0.0000 C.3     1  LIG1        0.1136
     10 C           0.8290   -0.3290    0.0000 C.3     1  LIG1        0.0510
     11 C           1.6330   -0.8880    0.0000 C.ar    1  LIG1       -0.0170
     12 C           2.5460   -0.4630    0.0000 C.ar    1  LIG1        0.0358
     13 C           3.3420   -1.0170    0.0000 C.ar    1  LIG1        0.1719
     14 C           3.2790   -2.0420    0.0000 C.ar    1  LIG1        0.1722
     15 C           2.3630   -2.4630    0.0000 C.ar    1  LIG1        0.0397
     16 C           1.5460   -1.9080    0.0000 C.ar    1  LIG1       -0.0009
     17 O           4.1040   -2.6210    0.0000 O.3     1  LIG1       -0.4724
     18 C           5.0080   -2.2000    0.0000 C.3     1  LIG1        0.2057
     19 C           5.8130   -2.7790    0.0000 C.3     1  LIG1        0.0512
     20 O           4.2580   -0.5750    0.0000 O.3     1  LIG1       -0.4724
     21 C           5.0830   -1.1540    0.0000 C.3     1  LIG1        0.2057
     22 C           5.9710   -0.7080    0.0000 C.3     1  LIG1        0.0512
     23 C          -0.0380    1.2670    0.0000 C.ar    1  LIG1        0.0174
     24 C           0.8290    0.7790    0.0000 C.ar    1  LIG1        0.0015
     25 C           1.6960    1.2670    0.0000 C.ar    1  LIG1        0.0000
     26 C           1.6960    2.2920    0.0000 C.ar    1  LIG1        0.0000
     27 C           0.8290    2.7830    0.0000 C.ar    1  LIG1        0.0000
     28 C          -0.0380    2.2710    0.0000 C.ar    1  LIG1        0.0015
     29 N          -4.2380   -1.4830    0.0000 N.ar    1  LIG1       -0.2628
     30 C          -5.1080   -1.0000    0.0000 C.ar    1  LIG1        0.3350
     31 N          -5.1080    0.0250    0.0000 N.ar    1  LIG1       -0.2454
     32 C          -4.2380    0.5170    0.0000 C.ar    1  LIG1        0.2835
     33 O          -4.2380    1.5170    0.0000 O.2     1  LIG1       -0.2651
     34 C          -5.9750    0.5580    0.0000 C.3     1  LIG1        0.1383
     35 O          -5.9750   -1.5330    0.0000 O.2     1  LIG1       -0.2461
     36 C          -4.2380   -2.4880    0.0000 C.3     1  LIG1        0.1366
@<TRIPOS>BOND
     1     1     2   ar
     2     1     5   ar
     3     1    32   ar
     4     2     3   ar
     5     2    29   ar
     6     3     4   ar
     7     4     5   ar
     8     4     8   ar
     9     5     6   ar
    10     6     7   ar
    11     7     8   ar
    12     7    23    1
    13     8     9    1
    14     9    10    1
    15    10    11    1
    16    11    12   ar
    17    11    16   ar
    18    12    13   ar
    19    13    14   ar
    20    13    20    1
    21    14    15   ar
    22    14    17    1
    23    15    16   ar
    24    17    18    1
    25    18    19    1
    26    20    21    1
    27    21    22    1
    28    23    24   ar
    29    23    28   ar
    30    24    25   ar
    31    25    26   ar
    32    26    27   ar
    33    27    28   ar
    34    29    30   ar
    35    29    36    1
    36    30    31   ar
    37    30    35    2
    38    31    32   ar
    39    31    34    1
    40    32    33    2
