@<TRIPOS>MOLECULE
26668_ChemDiv_1473-0080
 33 36 0 0 0
SMALL
GASTEIGER
Energy = 0

@<TRIPOS>ATOM
      1 S          -3.6210    1.3210    0.0000 S.O2    1  LIG1        0.0634
      2 N          -4.1380    2.1830    0.0000 N.3     1  LIG1       -0.1504
      3 C          -3.6750    3.0790    0.0000 C.3     1  LIG1        0.1279
      4 C          -4.1790    3.9210    0.0000 C.3     1  LIG1        0.1613
      5 O          -5.2000    3.9040    0.0000 O.3     1  LIG1       -0.3507
      6 C          -5.6630    3.0250    0.0000 C.3     1  LIG1        0.1613
      7 C          -5.1290    2.1630    0.0000 C.3     1  LIG1        0.1279
      8 C          -3.1040    0.4420    0.0000 C.ar    1  LIG1        0.1225
      9 C          -2.0750    0.4420    0.0000 C.ar    1  LIG1        0.0272
     10 C          -1.5920   -0.4380    0.0000 C.ar    1  LIG1        0.0879
     11 C          -0.5500   -0.4380    0.0000 C.2     1  LIG1        0.3466
     12 O          -0.0670   -1.3000    0.0000 O.3     1  LIG1       -0.4210
     13 C           0.9210   -1.3080    0.0000 C.ar    1  LIG1        0.1501
     14 C           1.4250   -2.1710    0.0000 C.ar    1  LIG1        0.0542
     15 C           2.4210   -2.1880    0.0000 C.ar    1  LIG1        0.0768
     16 N           2.8960   -3.0580    0.0000 N.am    1  LIG1       -0.1727
     17 C           3.8830   -3.0750    0.0000 C.2     1  LIG1        0.3037
     18 C           4.4000   -2.2420    0.0000 C.ar    1  LIG1        0.2005
     19 O           4.0540   -1.2790    0.0000 O.2     1  LIG1       -0.4457
     20 C           4.8130   -0.6830    0.0000 C.ar    1  LIG1        0.1798
     21 C           5.6580   -1.2080    0.0000 C.ar    1  LIG1        0.0440
     22 C           5.3880   -2.1880    0.0000 C.ar    1  LIG1        0.0455
     23 O           4.3580   -3.9170    0.0000 O.2     1  LIG1       -0.2646
     24 C           2.9290   -1.3290    0.0000 C.ar    1  LIG1        0.0168
     25 C           2.4290   -0.4670    0.0000 C.ar    1  LIG1        0.0045
     26 C           1.4420   -0.4670    0.0000 C.ar    1  LIG1        0.0377
     27 O          -0.0670    0.4420    0.0000 O.2     1  LIG1       -0.2445
     28 C          -2.0750   -1.3000    0.0000 C.ar    1  LIG1        0.0640
     29 C          -3.1040   -1.3000    0.0000 C.ar    1  LIG1        0.0130
     30 C          -3.6210   -0.4380    0.0000 C.ar    1  LIG1        0.0208
     31 CL         -1.5540   -2.1250    0.0000 Cl      1  LIG1       -0.0820
     32 O          -4.4960    0.8000    0.0000 O.2     1  LIG1       -0.1528
     33 O          -2.7630    1.8290    0.0000 O.2     1  LIG1       -0.1528
@<TRIPOS>BOND
     1     1     2    1
     2     1     8    1
     3     1    32    2
     4     1    33    2
     5     2     3    1
     6     2     7    1
     7     3     4    1
     8     4     5    1
     9     5     6    1
    10     6     7    1
    11     8     9   ar
    12     8    30   ar
    13     9    10   ar
    14    10    11    1
    15    10    28   ar
    16    11    12    1
    17    11    27    2
    18    12    13    1
    19    13    14   ar
    20    13    26   ar
    21    14    15   ar
    22    15    16    1
    23    15    24   ar
    24    16    17   am
    25    17    18    1
    26    17    23    2
    27    18    19   ar
    28    18    22   ar
    29    19    20   ar
    30    20    21   ar
    31    21    22   ar
    32    24    25   ar
    33    25    26   ar
    34    28    29   ar
    35    28    31    1
    36    29    30   ar
