@<TRIPOS>MOLECULE
26670_ChemDiv_1473-0083
 33 36 0 0 0
SMALL
GASTEIGER
Energy = 0

@<TRIPOS>ATOM
      1 N           1.7960   -1.9290    0.0000 N.ar    1  LIG1       -0.1449
      2 N           0.8250   -2.0130    0.0000 N.ar    1  LIG1       -0.1463
      3 C           0.5630   -2.9830    0.0000 C.ar    1  LIG1        0.1221
      4 C           1.4210   -3.5330    0.0000 C.ar    1  LIG1        0.1221
      5 N           2.1830   -2.8540    0.0000 N.ar    1  LIG1       -0.1463
      6 C           1.3960   -4.5130    0.0000 C.ar    1  LIG1        0.0225
      7 C           0.4670   -4.9830    0.0000 C.ar    1  LIG1        0.0017
      8 C          -0.3710   -4.4420    0.0000 C.ar    1  LIG1        0.0017
      9 C          -0.3000   -3.4290    0.0000 C.ar    1  LIG1        0.0225
     10 C           2.2790   -1.0830    0.0000 C.ar    1  LIG1        0.1370
     11 C           1.7790   -0.2250    0.0000 C.ar    1  LIG1        0.1679
     12 O           0.7960   -0.2130    0.0000 O.3     1  LIG1       -0.4194
     13 C           0.3130    0.6460    0.0000 C.2     1  LIG1        0.3458
     14 C          -0.7210    0.6460    0.0000 C.ar    1  LIG1        0.0774
     15 C          -1.2040    1.5210    0.0000 C.ar    1  LIG1        0.0264
     16 C          -2.2290    1.5210    0.0000 C.ar    1  LIG1        0.1224
     17 S          -2.7460    2.3960    0.0000 S.O2    1  LIG1        0.0633
     18 N          -3.2580    3.2540    0.0000 N.3     1  LIG1       -0.1555
     19 C          -4.2500    3.2380    0.0000 C.3     1  LIG1        0.0958
     20 C          -4.7790    4.0880    0.0000 C.3     1  LIG1        0.0206
     21 C          -2.8000    4.1420    0.0000 C.3     1  LIG1        0.0958
     22 C          -3.3000    4.9830    0.0000 C.3     1  LIG1        0.0206
     23 O          -3.6170    1.8790    0.0000 O.2     1  LIG1       -0.1528
     24 O          -1.8920    2.9040    0.0000 O.2     1  LIG1       -0.1528
     25 C          -2.7460    0.6460    0.0000 C.ar    1  LIG1        0.0199
     26 C          -2.2290   -0.2130    0.0000 C.ar    1  LIG1        0.0016
     27 C          -1.2040   -0.2130    0.0000 C.ar    1  LIG1        0.0065
     28 O           0.7960    1.5210    0.0000 O.2     1  LIG1       -0.2445
     29 C           2.2960    0.6170    0.0000 C.ar    1  LIG1        0.0389
     30 C           3.2790    0.6170    0.0000 C.ar    1  LIG1       -0.0010
     31 C           3.7790   -0.2420    0.0000 C.ar    1  LIG1       -0.0201
     32 C           3.2750   -1.1000    0.0000 C.ar    1  LIG1        0.0198
     33 C           4.7750   -0.2420    0.0000 C.3     1  LIG1        0.0311
@<TRIPOS>BOND
     1     1     2   ar
     2     1     5   ar
     3     1    10    1
     4     2     3   ar
     5     3     4   ar
     6     3     9   ar
     7     4     5   ar
     8     4     6   ar
     9     6     7   ar
    10     7     8   ar
    11     8     9   ar
    12    10    11   ar
    13    10    32   ar
    14    11    12    1
    15    11    29   ar
    16    12    13    1
    17    13    14    1
    18    13    28    2
    19    14    15   ar
    20    14    27   ar
    21    15    16   ar
    22    16    17    1
    23    16    25   ar
    24    17    18    1
    25    17    23    2
    26    17    24    2
    27    18    19    1
    28    18    21    1
    29    19    20    1
    30    21    22    1
    31    25    26   ar
    32    26    27   ar
    33    29    30   ar
    34    30    31   ar
    35    31    32   ar
    36    31    33    1
