@<TRIPOS>MOLECULE
26671_ChemDiv_8013-0502
 28 31 0 0 0
SMALL
GASTEIGER
Energy = 0

@<TRIPOS>ATOM
      1 C           0.0080   -0.7540    0.0000 C.ar    1  LIG1        0.2191
      2 N          -0.3040    0.2170    0.0000 N.ar    1  LIG1       -0.2734
      3 C          -1.2960    0.2170    0.0000 C.ar    1  LIG1        0.1574
      4 C          -1.6130   -0.7540    0.0000 C.ar    1  LIG1        0.1713
      5 N          -0.8000   -1.3290    0.0000 N.ar    1  LIG1       -0.1933
      6 N          -2.5750   -0.9580    0.0000 N.ar    1  LIG1       -0.2628
      7 C          -3.2380   -0.2080    0.0000 C.ar    1  LIG1        0.3350
      8 N          -2.9460    0.7380    0.0000 N.ar    1  LIG1       -0.2454
      9 C          -1.9790    0.9380    0.0000 C.ar    1  LIG1        0.2835
     10 O          -1.6790    1.9080    0.0000 O.2     1  LIG1       -0.2651
     11 C          -3.6250    1.4630    0.0000 C.3     1  LIG1        0.1383
     12 O          -4.2210   -0.4040    0.0000 O.2     1  LIG1       -0.2461
     13 C          -2.8920   -1.9250    0.0000 C.3     1  LIG1        0.1366
     14 C           0.5080    0.7880    0.0000 C.ar    1  LIG1        0.0600
     15 C           1.3250    0.1880    0.0000 C.ar    1  LIG1        0.0743
     16 N           1.0080   -0.7540    0.0000 N.ar    1  LIG1       -0.2975
     17 C           1.6080   -1.5790    0.0000 C.3     1  LIG1        0.1089
     18 C           2.6040   -1.4540    0.0000 C.3     1  LIG1        0.0246
     19 C           3.2000   -2.2750    0.0000 C.3     1  LIG1        0.0020
     20 C           4.1920   -2.1830    0.0000 C.3     1  LIG1        0.0001
     21 C           2.2880    0.4420    0.0000 C.ar    1  LIG1        0.0170
     22 C           2.9880   -0.2830    0.0000 C.ar    1  LIG1        0.0015
     23 C           3.9500   -0.0330    0.0000 C.ar    1  LIG1        0.0000
     24 C           4.2170    0.9380    0.0000 C.ar    1  LIG1        0.0000
     25 C           3.5380    1.6330    0.0000 C.ar    1  LIG1        0.0000
     26 C           2.5710    1.3830    0.0000 C.ar    1  LIG1        0.0015
     27 C           0.5250    1.7830    0.0000 C.3     1  LIG1        0.0457
     28 C           1.3920    2.2790    0.0000 C.3     1  LIG1        0.0067
@<TRIPOS>BOND
     1     1     2   ar
     2     1     5   ar
     3     1    16   ar
     4     2     3   ar
     5     2    14   ar
     6     3     4   ar
     7     3     9   ar
     8     4     5   ar
     9     4     6   ar
    10     6     7   ar
    11     6    13    1
    12     7     8   ar
    13     7    12    2
    14     8     9   ar
    15     8    11    1
    16     9    10    2
    17    14    15   ar
    18    14    27    1
    19    15    16   ar
    20    15    21    1
    21    16    17    1
    22    17    18    1
    23    18    19    1
    24    19    20    1
    25    21    22   ar
    26    21    26   ar
    27    22    23   ar
    28    23    24   ar
    29    24    25   ar
    30    25    26   ar
    31    27    28    1
