@<TRIPOS>MOLECULE
26689_ChemDiv_C050-0274
 32 35 0 0 0
SMALL
GASTEIGER
Energy = 0

@<TRIPOS>ATOM
      1 N           1.2540   -0.4750    0.0000 N.ar    1  LIG1       -0.1074
      2 S           1.2540   -1.4710    0.0000 S.O2    1  LIG1        0.1019
      3 C           1.2710   -2.4750    0.0000 C.ar    1  LIG1        0.1292
      4 C           2.1380   -2.9580    0.0000 C.ar    1  LIG1        0.0201
      5 C           2.1540   -3.9710    0.0000 C.ar    1  LIG1       -0.0029
      6 C           1.2920   -4.4750    0.0000 C.ar    1  LIG1       -0.0218
      7 C           0.4250   -3.9920    0.0000 C.ar    1  LIG1       -0.0029
      8 C           0.4130   -2.9920    0.0000 C.ar    1  LIG1        0.0201
      9 C           1.3040   -5.4750    0.0000 C.3     1  LIG1        0.0310
     10 O           0.2460   -1.5000    0.0000 O.2     1  LIG1       -0.1462
     11 O           2.2380   -1.4670    0.0000 O.2     1  LIG1       -0.1462
     12 N           0.4420    0.1080    0.0000 N.ar    1  LIG1       -0.1088
     13 C           0.7540    1.0630    0.0000 C.ar    1  LIG1        0.2543
     14 C           1.7420    1.0630    0.0000 C.ar    1  LIG1        0.0989
     15 C           2.0630    0.1080    0.0000 C.ar    1  LIG1        0.1955
     16 N           3.0130   -0.2000    0.0000 N.pl3   1  LIG1       -0.1054
     17 O           0.1630    1.8750    0.0000 O.3     1  LIG1       -0.4012
     18 C          -0.8330    1.7710    0.0000 C.2     1  LIG1        0.3513
     19 C          -1.4250    2.5790    0.0000 C.ar    1  LIG1        0.1296
     20 C          -1.1040    3.5330    0.0000 C.ar    1  LIG1        0.1296
     21 N          -1.9250    4.1130    0.0000 N.ar    1  LIG1       -0.0771
     22 O          -2.7290    3.5210    0.0000 O.2     1  LIG1       -0.3575
     23 C          -2.4250    2.5790    0.0000 C.ar    1  LIG1        0.1610
     24 C          -3.0170    1.7710    0.0000 C.3     1  LIG1        0.0756
     25 C          -0.1500    3.8250    0.0000 C.ar    1  LIG1        0.0317
     26 C           0.0460    4.8080    0.0000 C.ar    1  LIG1        0.0592
     27 CL         -0.6960    5.4750    0.0000 Cl      1  LIG1       -0.0822
     28 C           1.0000    5.1210    0.0000 C.ar    1  LIG1        0.0114
     29 C           1.7420    4.4420    0.0000 C.ar    1  LIG1        0.0009
     30 C           1.5420    3.4790    0.0000 C.ar    1  LIG1        0.0001
     31 C           0.5880    3.1580    0.0000 C.ar    1  LIG1        0.0024
     32 O          -1.2420    0.8630    0.0000 O.2     1  LIG1       -0.2443
@<TRIPOS>BOND
     1     1     2    1
     2     1    12   ar
     3     1    15   ar
     4     2     3    1
     5     2    10    2
     6     2    11    2
     7     3     4   ar
     8     3     8   ar
     9     4     5   ar
    10     5     6   ar
    11     6     7   ar
    12     6     9    1
    13     7     8   ar
    14    12    13   ar
    15    13    14   ar
    16    13    17    1
    17    14    15   ar
    18    15    16    1
    19    17    18    1
    20    18    19    1
    21    18    32    2
    22    19    20   ar
    23    19    23   ar
    24    20    21   ar
    25    20    25    1
    26    21    22   ar
    27    22    23   ar
    28    23    24    1
    29    25    26   ar
    30    25    31   ar
    31    26    27    1
    32    26    28   ar
    33    28    29   ar
    34    29    30   ar
    35    30    31   ar
