@<TRIPOS>MOLECULE
26693_ChemDiv_1481-0002
 19 21 0 0 0
SMALL
GASTEIGER
Energy = 0

@<TRIPOS>ATOM
      1 C           0.1170   -0.4960    0.0000 C.ar    1  LIG1        0.1241
      2 N           0.9790   -1.0130    0.0000 N.ar    1  LIG1       -0.2080
      3 C           1.8420   -0.4960    0.0000 C.ar    1  LIG1        0.2328
      4 C           1.8420    0.5000    0.0000 C.ar    1  LIG1        0.0906
      5 C           0.9790    1.0040    0.0000 C.ar    1  LIG1        0.1447
      6 C           0.1170    0.5000    0.0000 C.ar    1  LIG1        0.0551
      7 C          -0.7380    1.0040    0.0000 C.ar    1  LIG1        0.0078
      8 C          -1.6130    0.5000    0.0000 C.ar    1  LIG1        0.0402
      9 C          -1.6130   -0.4960    0.0000 C.ar    1  LIG1        0.1739
     10 C          -0.7380   -1.0130    0.0000 C.ar    1  LIG1        0.1900
     11 O          -0.7380   -1.9960    0.0000 O.3     1  LIG1       -0.4668
     12 C           0.1170   -2.4920    0.0000 C.3     1  LIG1        0.2527
     13 O          -2.4880   -1.0130    0.0000 O.3     1  LIG1       -0.4683
     14 C          -3.3710   -0.4960    0.0000 C.3     1  LIG1        0.2526
     15 O           0.9790    2.0080    0.0000 O.3     1  LIG1       -0.4712
     16 C           1.8420    2.4960    0.0000 C.3     1  LIG1        0.2525
     17 C           2.7920    0.8170    0.0000 C.ar    1  LIG1        0.0484
     18 C           3.3670    0.0130    0.0000 C.ar    1  LIG1        0.1817
     19 O           2.7920   -0.8040    0.0000 O.2     1  LIG1       -0.4329
@<TRIPOS>BOND
     1     1     2   ar
     2     1     6   ar
     3     1    10   ar
     4     2     3   ar
     5     3     4   ar
     6     3    19   ar
     7     4     5   ar
     8     4    17   ar
     9     5     6   ar
    10     5    15    1
    11     6     7   ar
    12     7     8   ar
    13     8     9   ar
    14     9    10   ar
    15     9    13    1
    16    10    11    1
    17    11    12    1
    18    13    14    1
    19    15    16    1
    20    17    18   ar
    21    18    19   ar
