@<TRIPOS>MOLECULE
26699_ChemDiv_N039-0007
 17 19 0 0 0
SMALL
GASTEIGER
Energy = 0

@<TRIPOS>ATOM
      1 C           1.2920   -0.5830    0.0000 C.ar    1  LIG1        0.0916
      2 C           0.4420   -0.0830    0.0000 C.ar    1  LIG1        0.1446
      3 C          -0.4380   -0.5960    0.0000 C.ar    1  LIG1        0.0519
      4 C          -0.4380   -1.5960    0.0000 C.ar    1  LIG1        0.0874
      5 N           0.4420   -2.0920    0.0000 N.ar    1  LIG1       -0.2077
      6 C           1.2920   -1.5960    0.0000 C.ar    1  LIG1        0.2821
      7 O           2.1580   -2.1210    0.0000 O.2     1  LIG1       -0.2651
      8 C          -1.2960   -2.0920    0.0000 C.ar    1  LIG1        0.0193
      9 C          -2.1630   -1.5960    0.0000 C.ar    1  LIG1        0.0015
     10 C          -2.1630   -0.5960    0.0000 C.ar    1  LIG1        0.0002
     11 C          -1.2960   -0.0960    0.0000 C.ar    1  LIG1        0.0045
     12 O           0.4420    0.9170    0.0000 O.3     1  LIG1       -0.4783
     13 C           1.2920    1.4130    0.0000 C.3     1  LIG1        0.1517
     14 C           2.1580    0.9170    0.0000 C.2     1  LIG1        0.0130
     15 C           2.1580   -0.0830    0.0000 C.2     1  LIG1        0.0067
     16 C           2.0130    2.1250    0.0000 C.3     1  LIG1        0.0483
     17 C           0.4290    1.9250    0.0000 C.3     1  LIG1        0.0483
@<TRIPOS>BOND
     1     1     2   ar
     2     1     6   ar
     3     1    15    1
     4     2     3   ar
     5     2    12    1
     6     3     4   ar
     7     3    11   ar
     8     4     5   ar
     9     4     8   ar
    10     5     6   ar
    11     6     7    2
    12     8     9   ar
    13     9    10   ar
    14    10    11   ar
    15    12    13    1
    16    13    14    1
    17    13    16    1
    18    13    17    1
    19    14    15    2
