@<TRIPOS>MOLECULE
26695_ChemDiv_1481-0004
 24 26 0 0 0
SMALL
GASTEIGER
Energy = 0

@<TRIPOS>ATOM
      1 C           0.3290   -0.2250    0.0000 C.ar    1  LIG1        0.0878
      2 N           1.1920   -0.7420    0.0000 N.ar    1  LIG1       -0.2135
      3 C           2.0500   -0.2250    0.0000 C.ar    1  LIG1        0.2325
      4 C           2.0500    0.7580    0.0000 C.ar    1  LIG1        0.0903
      5 C           1.1920    1.2630    0.0000 C.ar    1  LIG1        0.1404
      6 C           0.3290    0.7580    0.0000 C.ar    1  LIG1        0.0280
      7 C          -0.5250    1.2630    0.0000 C.3     1  LIG1        0.0334
      8 C          -1.4040    0.7580    0.0000 C.3     1  LIG1        0.0406
      9 C          -1.4040   -0.2250    0.0000 C.3     1  LIG1        0.1822
     10 C          -0.5250   -0.7420    0.0000 C.3     1  LIG1        0.1553
     11 C          -1.1960   -1.4790    0.0000 C.3     1  LIG1        0.0380
     12 C          -2.1750   -1.2750    0.0000 C.3     1  LIG1        0.0333
     13 C          -2.8380   -2.0250    0.0000 C.3     1  LIG1        0.1269
     14 O          -2.0920   -2.6880    0.0000 O.3     1  LIG1       -0.2257
     15 C          -3.5000   -2.7580    0.0000 C.3     1  LIG1        0.0329
     16 C          -3.5880   -1.3460    0.0000 C.3     1  LIG1        0.0329
     17 O          -0.5250   -1.7380    0.0000 O.3     1  LIG1       -0.3478
     18 C           0.3290   -2.2420    0.0000 C.3     1  LIG1        0.1745
     19 O          -2.2880   -0.7420    0.0000 O.3     1  LIG1       -0.2202
     20 O           1.1920    2.2710    0.0000 O.3     1  LIG1       -0.4715
     21 C           2.0500    2.7630    0.0000 C.3     1  LIG1        0.2525
     22 C           3.0170    1.0830    0.0000 C.ar    1  LIG1        0.0484
     23 C           3.5830    0.2710    0.0000 C.ar    1  LIG1        0.1817
     24 O           3.0170   -0.5460    0.0000 O.2     1  LIG1       -0.4329
@<TRIPOS>BOND
     1     1     2   ar
     2     1     6   ar
     3     1    10    1
     4     2     3   ar
     5     3     4   ar
     6     3    24   ar
     7     4     5   ar
     8     4    22   ar
     9     5     6   ar
    10     5    20    1
    11     6     7    1
    12     7     8    1
    13     8     9    1
    14     9    10    1
    15     9    19    1
    16    10    11    1
    17    10    17    1
    18    11    12    1
    19    12    13    1
    20    13    14    1
    21    13    15    1
    22    13    16    1
    23    17    18    1
    24    20    21    1
    25    22    23   ar
    26    23    24   ar
