@<TRIPOS>MOLECULE
26697_ChemDiv_1481-0014
 19 21 0 0 0
SMALL
GASTEIGER
Energy = 0

@<TRIPOS>ATOM
      1 C           1.7210   -0.5790    0.0000 C.ar    1  LIG1        0.0916
      2 C           0.8750   -0.0830    0.0000 C.ar    1  LIG1        0.1447
      3 C          -0.0040   -0.5920    0.0000 C.ar    1  LIG1        0.0549
      4 C          -0.0040   -1.5960    0.0000 C.ar    1  LIG1        0.0876
      5 N           0.8750   -2.0960    0.0000 N.ar    1  LIG1       -0.2077
      6 C           1.7210   -1.5960    0.0000 C.ar    1  LIG1        0.2821
      7 O           2.5880   -2.1210    0.0000 O.2     1  LIG1       -0.2651
      8 C          -0.8630   -2.0960    0.0000 C.ar    1  LIG1        0.0224
      9 C          -1.7290   -1.5960    0.0000 C.ar    1  LIG1        0.0384
     10 C          -1.7290   -0.5920    0.0000 C.ar    1  LIG1        0.1389
     11 C          -0.8630   -0.0960    0.0000 C.ar    1  LIG1        0.0414
     12 O          -2.5920   -0.0960    0.0000 O.3     1  LIG1       -0.4714
     13 C          -2.5920    0.9000    0.0000 C.3     1  LIG1        0.2525
     14 O           0.8750    0.9130    0.0000 O.3     1  LIG1       -0.4783
     15 C           1.7210    1.4130    0.0000 C.3     1  LIG1        0.1517
     16 C           2.5880    0.9130    0.0000 C.2     1  LIG1        0.0130
     17 C           2.5880   -0.0830    0.0000 C.2     1  LIG1        0.0067
     18 C           0.8540    1.9250    0.0000 C.3     1  LIG1        0.0483
     19 C           2.4460    2.1250    0.0000 C.3     1  LIG1        0.0483
@<TRIPOS>BOND
     1     1     2   ar
     2     1     6   ar
     3     1    17    1
     4     2     3   ar
     5     2    14    1
     6     3     4   ar
     7     3    11   ar
     8     4     5   ar
     9     4     8   ar
    10     5     6   ar
    11     6     7    2
    12     8     9   ar
    13     9    10   ar
    14    10    11   ar
    15    10    12    1
    16    12    13    1
    17    14    15    1
    18    15    16    1
    19    15    18    1
    20    15    19    1
    21    16    17    2
