@<TRIPOS>MOLECULE
26703_ChemDiv_1481-0020
 28 32 0 0 0
SMALL
GASTEIGER
Energy = 0

@<TRIPOS>ATOM
      1 C           1.8250    2.0460    0.0000 C.ar    1  LIG1        0.0664
      2 C           1.8250    1.0420    0.0000 C.ar    1  LIG1        0.0783
      3 C           0.9540    0.5420    0.0000 C.ar    1  LIG1        0.0064
      4 C           0.1080    1.0420    0.0000 C.ar    1  LIG1        0.0065
      5 C           0.1080    2.0460    0.0000 C.ar    1  LIG1        0.0420
      6 C           0.9540    2.5460    0.0000 C.ar    1  LIG1        0.1954
      7 O           0.9540    3.5380    0.0000 O.3     1  LIG1       -0.2868
      8 C          -0.7630    2.5460    0.0000 C.ar    1  LIG1        0.0432
      9 C          -1.6250    2.0460    0.0000 C.ar    1  LIG1        0.1725
     10 C          -1.6250    1.0420    0.0000 C.ar    1  LIG1        0.1724
     11 C          -0.7630    0.5420    0.0000 C.ar    1  LIG1        0.0401
     12 O          -2.4960    0.5420    0.0000 O.3     1  LIG1       -0.4684
     13 C          -3.3630    1.0420    0.0000 C.3     1  LIG1        0.2526
     14 O          -2.4960    2.5460    0.0000 O.3     1  LIG1       -0.4684
     15 C          -3.3630    2.0460    0.0000 C.3     1  LIG1        0.2526
     16 C           0.9540   -0.4420    0.0000 C.ar    1  LIG1        0.0034
     17 C           1.8460   -0.9540    0.0000 C.ar    1  LIG1        0.0402
     18 C           1.8250   -1.9500    0.0000 C.ar    1  LIG1        0.1764
     19 C           0.9420   -2.4630    0.0000 C.ar    1  LIG1        0.1764
     20 O           1.1460   -3.4330    0.0000 O.3     1  LIG1       -0.4346
     21 C           2.1830   -3.5330    0.0000 C.3     1  LIG1        0.4294
     22 O           2.5420   -2.6130    0.0000 O.3     1  LIG1       -0.4346
     23 C           0.0880   -1.9580    0.0000 C.ar    1  LIG1        0.0402
     24 C           0.0880   -0.9420    0.0000 C.ar    1  LIG1        0.0033
     25 C           2.7960    0.7460    0.0000 C.2     1  LIG1        0.3414
     26 O           3.3580    1.5420    0.0000 O.3     1  LIG1       -0.4403
     27 C           2.7960    2.3420    0.0000 C.3     1  LIG1        0.2387
     28 O           3.1420   -0.1750    0.0000 O.2     1  LIG1       -0.2449
@<TRIPOS>BOND
     1     1     2   ar
     2     1     6   ar
     3     1    27    1
     4     2     3   ar
     5     2    25    1
     6     3     4   ar
     7     3    16    1
     8     4     5   ar
     9     4    11   ar
    10     5     6   ar
    11     5     8   ar
    12     6     7    1
    13     8     9   ar
    14     9    10   ar
    15     9    14    1
    16    10    11   ar
    17    10    12    1
    18    12    13    1
    19    14    15    1
    20    16    17   ar
    21    16    24   ar
    22    17    18   ar
    23    18    19   ar
    24    18    22    1
    25    19    20    1
    26    19    23   ar
    27    20    21    1
    28    21    22    1
    29    23    24   ar
    30    25    26    1
    31    25    28    2
    32    26    27    1
