@<TRIPOS>MOLECULE
26707_ChemDiv_8015-4269
 20 22 0 0 0
SMALL
GASTEIGER
Energy = 0

@<TRIPOS>ATOM
      1 C           0.1670    0.5710    0.0000 C.ar    1  LIG1        0.0950
      2 S           1.1420    0.5710    0.0000 S.2     1  LIG1       -0.0815
      3 C           1.6250    1.4080    0.0000 C.ar    1  LIG1        0.0304
      4 C           1.1420    2.2460    0.0000 C.ar    1  LIG1        0.0172
      5 C          -0.3130    1.4080    0.0000 C.ar    1  LIG1        0.0685
      6 CL         -1.2830    1.4080    0.0000 Cl      1  LIG1       -0.0816
      7 C           1.6250    3.0830    0.0000 C.ar    1  LIG1        0.0014
      8 C           2.5920    3.0830    0.0000 C.ar    1  LIG1        0.0001
      9 C           3.0790    2.2460    0.0000 C.ar    1  LIG1        0.0005
     10 C           2.5920    1.4080    0.0000 C.ar    1  LIG1        0.0065
     11 C          -0.3130   -0.2670    0.0000 C.2     1  LIG1        0.2719
     12 N          -1.2830   -0.2670    0.0000 N.am    1  LIG1       -0.1966
     13 C          -1.7710   -1.1040    0.0000 C.3     1  LIG1        0.1428
     14 C          -1.4630   -2.0250    0.0000 C.3     1  LIG1        0.1820
     15 S          -2.2460   -2.5920    0.0000 S.O2    1  LIG1        0.0117
     16 C          -3.0330   -2.0250    0.0000 C.2     1  LIG1        0.1199
     17 C          -2.7250   -1.1040    0.0000 C.2     1  LIG1        0.0165
     18 O          -1.4080   -3.0790    0.0000 O.2     1  LIG1       -0.1685
     19 O          -3.0830   -3.0790    0.0000 O.2     1  LIG1       -0.1685
     20 O           0.1670   -1.1040    0.0000 O.2     1  LIG1       -0.2678
@<TRIPOS>BOND
     1     1     2   ar
     2     1     5   ar
     3     1    11    1
     4     2     3   ar
     5     3     4   ar
     6     3    10   ar
     7     4     5   ar
     8     4     7   ar
     9     5     6    1
    10     7     8   ar
    11     8     9   ar
    12     9    10   ar
    13    11    12   am
    14    11    20    2
    15    12    13    1
    16    13    14    1
    17    13    17    1
    18    14    15    1
    19    15    16    1
    20    15    18    2
    21    15    19    2
    22    16    17    2
