@<TRIPOS>MOLECULE
26701_ChemDiv_1481-0015
 24 25 0 0 0
SMALL
GASTEIGER
Energy = 0

@<TRIPOS>ATOM
      1 C          -1.2830   -0.7000    0.0000 C.ar    1  LIG1        0.0994
      2 C          -2.1460   -0.2040    0.0000 C.ar    1  LIG1        0.1452
      3 C          -3.0250   -0.7000    0.0000 C.ar    1  LIG1        0.0519
      4 C          -3.0250   -1.7040    0.0000 C.ar    1  LIG1        0.0874
      5 N          -2.1460   -2.1960    0.0000 N.ar    1  LIG1       -0.2077
      6 C          -1.2830   -1.7040    0.0000 C.ar    1  LIG1        0.2823
      7 O          -0.4290   -2.1960    0.0000 O.2     1  LIG1       -0.2651
      8 C          -3.9170   -2.1960    0.0000 C.ar    1  LIG1        0.0193
      9 C          -4.8040   -1.7040    0.0000 C.ar    1  LIG1        0.0015
     10 C          -4.8040   -0.7000    0.0000 C.ar    1  LIG1        0.0002
     11 C          -3.9170   -0.2040    0.0000 C.ar    1  LIG1        0.0045
     12 O          -2.1460    0.7830    0.0000 O.3     1  LIG1       -0.4705
     13 C          -1.2540    1.2630    0.0000 C.3     1  LIG1        0.2312
     14 C          -0.3960    0.7460    0.0000 C.2     1  LIG1        0.0122
     15 C           0.4630    1.2000    0.0000 C.2     1  LIG1       -0.0445
     16 C           1.3330    0.7000    0.0000 C.3     1  LIG1        0.0245
     17 C           2.1920    1.1630    0.0000 C.3     1  LIG1        0.0398
     18 C           3.0630    0.6380    0.0000 C.3     1  LIG1        0.1800
     19 C           3.9210    1.1130    0.0000 C.3     1  LIG1        0.1546
     20 O           4.4000    0.2420    0.0000 O.3     1  LIG1       -0.2231
     21 C           4.8000    1.5880    0.0000 C.3     1  LIG1        0.0356
     22 C           3.4580    1.9830    0.0000 C.3     1  LIG1        0.0356
     23 O           3.0290   -0.3500    0.0000 O.3     1  LIG1       -0.2205
     24 C           0.4960    2.2000    0.0000 C.3     1  LIG1        0.0261
@<TRIPOS>BOND
     1     1     2   ar
     2     1     6   ar
     3     2     3   ar
     4     2    12    1
     5     3     4   ar
     6     3    11   ar
     7     4     5   ar
     8     4     8   ar
     9     5     6   ar
    10     6     7    2
    11     8     9   ar
    12     9    10   ar
    13    10    11   ar
    14    12    13    1
    15    13    14    1
    16    14    15    2
    17    15    16    1
    18    15    24    1
    19    16    17    1
    20    17    18    1
    21    18    19    1
    22    18    23    1
    23    19    20    1
    24    19    21    1
    25    19    22    1
