@<TRIPOS>MOLECULE
26709_ChemDiv_8016-0710
 30 33 0 0 0
SMALL
GASTEIGER
Energy = 0

@<TRIPOS>ATOM
      1 C          -0.6330    1.7460    0.0000 C.ar    1  LIG1        0.0954
      2 S          -0.7380    0.7580    0.0000 S.2     1  LIG1       -0.0815
      3 C          -1.7130    0.5460    0.0000 C.ar    1  LIG1        0.0304
      4 C          -2.2080    1.4080    0.0000 C.ar    1  LIG1        0.0172
      5 C          -1.5460    2.1580    0.0000 C.ar    1  LIG1        0.0686
      6 CL         -1.7500    3.1330    0.0000 Cl      1  LIG1       -0.0816
      7 C          -3.2080    1.4080    0.0000 C.ar    1  LIG1        0.0014
      8 C          -3.7080    0.5460    0.0000 C.ar    1  LIG1        0.0001
      9 C          -3.2080   -0.3210    0.0000 C.ar    1  LIG1        0.0005
     10 C          -2.2080   -0.3210    0.0000 C.ar    1  LIG1        0.0065
     11 C           0.2290    2.2460    0.0000 C.2     1  LIG1        0.2759
     12 N           1.1000    1.7460    0.0000 N.am    1  LIG1       -0.1737
     13 C           1.9670    2.2460    0.0000 C.ar    1  LIG1        0.0869
     14 C           2.8290    1.7460    0.0000 C.ar    1  LIG1        0.0635
     15 N           2.8290    0.7460    0.0000 N.pl3   1  LIG1       -0.3030
     16 C           3.6920    0.2460    0.0000 C.3     1  LIG1        0.1124
     17 C           3.6920   -0.7580    0.0000 C.3     1  LIG1        0.1148
     18 N           2.8290   -1.2540    0.0000 N.am    1  LIG1       -0.2760
     19 C           2.8290   -2.2540    0.0000 C.2     1  LIG1        0.2252
     20 O           3.6920   -2.7540    0.0000 O.2     1  LIG1       -0.2749
     21 C           1.9630   -2.7540    0.0000 C.3     1  LIG1        0.0767
     22 C           1.0920   -2.2540    0.0000 C.3     1  LIG1        0.0096
     23 C           1.9540   -3.7540    0.0000 C.3     1  LIG1        0.0096
     24 C           1.9630   -0.7540    0.0000 C.3     1  LIG1        0.1148
     25 C           1.9670    0.2460    0.0000 C.3     1  LIG1        0.1124
     26 C           3.7040    2.2460    0.0000 C.ar    1  LIG1        0.0158
     27 C           3.7040    3.2500    0.0000 C.ar    1  LIG1        0.0014
     28 C           2.8290    3.7580    0.0000 C.ar    1  LIG1        0.0014
     29 C           1.9670    3.2500    0.0000 C.ar    1  LIG1        0.0179
     30 O           0.2290    3.2460    0.0000 O.2     1  LIG1       -0.2674
@<TRIPOS>BOND
     1     1     2   ar
     2     1     5   ar
     3     1    11    1
     4     2     3   ar
     5     3     4   ar
     6     3    10   ar
     7     4     5   ar
     8     4     7   ar
     9     5     6    1
    10     7     8   ar
    11     8     9   ar
    12     9    10   ar
    13    11    12   am
    14    11    30    2
    15    12    13    1
    16    13    14   ar
    17    13    29   ar
    18    14    15    1
    19    14    26   ar
    20    15    16    1
    21    15    25    1
    22    16    17    1
    23    17    18    1
    24    18    19   am
    25    18    24    1
    26    19    20    2
    27    19    21    1
    28    21    22    1
    29    21    23    1
    30    24    25    1
    31    26    27   ar
    32    27    28   ar
    33    28    29   ar
