@<TRIPOS>MOLECULE
26715_ChemDiv_8017-3997
 25 28 0 0 0
SMALL
GASTEIGER
Energy = 0

@<TRIPOS>ATOM
      1 C          -1.8960   -0.3790    0.0000 C.ar    1  LIG1        0.0954
      2 S          -2.4830   -1.2000    0.0000 S.2     1  LIG1       -0.0815
      3 C          -3.4420   -0.8920    0.0000 C.ar    1  LIG1        0.0304
      4 C          -3.4420    0.1130    0.0000 C.ar    1  LIG1        0.0172
      5 C          -2.4920    0.4330    0.0000 C.ar    1  LIG1        0.0686
      6 CL         -2.2380    1.3960    0.0000 Cl      1  LIG1       -0.0816
      7 C          -4.3130    0.6080    0.0000 C.ar    1  LIG1        0.0014
      8 C          -5.1670    0.1080    0.0000 C.ar    1  LIG1        0.0001
      9 C          -5.1710   -0.8920    0.0000 C.ar    1  LIG1        0.0005
     10 C          -4.3080   -1.3920    0.0000 C.ar    1  LIG1        0.0065
     11 C          -0.8960   -0.3750    0.0000 C.2     1  LIG1        0.2758
     12 N          -0.3960    0.4960    0.0000 N.am    1  LIG1       -0.1750
     13 C           0.5920    0.4960    0.0000 C.ar    1  LIG1        0.0738
     14 C           1.0960   -0.3670    0.0000 C.ar    1  LIG1        0.0179
     15 C           2.0920   -0.3670    0.0000 C.ar    1  LIG1        0.0162
     16 C           2.5880    0.5080    0.0000 C.ar    1  LIG1        0.0539
     17 N           3.5880    0.5210    0.0000 N.am    1  LIG1       -0.2586
     18 C           4.0920   -0.3420    0.0000 C.2     1  LIG1        0.2294
     19 O           3.6920   -1.2630    0.0000 O.2     1  LIG1       -0.2745
     20 C           5.0670   -0.1290    0.0000 C.3     1  LIG1        0.0874
     21 C           5.1670    0.8710    0.0000 C.3     1  LIG1        0.0315
     22 C           4.2540    1.2710    0.0000 C.3     1  LIG1        0.0987
     23 C           2.0790    1.3630    0.0000 C.ar    1  LIG1        0.0162
     24 C           1.0960    1.3580    0.0000 C.ar    1  LIG1        0.0179
     25 O          -0.3920   -1.2380    0.0000 O.2     1  LIG1       -0.2674
@<TRIPOS>BOND
     1     1     2   ar
     2     1     5   ar
     3     1    11    1
     4     2     3   ar
     5     3     4   ar
     6     3    10   ar
     7     4     5   ar
     8     4     7   ar
     9     5     6    1
    10     7     8   ar
    11     8     9   ar
    12     9    10   ar
    13    11    12   am
    14    11    25    2
    15    12    13    1
    16    13    14   ar
    17    13    24   ar
    18    14    15   ar
    19    15    16   ar
    20    16    17    1
    21    16    23   ar
    22    17    18   am
    23    17    22    1
    24    18    19    2
    25    18    20    1
    26    20    21    1
    27    21    22    1
    28    23    24   ar
