@<TRIPOS>MOLECULE
26717_ChemDiv_8017-3998
 25 28 0 0 0
SMALL
GASTEIGER
Energy = 0

@<TRIPOS>ATOM
      1 C          -1.3460   -1.6670    0.0000 C.ar    1  LIG1        0.0954
      2 S          -1.9330   -2.4790    0.0000 S.2     1  LIG1       -0.0815
      3 C          -2.8880   -2.1790    0.0000 C.ar    1  LIG1        0.0304
      4 C          -2.8960   -1.1750    0.0000 C.ar    1  LIG1        0.0172
      5 C          -1.9460   -0.8540    0.0000 C.ar    1  LIG1        0.0686
      6 CL         -1.6880    0.1130    0.0000 Cl      1  LIG1       -0.0816
      7 C          -3.7630   -0.6790    0.0000 C.ar    1  LIG1        0.0014
      8 C          -4.6210   -1.1790    0.0000 C.ar    1  LIG1        0.0001
      9 C          -4.6250   -2.1790    0.0000 C.ar    1  LIG1        0.0005
     10 C          -3.7580   -2.6790    0.0000 C.ar    1  LIG1        0.0065
     11 C          -0.3460   -1.6630    0.0000 C.2     1  LIG1        0.2758
     12 N           0.1540   -0.7920    0.0000 N.am    1  LIG1       -0.1750
     13 C           1.1540   -0.7920    0.0000 C.ar    1  LIG1        0.0735
     14 C           1.6460    0.0710    0.0000 C.ar    1  LIG1        0.0172
     15 C           2.6420    0.0830    0.0000 C.ar    1  LIG1        0.0349
     16 C           3.1330    0.9460    0.0000 C.3     1  LIG1        0.2600
     17 O           4.1330    0.9580    0.0000 O.3     1  LIG1       -0.3270
     18 C           4.6210    1.8210    0.0000 C.3     1  LIG1        0.1477
     19 C           4.1170    2.6830    0.0000 C.3     1  LIG1        0.0643
     20 C           3.1080    2.6710    0.0000 C.3     1  LIG1        0.1477
     21 O           2.6210    1.8000    0.0000 O.3     1  LIG1       -0.3270
     22 C           3.1460   -0.7790    0.0000 C.ar    1  LIG1        0.0006
     23 C           2.6540   -1.6500    0.0000 C.ar    1  LIG1        0.0012
     24 C           1.6540   -1.6540    0.0000 C.ar    1  LIG1        0.0166
     25 O           0.1630   -2.5250    0.0000 O.2     1  LIG1       -0.2674
@<TRIPOS>BOND
     1     1     2   ar
     2     1     5   ar
     3     1    11    1
     4     2     3   ar
     5     3     4   ar
     6     3    10   ar
     7     4     5   ar
     8     4     7   ar
     9     5     6    1
    10     7     8   ar
    11     8     9   ar
    12     9    10   ar
    13    11    12   am
    14    11    25    2
    15    12    13    1
    16    13    14   ar
    17    13    24   ar
    18    14    15   ar
    19    15    16    1
    20    15    22   ar
    21    16    17    1
    22    16    21    1
    23    17    18    1
    24    18    19    1
    25    19    20    1
    26    20    21    1
    27    22    23   ar
    28    23    24   ar
