@<TRIPOS>MOLECULE
26723_ChemDiv_3886-1240
 13 14 0 0 0
SMALL
GASTEIGER
Energy = 0

@<TRIPOS>ATOM
      1 N          -0.0380   -0.9880    0.0000 N.4     1  LIG1        0.2975
      2 C          -0.0380    0.0040    0.0000 C.3     1  LIG1        0.0609
      3 C           0.8830    0.5000    0.0000 C.3     1  LIG1        0.0827
      4 C           0.8830    1.4920    0.0000 C.3     1  LIG1        0.1877
      5 O          -0.0380    1.9830    0.0000 O.3     1  LIG1       -0.2202
      6 C           1.7330    0.0040    0.0000 C.3     1  LIG1        0.0144
      7 C           1.7330   -0.9880    0.0000 C.3     1  LIG1        0.0613
      8 C           0.8830   -1.4830    0.0000 C.3     1  LIG1        0.1084
      9 C          -0.8880    0.5000    0.0000 C.3     1  LIG1        0.0554
     10 C          -1.7380    0.0040    0.0000 C.3     1  LIG1        0.0120
     11 C          -1.7380   -0.9880    0.0000 C.3     1  LIG1        0.0612
     12 C          -0.8880   -1.4830    0.0000 C.3     1  LIG1        0.1084
     13 C          -0.0380   -1.9790    0.0000 C.3     1  LIG1        0.1702
@<TRIPOS>BOND
     1     1     2    1
     2     1     8    1
     3     1    12    1
     4     1    13    1
     5     2     3    1
     6     2     9    1
     7     3     4    1
     8     3     6    1
     9     4     5    1
    10     6     7    1
    11     7     8    1
    12     9    10    1
    13    10    11    1
    14    11    12    1
