@<TRIPOS>MOLECULE
26727_ChemDiv_7599-1960
 15 16 0 0 0
SMALL
GASTEIGER
Energy = 0

@<TRIPOS>ATOM
      1 N           0.0000   -0.2420    0.0000 N.4     1  LIG1        0.2949
      2 C           0.0000    0.7540    0.0000 C.3     1  LIG1        0.0608
      3 C           0.8630    1.2460    0.0000 C.3     1  LIG1        0.0827
      4 C           0.8580    2.2460    0.0000 C.3     1  LIG1        0.1877
      5 O           1.7250    2.7540    0.0000 O.3     1  LIG1       -0.2202
      6 C           1.7250    0.7540    0.0000 C.3     1  LIG1        0.0144
      7 C           1.7250   -0.2420    0.0000 C.3     1  LIG1        0.0613
      8 C           0.8630   -0.7500    0.0000 C.3     1  LIG1        0.1083
      9 C          -0.8750    1.2460    0.0000 C.3     1  LIG1        0.0554
     10 C          -1.7290    0.7540    0.0000 C.3     1  LIG1        0.0120
     11 C          -1.7290   -0.2420    0.0000 C.3     1  LIG1        0.0612
     12 C          -0.8750   -0.7500    0.0000 C.3     1  LIG1        0.1083
     13 C           0.0000   -1.2500    0.0000 C.3     1  LIG1        0.1444
     14 C          -0.8750   -1.7420    0.0000 C.3     1  LIG1        0.2425
     15 O          -0.8880   -2.7500    0.0000 O.3     1  LIG1       -0.2138
@<TRIPOS>BOND
     1     1     2    1
     2     1     8    1
     3     1    12    1
     4     1    13    1
     5     2     3    1
     6     2     9    1
     7     3     4    1
     8     3     6    1
     9     4     5    1
    10     6     7    1
    11     7     8    1
    12     9    10    1
    13    10    11    1
    14    11    12    1
    15    13    14    1
    16    14    15    1
