@<TRIPOS>MOLECULE
26720_ChemDiv_3529-0057
 24 27 0 0 0
SMALL
GASTEIGER
Energy = 0

@<TRIPOS>ATOM
      1 C           0.0960   -0.0500    0.0000 C.3     1  LIG1        0.1917
      2 C           0.9710   -0.6000    0.0000 C.3     1  LIG1        0.0144
      3 C           1.8380   -0.0750    0.0000 C.3     1  LIG1       -0.0125
      4 C           1.8380    0.9460    0.0000 C.3     1  LIG1        0.0550
      5 C           0.9710    1.4500    0.0000 C.3     1  LIG1        0.0740
      6 C           0.0960    0.9460    0.0000 C.2     1  LIG1        0.1819
      7 O          -0.7670    1.4170    0.0000 O.2     1  LIG1       -0.2932
      8 C           2.8210    1.2580    0.0000 C.2     1  LIG1        0.1500
      9 C           3.4250    0.4670    0.0000 C.3     1  LIG1        0.0642
     10 C           2.8290   -0.3830    0.0000 C.3     1  LIG1        0.0040
     11 O           3.3380    2.1290    0.0000 O.2     1  LIG1       -0.2961
     12 C           1.8540    1.9170    0.0000 C.3     1  LIG1        0.0075
     13 C           0.9710   -1.6080    0.0000 C.3     1  LIG1        0.0035
     14 C           0.0960   -2.1250    0.0000 C.3     1  LIG1        0.0260
     15 C          -0.8000   -1.6080    0.0000 C.ar    1  LIG1       -0.0203
     16 C          -0.8000   -0.6000    0.0000 C.ar    1  LIG1        0.0076
     17 C          -1.6920   -0.0500    0.0000 C.ar    1  LIG1        0.0014
     18 C          -2.5960   -0.6000    0.0000 C.ar    1  LIG1        0.0418
     19 C          -2.5960   -1.6080    0.0000 C.ar    1  LIG1        0.1954
     20 C          -1.6920   -2.1250    0.0000 C.ar    1  LIG1        0.0375
     21 O          -3.4290   -2.0960    0.0000 O.3     1  LIG1       -0.2866
     22 O           0.1170   -0.8500    0.0000 O.3     1  LIG1       -0.2140
     23 H           0.9710    0.2960    0.0000 H       1  LIG1        0.0346
     24 H           1.8380   -0.9540    0.0000 H       1  LIG1        0.0321
@<TRIPOS>BOND
     1     1     2    1
     2     1     6    1
     3     1    16    1
     4     1    22    1
     5     2     3    1
     6     2    13    1
     7     2    23    1
     8     3     4    1
     9     3    10    1
    10     3    24    1
    11     4     5    1
    12     4     8    1
    13     4    12    1
    14     5     6    1
    15     6     7    2
    16     8     9    1
    17     8    11    2
    18     9    10    1
    19    13    14    1
    20    14    15    1
    21    15    16   ar
    22    15    20   ar
    23    16    17   ar
    24    17    18   ar
    25    18    19   ar
    26    19    20   ar
    27    19    21    1
