@<TRIPOS>MOLECULE
26729_ChemDiv_7599-1966
 14 15 0 0 0
SMALL
GASTEIGER
Energy = 0

@<TRIPOS>ATOM
      1 N           0.0000   -0.7540    0.0000 N.4     1  LIG1        0.2929
      2 C           0.0000    0.2500    0.0000 C.3     1  LIG1        0.0607
      3 C           0.8710    0.7500    0.0000 C.3     1  LIG1        0.0827
      4 C           0.8630    1.7630    0.0000 C.3     1  LIG1        0.1877
      5 O           1.7250    2.2540    0.0000 O.3     1  LIG1       -0.2202
      6 C           1.7250    0.2500    0.0000 C.3     1  LIG1        0.0144
      7 C           1.7250   -0.7540    0.0000 C.3     1  LIG1        0.0613
      8 C           0.8710   -1.2540    0.0000 C.3     1  LIG1        0.1082
      9 C          -0.8670    0.7500    0.0000 C.3     1  LIG1        0.0554
     10 C          -1.7290    0.2500    0.0000 C.3     1  LIG1        0.0120
     11 C          -1.7290   -0.7540    0.0000 C.3     1  LIG1        0.0612
     12 C          -0.8670   -1.2540    0.0000 C.3     1  LIG1        0.1082
     13 C           0.0000   -1.7630    0.0000 C.3     1  LIG1        0.1084
     14 C          -0.8670   -2.2500    0.0000 C.3     1  LIG1        0.0671
@<TRIPOS>BOND
     1     1     2    1
     2     1     8    1
     3     1    12    1
     4     1    13    1
     5     2     3    1
     6     2     9    1
     7     3     4    1
     8     3     6    1
     9     4     5    1
    10     6     7    1
    11     7     8    1
    12     9    10    1
    13    10    11    1
    14    11    12    1
    15    13    14    1
