@<TRIPOS>MOLECULE
26725_ChemDiv_4817-2418
 16 17 0 0 0
SMALL
GASTEIGER
Energy = 0

@<TRIPOS>ATOM
      1 N          -0.8460   -2.7460    0.0000 N.4     1  LIG1        0.3730
      2 C          -0.8460   -1.7540    0.0000 C.3     1  LIG1        0.0891
      3 C           0.0170   -1.2460    0.0000 C.3     1  LIG1        0.0809
      4 C           0.0170   -0.2460    0.0000 C.3     1  LIG1        0.1478
      5 O           0.8750    0.2460    0.0000 O.3     1  LIG1       -0.3533
      6 C           0.8750    1.2500    0.0000 C.3     1  LIG1        0.1490
      7 C           1.7250    1.7500    0.0000 C.3     1  LIG1        0.1126
      8 C           1.7130    2.7500    0.0000 C.3     1  LIG1        0.3179
      9 N           2.5920    3.2500    0.0000 N.4     1  LIG1        0.5973
     10 C           0.8790   -1.7540    0.0000 C.3     1  LIG1        0.0144
     11 C           0.8790   -2.7460    0.0000 C.3     1  LIG1        0.0630
     12 C           0.0170   -3.2460    0.0000 C.3     1  LIG1        0.1383
     13 C          -1.7130   -1.2460    0.0000 C.3     1  LIG1        0.0570
     14 C          -2.5960   -1.7540    0.0000 C.3     1  LIG1        0.0120
     15 C          -2.5960   -2.7460    0.0000 C.3     1  LIG1        0.0629
     16 C          -1.7130   -3.2460    0.0000 C.3     1  LIG1        0.1383
@<TRIPOS>BOND
     1     1     2    1
     2     1    12    1
     3     1    16    1
     4     2     3    1
     5     2    13    1
     6     3     4    1
     7     3    10    1
     8     4     5    1
     9     5     6    1
    10     6     7    1
    11     7     8    1
    12     8     9    1
    13    10    11    1
    14    11    12    1
    15    13    14    1
    16    14    15    1
    17    15    16    1
