@<TRIPOS>MOLECULE
26738_ChemDiv_3529-0058
 27 30 0 0 0
SMALL
GASTEIGER
Energy = 0

@<TRIPOS>ATOM
      1 C           0.9540   -0.0500    0.0000 C.3     1  LIG1        0.1917
      2 C           1.8290   -0.6000    0.0000 C.3     1  LIG1        0.0144
      3 C           2.7000   -0.0790    0.0000 C.3     1  LIG1       -0.0125
      4 C           2.7000    0.9630    0.0000 C.3     1  LIG1        0.0550
      5 C           1.8290    1.4670    0.0000 C.3     1  LIG1        0.0740
      6 C           0.9540    0.9630    0.0000 C.2     1  LIG1        0.1819
      7 O           0.0710    1.4290    0.0000 O.2     1  LIG1       -0.2932
      8 C           3.7000    1.2830    0.0000 C.2     1  LIG1        0.1500
      9 C           4.3040    0.4790    0.0000 C.3     1  LIG1        0.0642
     10 C           3.7040   -0.3750    0.0000 C.3     1  LIG1        0.0040
     11 O           4.2210    2.1420    0.0000 O.2     1  LIG1       -0.2961
     12 C           2.7250    1.9420    0.0000 C.3     1  LIG1        0.0075
     13 C           1.8290   -1.6170    0.0000 C.3     1  LIG1        0.0035
     14 C           0.9540   -2.1380    0.0000 C.3     1  LIG1        0.0260
     15 C           0.0460   -1.6170    0.0000 C.ar    1  LIG1       -0.0205
     16 C           0.0460   -0.6000    0.0000 C.ar    1  LIG1        0.0076
     17 C          -0.8540   -0.0500    0.0000 C.ar    1  LIG1        0.0013
     18 C          -1.7630   -0.6000    0.0000 C.ar    1  LIG1        0.0373
     19 C          -1.7630   -1.6170    0.0000 C.ar    1  LIG1        0.1481
     20 C          -0.8540   -2.1380    0.0000 C.ar    1  LIG1        0.0331
     21 O          -2.6170   -2.1080    0.0000 O.3     1  LIG1       -0.4241
     22 C          -3.4790   -1.5960    0.0000 C.2     1  LIG1        0.3220
     23 O          -3.4790   -0.7420    0.0000 O.2     1  LIG1       -0.2497
     24 C          -4.3080   -2.0670    0.0000 C.3     1  LIG1        0.1216
     25 O           0.9630   -0.8500    0.0000 O.3     1  LIG1       -0.2140
     26 H           1.8290    0.3080    0.0000 H       1  LIG1        0.0346
     27 H           2.7000   -0.9580    0.0000 H       1  LIG1        0.0321
@<TRIPOS>BOND
     1     1     2    1
     2     1     6    1
     3     1    16    1
     4     1    25    1
     5     2     3    1
     6     2    13    1
     7     2    26    1
     8     3     4    1
     9     3    10    1
    10     3    27    1
    11     4     5    1
    12     4     8    1
    13     4    12    1
    14     5     6    1
    15     6     7    2
    16     8     9    1
    17     8    11    2
    18     9    10    1
    19    13    14    1
    20    14    15    1
    21    15    16   ar
    22    15    20   ar
    23    16    17   ar
    24    17    18   ar
    25    18    19   ar
    26    19    20   ar
    27    19    21    1
    28    21    22    1
    29    22    23    2
    30    22    24    1
