@<TRIPOS>MOLECULE
26746_ChemDiv_7567-0411
 22 24 0 0 0
SMALL
GASTEIGER
Energy = 0

@<TRIPOS>ATOM
      1 C          -0.8670    0.9880    0.0000 C.2     1  LIG1        0.2324
      2 C          -1.7290    0.4880    0.0000 C.3     1  LIG1        0.1574
      3 C          -2.5960    0.9880    0.0000 C.3     1  LIG1        0.2314
      4 C          -2.5960    1.9880    0.0000 C.2     1  LIG1        0.2991
      5 N          -3.4710    2.4880    0.0000 N.am    1  LIG1       -0.1938
      6 C          -4.3330    1.9880    0.0000 C.3     1  LIG1        0.1839
      7 C          -4.3330    0.9880    0.0000 C.3     1  LIG1        0.2248
      8 N          -3.4710    0.4880    0.0000 N.4     1  LIG1        0.4524
      9 O          -1.7290    2.4920    0.0000 O.2     1  LIG1       -0.2669
     10 N           0.0080    0.4960    0.0000 N.am    1  LIG1       -0.2758
     11 C           0.0080   -0.5040    0.0000 C.3     1  LIG1        0.1148
     12 C           0.8710   -0.9960    0.0000 C.3     1  LIG1        0.1123
     13 N           1.7420   -0.4960    0.0000 N.pl3   1  LIG1       -0.3041
     14 C           1.7330    0.5040    0.0000 C.3     1  LIG1        0.1123
     15 C           0.8630    1.0040    0.0000 C.3     1  LIG1        0.1148
     16 C           2.6040   -0.9960    0.0000 C.ar    1  LIG1        0.0479
     17 C           2.6040   -1.9960    0.0000 C.ar    1  LIG1        0.0145
     18 C           3.4670   -2.4880    0.0000 C.ar    1  LIG1        0.0013
     19 C           4.3290   -1.9790    0.0000 C.ar    1  LIG1        0.0001
     20 C           4.3290   -0.9790    0.0000 C.ar    1  LIG1        0.0013
     21 C           3.4670   -0.4920    0.0000 C.ar    1  LIG1        0.0145
     22 O          -0.8710    1.9960    0.0000 O.2     1  LIG1       -0.2746
@<TRIPOS>BOND
     1     1     2    1
     2     1    10   am
     3     1    22    2
     4     2     3    1
     5     3     4    1
     6     3     8    1
     7     4     5   am
     8     4     9    2
     9     5     6    1
    10     6     7    1
    11     7     8    1
    12    10    11    1
    13    10    15    1
    14    11    12    1
    15    12    13    1
    16    13    14    1
    17    13    16    1
    18    14    15    1
    19    16    17   ar
    20    16    21   ar
    21    17    18   ar
    22    18    19   ar
    23    19    20   ar
    24    20    21   ar
