@<TRIPOS>MOLECULE
26742_ChemDiv_6049-2835
 26 30 0 0 0
SMALL
GASTEIGER
Energy = 0

@<TRIPOS>ATOM
      1 N          -0.4330    0.5920    0.0000 N.am    1  LIG1       -0.2760
      2 C          -1.4460    0.5380    0.0000 C.2     1  LIG1        0.2257
      3 C          -1.9460   -0.3330    0.0000 C.3     1  LIG1        0.0853
      4 C          -2.9330   -0.3580    0.0000 C.3     1  LIG1        0.0086
      5 C          -3.0920   -1.2000    0.0000 C.3     1  LIG1        0.0005
      6 C          -3.9710   -1.4960    0.0000 C.3     1  LIG1        0.0000
      7 C          -5.1330   -1.6750    0.0000 C.3     1  LIG1        0.0000
      8 C          -4.9580   -0.5750    0.0000 C.3     1  LIG1        0.0000
      9 C          -3.8500   -0.1580    0.0000 C.3     1  LIG1        0.0005
     10 C          -5.6040    0.1880    0.0000 C.3     1  LIG1        0.0000
     11 C          -4.4420    0.0210    0.0000 C.3     1  LIG1        0.0000
     12 C          -3.5830    0.2500    0.0000 C.3     1  LIG1        0.0005
     13 C          -4.7040   -0.8500    0.0000 C.3     1  LIG1        0.0000
     14 O          -1.9710    1.4080    0.0000 O.2     1  LIG1       -0.2749
     15 C           0.1290   -0.2290    0.0000 C.3     1  LIG1        0.1148
     16 C           1.1130   -0.1750    0.0000 C.3     1  LIG1        0.1123
     17 N           1.5750    0.6880    0.0000 N.pl3   1  LIG1       -0.3041
     18 C           2.5790    0.7380    0.0000 C.ar    1  LIG1        0.0481
     19 C           3.0500    1.6290    0.0000 C.ar    1  LIG1        0.0168
     20 C           4.0420    1.6790    0.0000 C.ar    1  LIG1        0.0309
     21 C           4.6080    0.8630    0.0000 C.ar    1  LIG1        0.1402
     22 C           4.1290   -0.0210    0.0000 C.ar    1  LIG1        0.0309
     23 C           3.1330   -0.0750    0.0000 C.ar    1  LIG1        0.0168
     24 F           5.6000    0.9500    0.0000 F       1  LIG1       -0.2042
     25 C           1.0290    1.5210    0.0000 C.3     1  LIG1        0.1123
     26 C           0.0170    1.4710    0.0000 C.3     1  LIG1        0.1148
@<TRIPOS>BOND
     1     1     2   am
     2     1    15    1
     3     1    26    1
     4     2     3    1
     5     2    14    2
     6     3     4    1
     7     4     5    1
     8     4     9    1
     9     4    12    1
    10     5     6    1
    11     6     7    1
    12     6    13    1
    13     7     8    1
    14     8     9    1
    15     8    10    1
    16    10    11    1
    17    11    12    1
    18    11    13    1
    19    15    16    1
    20    16    17    1
    21    17    18    1
    22    17    25    1
    23    18    19   ar
    24    18    23   ar
    25    19    20   ar
    26    20    21   ar
    27    21    22   ar
    28    21    24    1
    29    22    23   ar
    30    25    26    1
