@<TRIPOS>MOLECULE
26744_ChemDiv_6049-2840
 26 30 0 0 0
SMALL
GASTEIGER
Energy = 0

@<TRIPOS>ATOM
      1 N           0.0630    0.5920    0.0000 N.am    1  LIG1       -0.2760
      2 C          -0.9500    0.5380    0.0000 C.2     1  LIG1        0.2257
      3 C          -1.4500   -0.3330    0.0000 C.3     1  LIG1        0.0853
      4 C          -2.4380   -0.3580    0.0000 C.3     1  LIG1        0.0086
      5 C          -3.3540   -0.1580    0.0000 C.3     1  LIG1        0.0005
      6 C          -4.4630   -0.5750    0.0000 C.3     1  LIG1        0.0000
      7 C          -5.1130    0.1880    0.0000 C.3     1  LIG1        0.0000
      8 C          -3.9500    0.0210    0.0000 C.3     1  LIG1        0.0000
      9 C          -3.0880    0.2500    0.0000 C.3     1  LIG1        0.0005
     10 C          -4.2080   -0.8500    0.0000 C.3     1  LIG1        0.0000
     11 C          -3.4750   -1.4960    0.0000 C.3     1  LIG1        0.0000
     12 C          -2.6000   -1.2000    0.0000 C.3     1  LIG1        0.0005
     13 C          -4.6420   -1.6750    0.0000 C.3     1  LIG1        0.0000
     14 O          -1.4750    1.4080    0.0000 O.2     1  LIG1       -0.2749
     15 C           0.6250   -0.2290    0.0000 C.3     1  LIG1        0.1148
     16 C           1.6130   -0.1750    0.0000 C.3     1  LIG1        0.1124
     17 N           2.0710    0.6880    0.0000 N.pl3   1  LIG1       -0.3023
     18 C           3.0750    0.7380    0.0000 C.ar    1  LIG1        0.0758
     19 C           3.6290   -0.0750    0.0000 C.ar    1  LIG1        0.1533
     20 F           3.1920   -0.9500    0.0000 F       1  LIG1       -0.2029
     21 C           4.6250   -0.0210    0.0000 C.ar    1  LIG1        0.0309
     22 C           5.1080    0.8630    0.0000 C.ar    1  LIG1        0.0024
     23 C           4.5420    1.6790    0.0000 C.ar    1  LIG1        0.0014
     24 C           3.5460    1.6290    0.0000 C.ar    1  LIG1        0.0168
     25 C           1.5290    1.5210    0.0000 C.3     1  LIG1        0.1124
     26 C           0.5130    1.4710    0.0000 C.3     1  LIG1        0.1148
@<TRIPOS>BOND
     1     1     2   am
     2     1    15    1
     3     1    26    1
     4     2     3    1
     5     2    14    2
     6     3     4    1
     7     4     5    1
     8     4     9    1
     9     4    12    1
    10     5     6    1
    11     6     7    1
    12     6    13    1
    13     7     8    1
    14     8     9    1
    15     8    10    1
    16    10    11    1
    17    11    12    1
    18    11    13    1
    19    15    16    1
    20    16    17    1
    21    17    18    1
    22    17    25    1
    23    18    19   ar
    24    18    24   ar
    25    19    20    1
    26    19    21   ar
    27    21    22   ar
    28    22    23   ar
    29    23    24   ar
    30    25    26    1
