@<TRIPOS>MOLECULE
26749_ChemDiv_1969-6034
 15 16 0 0 0
SMALL
GASTEIGER
Energy = 0

@<TRIPOS>ATOM
      1 C          -0.3500   -0.3670    0.0000 C.ar    1  LIG1        0.1872
      2 N          -0.9540    0.4250    0.0000 N.ar    1  LIG1       -0.2225
      3 C          -1.9170    0.1170    0.0000 C.ar    1  LIG1        0.0893
      4 C          -1.9170   -0.8420    0.0000 C.ar    1  LIG1        0.0498
      5 S          -0.9540   -1.1790    0.0000 S.2     1  LIG1       -0.0497
      6 C          -2.7710   -1.3460    0.0000 C.ar    1  LIG1        0.0081
      7 C          -3.6710   -0.8420    0.0000 C.ar    1  LIG1        0.0006
      8 C          -3.6710    0.1170    0.0000 C.ar    1  LIG1        0.0016
      9 C          -2.7710    0.6170    0.0000 C.ar    1  LIG1        0.0197
     10 N           0.6420   -0.3670    0.0000 N.am    1  LIG1       -0.1359
     11 C           1.1420    0.4880    0.0000 C.2     1  LIG1        0.3452
     12 O           0.6290    1.3380    0.0000 O.2     1  LIG1       -0.2488
     13 N           2.1420    0.4880    0.0000 N.am    1  LIG1       -0.1869
     14 C           2.6380    1.3500    0.0000 C.3     1  LIG1        0.1169
     15 C           3.6670    1.3500    0.0000 C.3     1  LIG1        0.0253
@<TRIPOS>BOND
     1     1     2   ar
     2     1     5   ar
     3     1    10    1
     4     2     3   ar
     5     3     4   ar
     6     3     9   ar
     7     4     5   ar
     8     4     6   ar
     9     6     7   ar
    10     7     8   ar
    11     8     9   ar
    12    10    11   am
    13    11    12    2
    14    11    13   am
    15    13    14    1
    16    14    15    1
