@<TRIPOS>MOLECULE
26740_ChemDiv_1571-0029
 24 25 0 0 0
SMALL
GASTEIGER
Energy = 0

@<TRIPOS>ATOM
      1 N           2.4880    1.7210    0.0000 N.pl3   1  LIG1       -0.2972
      2 C           3.0040    0.8630    0.0000 C.3     1  LIG1        0.1544
      3 C           2.4880   -0.0040    0.0000 C.3     1  LIG1        0.1605
      4 N           1.5040   -0.0040    0.0000 N.4     1  LIG1        0.3814
      5 C           0.9960    0.8630    0.0000 C.3     1  LIG1        0.1605
      6 C           1.5040    1.7210    0.0000 C.3     1  LIG1        0.1544
      7 C           0.9960   -0.8670    0.0000 C.3     1  LIG1        0.1626
      8 C           0.0130   -0.8670    0.0000 C.3     1  LIG1        0.1775
      9 N          -0.4960   -1.7330    0.0000 N.am    1  LIG1       -0.1990
     10 C          -1.5080   -1.7330    0.0000 C.2     1  LIG1        0.2411
     11 O          -1.9920   -0.8670    0.0000 O.2     1  LIG1       -0.2734
     12 C          -1.9920   -2.5960    0.0000 C.3     1  LIG1        0.0782
     13 C          -3.0040   -2.5960    0.0000 C.3     1  LIG1        0.0091
     14 C          -3.4920   -3.4500    0.0000 C.3     1  LIG1        0.0005
     15 C          -4.5080   -3.4500    0.0000 C.3     1  LIG1        0.0000
     16 C          -1.5080   -3.4500    0.0000 C.3     1  LIG1        0.0091
     17 C          -0.4960   -3.4500    0.0000 C.3     1  LIG1        0.0005
     18 C           0.0130   -4.3170    0.0000 C.3     1  LIG1        0.0000
     19 C           3.0040    2.5830    0.0000 C.ar    1  LIG1        0.0481
     20 C           3.9960    2.5830    0.0000 C.ar    1  LIG1        0.0145
     21 C           4.5040    3.4500    0.0000 C.ar    1  LIG1        0.0013
     22 C           3.9960    4.3170    0.0000 C.ar    1  LIG1        0.0001
     23 C           3.0040    4.3170    0.0000 C.ar    1  LIG1        0.0013
     24 C           2.4880    3.4500    0.0000 C.ar    1  LIG1        0.0145
@<TRIPOS>BOND
     1     1     2    1
     2     1     6    1
     3     1    19    1
     4     2     3    1
     5     3     4    1
     6     4     5    1
     7     4     7    1
     8     5     6    1
     9     7     8    1
    10     8     9    1
    11     9    10   am
    12    10    11    2
    13    10    12    1
    14    12    13    1
    15    12    16    1
    16    13    14    1
    17    14    15    1
    18    16    17    1
    19    17    18    1
    20    19    20   ar
    21    19    24   ar
    22    20    21   ar
    23    21    22   ar
    24    22    23   ar
    25    23    24   ar
