@<TRIPOS>MOLECULE
26750_ChemDiv_8008-9778
 26 28 0 0 0
SMALL
GASTEIGER
Energy = 0

@<TRIPOS>ATOM
      1 N           0.8460   -0.7380    0.0000 N.am    1  LIG1       -0.2726
      2 C          -0.0170   -1.2170    0.0000 C.2     1  LIG1        0.2493
      3 C          -0.8880   -0.7210    0.0000 C.2     1  LIG1        0.0579
      4 C          -1.7580   -1.2170    0.0000 C.2     1  LIG1        0.0047
      5 C          -2.6210   -0.7080    0.0000 C.ar    1  LIG1        0.0003
      6 C          -3.4920   -1.2000    0.0000 C.ar    1  LIG1        0.0031
      7 C          -4.3500   -0.6790    0.0000 C.ar    1  LIG1        0.0369
      8 C          -4.3500    0.3210    0.0000 C.ar    1  LIG1        0.1387
      9 C          -3.4790    0.8130    0.0000 C.ar    1  LIG1        0.0369
     10 C          -2.6210    0.3040    0.0000 C.ar    1  LIG1        0.0031
     11 O          -5.2000    0.8250    0.0000 O.3     1  LIG1       -0.4714
     12 C          -5.2000    1.8250    0.0000 C.3     1  LIG1        0.2525
     13 O          -0.0290   -2.2380    0.0000 O.2     1  LIG1       -0.2699
     14 C           0.8460    0.2630    0.0000 C.3     1  LIG1        0.1151
     15 C           1.7170    0.7630    0.0000 C.3     1  LIG1        0.1124
     16 N           2.5880    0.2630    0.0000 N.pl3   1  LIG1       -0.3017
     17 C           3.4540    0.7630    0.0000 C.ar    1  LIG1        0.0824
     18 C           4.3250    0.2540    0.0000 C.ar    1  LIG1        0.1519
     19 O           4.3080   -0.7500    0.0000 O.3     1  LIG1       -0.4702
     20 C           3.4380   -1.2420    0.0000 C.3     1  LIG1        0.2525
     21 C           5.1790    0.7500    0.0000 C.ar    1  LIG1        0.0382
     22 C           5.1960    1.7460    0.0000 C.ar    1  LIG1        0.0032
     23 C           4.3250    2.2420    0.0000 C.ar    1  LIG1        0.0015
     24 C           3.4540    1.7630    0.0000 C.ar    1  LIG1        0.0176
     25 C           2.5750   -0.7380    0.0000 C.3     1  LIG1        0.1124
     26 C           1.7170   -1.2290    0.0000 C.3     1  LIG1        0.1151
@<TRIPOS>BOND
     1     1     2   am
     2     1    14    1
     3     1    26    1
     4     2     3    1
     5     2    13    2
     6     3     4    2
     7     4     5    1
     8     5     6   ar
     9     5    10   ar
    10     6     7   ar
    11     7     8   ar
    12     8     9   ar
    13     8    11    1
    14     9    10   ar
    15    11    12    1
    16    14    15    1
    17    15    16    1
    18    16    17    1
    19    16    25    1
    20    17    18   ar
    21    17    24   ar
    22    18    19    1
    23    18    21   ar
    24    19    20    1
    25    21    22   ar
    26    22    23   ar
    27    23    24   ar
    28    25    26    1
