@<TRIPOS>MOLECULE
26757_ChemDiv_N085-0035
 16 17 0 0 0
SMALL
GASTEIGER
Energy = 0

@<TRIPOS>ATOM
      1 N          -0.8210   -1.0630    0.0000 N.4     1  LIG1        0.2975
      2 C          -0.8250   -0.0540    0.0000 C.3     1  LIG1        0.0620
      3 C           0.0420    0.4420    0.0000 C.3     1  LIG1        0.0935
      4 C           0.0380    1.4460    0.0000 C.3     1  LIG1        0.2140
      5 O           0.8960    1.9460    0.0000 O.3     1  LIG1       -0.4483
      6 C           1.7670    1.4460    0.0000 C.2     1  LIG1        0.3176
      7 O           2.0210    0.4880    0.0000 O.2     1  LIG1       -0.2501
      8 C           2.5540    2.0580    0.0000 C.3     1  LIG1        0.1212
      9 C           0.9040   -0.0540    0.0000 C.3     1  LIG1        0.0155
     10 C           0.9080   -1.0580    0.0000 C.3     1  LIG1        0.0614
     11 C           0.0420   -1.5630    0.0000 C.3     1  LIG1        0.1084
     12 C          -1.6920    0.4420    0.0000 C.3     1  LIG1        0.0554
     13 C          -2.5580   -0.0540    0.0000 C.3     1  LIG1        0.0120
     14 C          -2.5580   -1.0630    0.0000 C.3     1  LIG1        0.0612
     15 C          -1.6920   -1.5630    0.0000 C.3     1  LIG1        0.1084
     16 C          -0.8250   -2.0540    0.0000 C.3     1  LIG1        0.1702
@<TRIPOS>BOND
     1     1     2    1
     2     1    11    1
     3     1    15    1
     4     1    16    1
     5     2     3    1
     6     2    12    1
     7     3     4    1
     8     3     9    1
     9     4     5    1
    10     5     6    1
    11     6     7    2
    12     6     8    1
    13     9    10    1
    14    10    11    1
    15    12    13    1
    16    13    14    1
    17    14    15    1
