@<TRIPOS>MOLECULE
26759_ChemDiv_N085-0049
 19 20 0 0 0
SMALL
GASTEIGER
Energy = 0

@<TRIPOS>ATOM
      1 N          -1.2920   -1.5080    0.0000 N.4     1  LIG1        0.2975
      2 C          -1.3000   -0.5000    0.0000 C.3     1  LIG1        0.0620
      3 C          -0.4290    0.0000    0.0000 C.3     1  LIG1        0.0935
      4 C          -0.4380    1.0040    0.0000 C.3     1  LIG1        0.2140
      5 O           0.4250    1.5040    0.0000 O.3     1  LIG1       -0.4483
      6 C           1.2960    1.0040    0.0000 C.2     1  LIG1        0.3159
      7 C           2.1580    1.5040    0.0000 C.3     1  LIG1        0.0896
      8 C           2.1580    2.5000    0.0000 C.3     1  LIG1        0.0111
      9 C           3.0250    1.0080    0.0000 C.3     1  LIG1        0.0111
     10 C           1.1920    1.7580    0.0000 C.3     1  LIG1        0.0111
     11 O           1.2960    0.0040    0.0000 O.2     1  LIG1       -0.2501
     12 C           0.4330   -0.5000    0.0000 C.3     1  LIG1        0.0155
     13 C           0.4380   -1.5040    0.0000 C.3     1  LIG1        0.0614
     14 C          -0.4290   -2.0080    0.0000 C.3     1  LIG1        0.1084
     15 C          -2.1670    0.0000    0.0000 C.3     1  LIG1        0.0554
     16 C          -3.0290   -0.5000    0.0000 C.3     1  LIG1        0.0120
     17 C          -3.0290   -1.5080    0.0000 C.3     1  LIG1        0.0612
     18 C          -2.1670   -2.0080    0.0000 C.3     1  LIG1        0.1084
     19 C          -1.3040   -2.4960    0.0000 C.3     1  LIG1        0.1702
@<TRIPOS>BOND
     1     1     2    1
     2     1    14    1
     3     1    18    1
     4     1    19    1
     5     2     3    1
     6     2    15    1
     7     3     4    1
     8     3    12    1
     9     4     5    1
    10     5     6    1
    11     6     7    1
    12     6    11    2
    13     7     8    1
    14     7     9    1
    15     7    10    1
    16    12    13    1
    17    13    14    1
    18    15    16    1
    19    16    17    1
    20    17    18    1
