@<TRIPOS>MOLECULE
26752_ChemDiv_8013-2258
 26 30 0 0 0
SMALL
GASTEIGER
Energy = 0

@<TRIPOS>ATOM
      1 C           2.5790   -1.6420    0.0000 C.3     1  LIG1        0.0690
      2 C           2.5790   -0.6500    0.0000 C.2     1  LIG1        0.2248
      3 N           1.7000   -0.1580    0.0000 N.am    1  LIG1       -0.2760
      4 C           0.8290   -0.6580    0.0000 C.3     1  LIG1        0.1148
      5 C          -0.0460   -0.1710    0.0000 C.3     1  LIG1        0.1123
      6 N          -0.0460    0.8500    0.0000 N.pl3   1  LIG1       -0.3041
      7 C          -0.9210    1.3420    0.0000 C.ar    1  LIG1        0.0476
      8 C          -0.9210    2.3380    0.0000 C.ar    1  LIG1        0.0100
      9 C          -1.7830    2.8420    0.0000 C.ar    1  LIG1       -0.0246
     10 C          -2.6540    2.3380    0.0000 C.ar    1  LIG1       -0.0257
     11 C          -2.6420    1.3290    0.0000 C.ar    1  LIG1       -0.0033
     12 C          -1.7830    0.8380    0.0000 C.ar    1  LIG1        0.0142
     13 C          -3.4960    2.8290    0.0000 C.3     1  LIG1        0.0307
     14 C          -1.7920    3.8420    0.0000 C.3     1  LIG1        0.0307
     15 C           0.8290    1.3420    0.0000 C.3     1  LIG1        0.1123
     16 C           1.7000    0.8500    0.0000 C.3     1  LIG1        0.1148
     17 O           3.4420   -0.1420    0.0000 O.2     1  LIG1       -0.2749
     18 C           1.7080   -1.9460    0.0000 C.3     1  LIG1        0.0086
     19 C           1.7080   -2.9130    0.0000 C.3     1  LIG1        0.0005
     20 C           2.5790   -3.2290    0.0000 C.3     1  LIG1        0.0000
     21 C           3.4750   -3.0080    0.0000 C.3     1  LIG1        0.0005
     22 C           3.4920   -2.0080    0.0000 C.3     1  LIG1        0.0086
     23 C           2.8250   -3.8380    0.0000 C.3     1  LIG1        0.0000
     24 C           1.9170   -3.4750    0.0000 C.3     1  LIG1        0.0005
     25 C           1.9040   -2.4420    0.0000 C.3     1  LIG1        0.0086
     26 C           0.9380   -3.7500    0.0000 C.3     1  LIG1        0.0000
@<TRIPOS>BOND
     1     1     2    1
     2     1    18    1
     3     1    22    1
     4     1    25    1
     5     2     3   am
     6     2    17    2
     7     3     4    1
     8     3    16    1
     9     4     5    1
    10     5     6    1
    11     6     7    1
    12     6    15    1
    13     7     8   ar
    14     7    12   ar
    15     8     9   ar
    16     9    10   ar
    17     9    14    1
    18    10    11   ar
    19    10    13    1
    20    11    12   ar
    21    15    16    1
    22    18    19    1
    23    19    20    1
    24    19    26    1
    25    20    21    1
    26    21    22    1
    27    21    23    1
    28    23    24    1
    29    24    25    1
    30    24    26    1
