@<TRIPOS>MOLECULE
26769_ChemDiv_3560-1975
 23 27 0 0 0
SMALL
GASTEIGER
Energy = 0

@<TRIPOS>ATOM
      1 C          -0.5540    0.3790    0.0000 C.ar    1  LIG1        0.1858
      2 N          -1.1380    1.1670    0.0000 N.ar    1  LIG1       -0.2225
      3 C          -2.0920    0.8630    0.0000 C.ar    1  LIG1        0.0894
      4 C          -2.0920   -0.1380    0.0000 C.ar    1  LIG1        0.0511
      5 S          -1.1380   -0.4500    0.0000 S.2     1  LIG1       -0.0497
      6 C          -2.9380   -0.6420    0.0000 C.ar    1  LIG1        0.0261
      7 C          -3.8080   -0.1380    0.0000 C.ar    1  LIG1        0.0897
      8 N          -4.6710   -0.6290    0.0000 N.pl3   1  LIG1       -0.1280
      9 C          -3.8080    0.8630    0.0000 C.ar    1  LIG1        0.0196
     10 C          -2.9380    1.3540    0.0000 C.ar    1  LIG1        0.0211
     11 N           0.4460    0.3790    0.0000 N.am    1  LIG1       -0.1543
     12 C           0.9380   -0.4920    0.0000 C.2     1  LIG1        0.2463
     13 C           1.9290   -0.5000    0.0000 C.3     1  LIG1        0.0709
     14 C           3.0170   -0.7670    0.0000 C.3     1  LIG1        0.0087
     15 C           3.8750   -0.1960    0.0000 C.3     1  LIG1        0.0005
     16 C           3.6250    0.8000    0.0000 C.3     1  LIG1        0.0000
     17 C           2.5750    0.8830    0.0000 C.3     1  LIG1        0.0005
     18 C           1.8790    0.4080    0.0000 C.3     1  LIG1        0.0087
     19 C           3.3210    0.4290    0.0000 C.3     1  LIG1        0.0000
     20 C           3.5960   -0.6420    0.0000 C.3     1  LIG1        0.0005
     21 C           2.8040   -1.1710    0.0000 C.3     1  LIG1        0.0087
     22 C           4.6670   -0.7460    0.0000 C.3     1  LIG1        0.0000
     23 O           0.4460   -1.3500    0.0000 O.2     1  LIG1       -0.2730
@<TRIPOS>BOND
     1     1     2   ar
     2     1     5   ar
     3     1    11    1
     4     2     3   ar
     5     3     4   ar
     6     3    10   ar
     7     4     5   ar
     8     4     6   ar
     9     6     7   ar
    10     7     8    1
    11     7     9   ar
    12     9    10   ar
    13    11    12   am
    14    12    13    1
    15    12    23    2
    16    13    14    1
    17    13    18    1
    18    13    21    1
    19    14    15    1
    20    15    16    1
    21    15    22    1
    22    16    17    1
    23    17    18    1
    24    17    19    1
    25    19    20    1
    26    20    21    1
    27    20    22    1
