@<TRIPOS>MOLECULE
26767_ChemDiv_1488-1883
 26 29 0 0 0
SMALL
GASTEIGER
Energy = 0

@<TRIPOS>ATOM
      1 C           0.1630    0.7500    0.0000 C.ar    1  LIG1        0.1261
      2 N           1.0790    1.1710    0.0000 N.am    1  LIG1       -0.2443
      3 C           1.9710    0.7080    0.0000 C.3     1  LIG1        0.1367
      4 S           2.6580    1.4170    0.0000 S.3     1  LIG1       -0.1102
      5 C           2.2420    2.3080    0.0000 C.3     1  LIG1        0.1445
      6 C           1.2380    2.1580    0.0000 C.2     1  LIG1        0.2411
      7 O           0.5210    2.8670    0.0000 O.2     1  LIG1       -0.2736
      8 C           2.1540   -0.2790    0.0000 C.ar    1  LIG1        0.1451
      9 O           1.5420   -1.0580    0.0000 O.2     1  LIG1       -0.4525
     10 C           2.1290   -1.8830    0.0000 C.ar    1  LIG1        0.1792
     11 C           3.0630   -1.5960    0.0000 C.ar    1  LIG1        0.0435
     12 C           3.0880   -0.6130    0.0000 C.ar    1  LIG1        0.0384
     13 C          -0.1000   -0.2080    0.0000 C.ar    1  LIG1        0.2937
     14 N          -1.0830   -0.2790    0.0000 N.ar    1  LIG1       -0.2134
     15 N          -1.4420    0.6630    0.0000 N.ar    1  LIG1       -0.2646
     16 C          -0.6580    1.2830    0.0000 C.ar    1  LIG1        0.0730
     17 C          -0.6580    2.2960    0.0000 C.3     1  LIG1        0.0532
     18 C          -2.4210    0.9290    0.0000 C.3     1  LIG1        0.1518
     19 C          -1.5790   -1.1210    0.0000 C.ar    1  LIG1        0.0841
     20 C          -2.5830   -1.1210    0.0000 C.ar    1  LIG1        0.0192
     21 C          -3.0920   -1.9960    0.0000 C.ar    1  LIG1        0.0015
     22 C          -2.6040   -2.8630    0.0000 C.ar    1  LIG1        0.0001
     23 C          -1.6000   -2.8630    0.0000 C.ar    1  LIG1        0.0015
     24 C          -1.0830   -1.9960    0.0000 C.ar    1  LIG1        0.0192
     25 O           0.5670   -0.9920    0.0000 O.2     1  LIG1       -0.2638
     26 H           1.2080    0.0540    0.0000 H       1  LIG1        0.0703
@<TRIPOS>BOND
     1     1     2    1
     2     1    13   ar
     3     1    16   ar
     4     2     3    1
     5     2     6   am
     6     3     4    1
     7     3     8    1
     8     3    26    1
     9     4     5    1
    10     5     6    1
    11     6     7    2
    12     8     9   ar
    13     8    12   ar
    14     9    10   ar
    15    10    11   ar
    16    11    12   ar
    17    13    14   ar
    18    13    25    2
    19    14    15   ar
    20    14    19    1
    21    15    16   ar
    22    15    18    1
    23    16    17    1
    24    19    20   ar
    25    19    24   ar
    26    20    21   ar
    27    21    22   ar
    28    22    23   ar
    29    23    24   ar
