@<TRIPOS>MOLECULE
26771_ChemDiv_4347-7796
 29 33 0 0 0
SMALL
GASTEIGER
Energy = 0

@<TRIPOS>ATOM
      1 C           2.4960    0.2170    0.0000 C.ar    1  LIG1        0.1858
      2 N           2.0580    1.0920    0.0000 N.ar    1  LIG1       -0.2225
      3 C           2.7880    1.8080    0.0000 C.ar    1  LIG1        0.0893
      4 C           3.6710    1.3670    0.0000 C.ar    1  LIG1        0.0498
      5 S           3.5130    0.3670    0.0000 S.2     1  LIG1       -0.0497
      6 C           4.4920    1.9170    0.0000 C.ar    1  LIG1        0.0081
      7 C           4.4420    2.9040    0.0000 C.ar    1  LIG1        0.0006
      8 C           3.5420    3.3420    0.0000 C.ar    1  LIG1        0.0016
      9 C           2.7000    2.8040    0.0000 C.ar    1  LIG1        0.0197
     10 N           1.9960   -0.6500    0.0000 N.am    1  LIG1       -0.1529
     11 C           0.9960   -0.6790    0.0000 C.2     1  LIG1        0.2671
     12 C           0.5080   -1.5540    0.0000 C.3     1  LIG1        0.1730
     13 N          -0.4880   -1.5920    0.0000 N.am    1  LIG1       -0.1978
     14 C          -0.9750   -2.4540    0.0000 C.2     1  LIG1        0.2408
     15 C          -1.9750   -2.4500    0.0000 C.3     1  LIG1        0.0705
     16 C          -1.9750   -1.6380    0.0000 C.3     1  LIG1        0.0087
     17 C          -2.7460   -1.1670    0.0000 C.3     1  LIG1        0.0005
     18 C          -3.8000   -1.5250    0.0000 C.3     1  LIG1        0.0000
     19 C          -3.8000   -2.4500    0.0000 C.3     1  LIG1        0.0005
     20 C          -2.7460   -2.8330    0.0000 C.3     1  LIG1        0.0087
     21 C          -4.4960   -3.2830    0.0000 C.3     1  LIG1        0.0000
     22 C          -3.6000   -2.9380    0.0000 C.3     1  LIG1        0.0005
     23 C          -2.6080   -3.2830    0.0000 C.3     1  LIG1        0.0087
     24 C          -3.6000   -1.9250    0.0000 C.3     1  LIG1        0.0000
     25 O          -0.4710   -3.3380    0.0000 O.2     1  LIG1       -0.2734
     26 C           1.0250   -2.3960    0.0000 C.3     1  LIG1        0.0290
     27 C           0.5460   -3.2750    0.0000 C.3     1  LIG1        0.0023
     28 C           2.0080   -2.3500    0.0000 C.3     1  LIG1        0.0023
     29 O           0.4750    0.1580    0.0000 O.2     1  LIG1       -0.2711
@<TRIPOS>BOND
     1     1     2   ar
     2     1     5   ar
     3     1    10    1
     4     2     3   ar
     5     3     4   ar
     6     3     9   ar
     7     4     5   ar
     8     4     6   ar
     9     6     7   ar
    10     7     8   ar
    11     8     9   ar
    12    10    11   am
    13    11    12    1
    14    11    29    2
    15    12    13    1
    16    12    26    1
    17    13    14   am
    18    14    15    1
    19    14    25    2
    20    15    16    1
    21    15    20    1
    22    15    23    1
    23    16    17    1
    24    17    18    1
    25    17    24    1
    26    18    19    1
    27    19    20    1
    28    19    21    1
    29    21    22    1
    30    22    23    1
    31    22    24    1
    32    26    27    1
    33    26    28    1
