@<TRIPOS>MOLECULE
26775_ChemDiv_5750-0410
 16 18 0 0 0
SMALL
GASTEIGER
Energy = 0

@<TRIPOS>ATOM
      1 C           0.3290    1.1210    0.0000 C.ar    1  LIG1        0.1822
      2 N          -0.2290    0.2920    0.0000 N.ar    1  LIG1       -0.2228
      3 C          -1.2080    0.5920    0.0000 C.ar    1  LIG1        0.0893
      4 C          -1.2080    1.6210    0.0000 C.ar    1  LIG1        0.0498
      5 S          -0.2290    1.9170    0.0000 S.2     1  LIG1       -0.0500
      6 C          -2.0710    2.1210    0.0000 C.ar    1  LIG1        0.0081
      7 C          -2.9710    1.6210    0.0000 C.ar    1  LIG1        0.0006
      8 C          -2.9710    0.5920    0.0000 C.ar    1  LIG1        0.0016
      9 C          -2.0710    0.0830    0.0000 C.ar    1  LIG1        0.0197
     10 N           1.3710    1.1210    0.0000 N.pl3   1  LIG1       -0.1722
     11 C           1.8670    0.2630    0.0000 C.3     1  LIG1        0.2995
     12 N           1.3710   -0.6290    0.0000 N.am    1  LIG1       -0.1576
     13 C           2.0790   -1.3960    0.0000 C.2     1  LIG1        0.2869
     14 C           2.9670   -0.9540    0.0000 C.2     1  LIG1        0.1562
     15 N           2.8880    0.0500    0.0000 N.2     1  LIG1       -0.2246
     16 O           2.0170   -2.1170    0.0000 O.2     1  LIG1       -0.2666
@<TRIPOS>BOND
     1     1     2   ar
     2     1     5   ar
     3     1    10    1
     4     2     3   ar
     5     3     4   ar
     6     3     9   ar
     7     4     5   ar
     8     4     6   ar
     9     6     7   ar
    10     7     8   ar
    11     8     9   ar
    12    10    11    1
    13    11    12    1
    14    11    15    1
    15    12    13   am
    16    13    14    1
    17    13    16    2
    18    14    15    2
