@<TRIPOS>MOLECULE
26778_ChemDiv_K808-5830
 26 29 0 0 0
SMALL
GASTEIGER
Energy = 0

@<TRIPOS>ATOM
      1 C          -0.1500   -1.9500    0.0000 C.2     1  LIG1        0.2302
      2 N          -0.7380   -1.1460    0.0000 N.am    1  LIG1       -0.2758
      3 C          -0.3750   -0.2210    0.0000 C.3     1  LIG1        0.1148
      4 C          -1.0130    0.5670    0.0000 C.3     1  LIG1        0.1124
      5 N          -2.0130    0.4000    0.0000 N.pl3   1  LIG1       -0.3023
      6 C          -2.6330    1.1540    0.0000 C.ar    1  LIG1        0.0758
      7 C          -2.2880    2.0790    0.0000 C.ar    1  LIG1        0.1533
      8 F          -1.3000    2.2540    0.0000 F       1  LIG1       -0.2029
      9 C          -2.9330    2.8670    0.0000 C.ar    1  LIG1        0.0309
     10 C          -3.9000    2.7080    0.0000 C.ar    1  LIG1        0.0024
     11 C          -4.2460    1.7710    0.0000 C.ar    1  LIG1        0.0014
     12 C          -3.6290    1.0040    0.0000 C.ar    1  LIG1        0.0168
     13 C          -2.3580   -0.5250    0.0000 C.3     1  LIG1        0.1124
     14 C          -1.7250   -1.2960    0.0000 C.3     1  LIG1        0.1148
     15 C           0.8500   -1.8290    0.0000 C.3     1  LIG1        0.1116
     16 C           1.2460   -0.9210    0.0000 C.ar    1  LIG1       -0.0131
     17 C           2.2460   -0.7880    0.0000 C.ar    1  LIG1       -0.0035
     18 C           2.6500    0.1380    0.0000 C.ar    1  LIG1       -0.0003
     19 C           2.0460    0.9380    0.0000 C.ar    1  LIG1       -0.0000
     20 C           1.0580    0.8210    0.0000 C.ar    1  LIG1       -0.0003
     21 C           0.6540   -0.1000    0.0000 C.ar    1  LIG1       -0.0038
     22 C           3.6540    0.2330    0.0000 C.ar    1  LIG1       -0.0000
     23 C           4.2420   -0.5540    0.0000 C.ar    1  LIG1       -0.0000
     24 C           3.8460   -1.4790    0.0000 C.ar    1  LIG1       -0.0000
     25 C           2.8460   -1.6000    0.0000 C.ar    1  LIG1       -0.0003
     26 O          -0.5460   -2.8630    0.0000 O.2     1  LIG1       -0.2745
@<TRIPOS>BOND
     1     1     2   am
     2     1    15    1
     3     1    26    2
     4     2     3    1
     5     2    14    1
     6     3     4    1
     7     4     5    1
     8     5     6    1
     9     5    13    1
    10     6     7   ar
    11     6    12   ar
    12     7     8    1
    13     7     9   ar
    14     9    10   ar
    15    10    11   ar
    16    11    12   ar
    17    13    14    1
    18    15    16    1
    19    16    17   ar
    20    16    21   ar
    21    17    18   ar
    22    17    25   ar
    23    18    19   ar
    24    18    22   ar
    25    19    20   ar
    26    20    21   ar
    27    22    23   ar
    28    23    24   ar
    29    24    25   ar
