@<TRIPOS>MOLECULE
26777_ChemDiv_7399-0313
 23 26 0 0 0
SMALL
GASTEIGER
Energy = 0

@<TRIPOS>ATOM
      1 C          -0.6250   -2.1130    0.0000 C.ar    1  LIG1        0.2619
      2 N          -1.2080   -2.9130    0.0000 N.ar    1  LIG1       -0.2077
      3 C          -2.1580   -2.6040    0.0000 C.ar    1  LIG1        0.0907
      4 C          -2.1580   -1.6080    0.0000 C.ar    1  LIG1        0.0512
      5 S          -1.2080   -1.3000    0.0000 S.2     1  LIG1       -0.0316
      6 C          -3.0210   -1.1130    0.0000 C.ar    1  LIG1        0.0081
      7 C          -3.8790   -1.6080    0.0000 C.ar    1  LIG1        0.0006
      8 C          -3.8790   -2.6040    0.0000 C.ar    1  LIG1        0.0016
      9 C          -3.0210   -3.1040    0.0000 C.ar    1  LIG1        0.0197
     10 N           0.3710   -2.1130    0.0000 N.pl3   1  LIG1       -0.0107
     11 C           0.8670   -1.2540    0.0000 C.cat   1  LIG1        0.4509
     12 N           0.3710   -0.3920    0.0000 N.2     1  LIG1       -0.0344
     13 C           0.8670    0.4710    0.0000 C.3     1  LIG1        0.3715
     14 N           1.8710    0.4710    0.0000 N.4     1  LIG1        0.4381
     15 C           2.3670   -0.3920    0.0000 C.3     1  LIG1        0.3594
     16 N           1.8710   -1.2540    0.0000 N.pl3   1  LIG1       -0.0023
     17 C           2.3670    1.3460    0.0000 C.3     1  LIG1        0.0964
     18 C           3.3790    1.3580    0.0000 C.3     1  LIG1        0.0515
     19 C           3.8750    0.4960    0.0000 C.3     1  LIG1        0.0059
     20 C           3.8750    2.2330    0.0000 C.3     1  LIG1        0.0057
     21 C           3.3710    3.1080    0.0000 C.3     1  LIG1        0.0004
     22 C           2.3630    3.0960    0.0000 C.3     1  LIG1        0.0059
     23 C           1.8540    2.2170    0.0000 C.3     1  LIG1        0.0570
@<TRIPOS>BOND
     1     1     2   ar
     2     1     5   ar
     3     1    10    1
     4     2     3   ar
     5     3     4   ar
     6     3     9   ar
     7     4     5   ar
     8     4     6   ar
     9     6     7   ar
    10     7     8   ar
    11     8     9   ar
    12    10    11    1
    13    11    12    2
    14    11    16    1
    15    12    13    1
    16    13    14    1
    17    14    15    1
    18    14    17    1
    19    15    16    1
    20    17    18    1
    21    17    23    1
    22    18    19    1
    23    18    20    1
    24    20    21    1
    25    21    22    1
    26    22    23    1
