@<TRIPOS>MOLECULE
26784_ChemDiv_1572-0037
 30 34 0 0 0
SMALL
GASTEIGER
Energy = 0

@<TRIPOS>ATOM
      1 C           0.2380   -0.3000    0.0000 C.ar    1  LIG1        0.2634
      2 C           0.3540   -1.3170    0.0000 C.ar    1  LIG1        0.3232
      3 N           1.3380   -1.5040    0.0000 N.ar    1  LIG1       -0.2113
      4 N           1.8080   -0.6330    0.0000 N.ar    1  LIG1       -0.2622
      5 C           1.1290    0.1130    0.0000 C.ar    1  LIG1        0.1023
      6 C           1.3040    1.0830    0.0000 C.3     1  LIG1        0.0558
      7 C           2.8080   -0.5290    0.0000 C.3     1  LIG1        0.1519
      8 C           1.7750   -2.4000    0.0000 C.ar    1  LIG1        0.0842
      9 C           1.2380   -3.2380    0.0000 C.ar    1  LIG1        0.0192
     10 C           1.6790   -4.1380    0.0000 C.ar    1  LIG1        0.0015
     11 C           2.6790   -4.2000    0.0000 C.ar    1  LIG1        0.0001
     12 C           3.2210   -3.3580    0.0000 C.ar    1  LIG1        0.0015
     13 C           2.7750   -2.4580    0.0000 C.ar    1  LIG1        0.0192
     14 O          -0.3830   -2.0000    0.0000 O.2     1  LIG1       -0.2611
     15 N          -0.6210    0.1920    0.0000 N.2     1  LIG1       -0.0303
     16 C          -0.6210    1.1920    0.0000 C.2     1  LIG1        0.3607
     17 N           0.2460    1.6880    0.0000 N.pl3   1  LIG1       -0.0395
     18 C           0.2460    2.7000    0.0000 C.3     1  LIG1        0.1706
     19 C          -0.6210    3.2000    0.0000 C.3     1  LIG1        0.0734
     20 C          -1.4880    2.6710    0.0000 C.ar    1  LIG1       -0.0109
     21 C          -1.4880    1.6880    0.0000 C.ar    1  LIG1        0.0821
     22 C          -2.3540    1.1920    0.0000 C.ar    1  LIG1        0.0072
     23 C          -3.2250    1.6880    0.0000 C.ar    1  LIG1        0.0002
     24 C          -3.2250    2.7000    0.0000 C.ar    1  LIG1       -0.0003
     25 C          -2.3540    3.1920    0.0000 C.ar    1  LIG1       -0.0039
     26 C           0.2670    3.6880    0.0000 C.3     1  LIG1        0.0472
     27 C           1.1420    4.2000    0.0000 C.3     1  LIG1        0.0041
     28 C           1.9710    3.7080    0.0000 C.3     1  LIG1        0.0003
     29 C           1.9710    2.7000    0.0000 C.3     1  LIG1        0.0041
     30 C           1.1420    2.2170    0.0000 C.3     1  LIG1        0.0472
@<TRIPOS>BOND
     1     1     2   ar
     2     1     5   ar
     3     1    15    1
     4     2     3   ar
     5     2    14    2
     6     3     4   ar
     7     3     8    1
     8     4     5   ar
     9     4     7    1
    10     5     6    1
    11     8     9   ar
    12     8    13   ar
    13     9    10   ar
    14    10    11   ar
    15    11    12   ar
    16    12    13   ar
    17    15    16    2
    18    16    17    1
    19    16    21    1
    20    17    18    1
    21    18    19    1
    22    18    26    1
    23    18    30    1
    24    19    20    1
    25    20    21   ar
    26    20    25   ar
    27    21    22   ar
    28    22    23   ar
    29    23    24   ar
    30    24    25   ar
    31    26    27    1
    32    27    28    1
    33    28    29    1
    34    29    30    1
