@<TRIPOS>MOLECULE
26789_ChemDiv_1490-0145
 22 24 0 0 0
SMALL
GASTEIGER
Energy = 0

@<TRIPOS>ATOM
      1 C           0.5330    1.0000    0.0000 C.ar    1  LIG1        0.2087
      2 C          -0.3960    0.6460    0.0000 C.ar    1  LIG1        0.2253
      3 O          -0.3460   -0.3500    0.0000 O.2     1  LIG1       -0.4208
      4 C           0.6170   -0.6170    0.0000 C.ar    1  LIG1        0.2315
      5 N           1.1630    0.2130    0.0000 N.ar    1  LIG1       -0.2003
      6 C           0.9380   -1.5670    0.0000 C.ar    1  LIG1        0.0536
      7 C           0.2790   -2.3080    0.0000 C.ar    1  LIG1        0.0047
      8 C           0.6000   -3.2540    0.0000 C.ar    1  LIG1        0.0002
      9 C           1.5710   -3.4330    0.0000 C.ar    1  LIG1        0.0000
     10 C           2.2210   -2.7130    0.0000 C.ar    1  LIG1        0.0002
     11 C           1.9080   -1.7630    0.0000 C.ar    1  LIG1        0.0047
     12 N          -1.2710    1.1380    0.0000 N.pl3   1  LIG1       -0.2729
     13 C          -1.2460    2.1500    0.0000 C.3     1  LIG1        0.1257
     14 C          -2.1290    2.6580    0.0000 C.3     1  LIG1        0.1637
     15 O          -3.0130    2.1500    0.0000 O.3     1  LIG1       -0.3501
     16 C          -3.0130    1.1670    0.0000 C.3     1  LIG1        0.1637
     17 C          -2.1290    0.6460    0.0000 C.3     1  LIG1        0.1257
     18 C           0.8000    1.9710    0.0000 C.2     1  LIG1        0.3637
     19 O           0.1040    2.6920    0.0000 O.2     1  LIG1       -0.2430
     20 O           1.7420    2.2210    0.0000 O.3     1  LIG1       -0.4443
     21 C           2.0210    3.1920    0.0000 C.3     1  LIG1        0.2089
     22 C           3.0080    3.4380    0.0000 C.3     1  LIG1        0.0513
@<TRIPOS>BOND
     1     1     2   ar
     2     1     5   ar
     3     1    18    1
     4     2     3   ar
     5     2    12    1
     6     3     4   ar
     7     4     5   ar
     8     4     6    1
     9     6     7   ar
    10     6    11   ar
    11     7     8   ar
    12     8     9   ar
    13     9    10   ar
    14    10    11   ar
    15    12    13    1
    16    12    17    1
    17    13    14    1
    18    14    15    1
    19    15    16    1
    20    16    17    1
    21    18    19    2
    22    18    20    1
    23    20    21    1
    24    21    22    1
