@<TRIPOS>MOLECULE
26785_ChemDiv_1611-4691
 31 35 0 0 0
SMALL
GASTEIGER
Energy = 0

@<TRIPOS>ATOM
      1 N           0.5750    0.6290    0.0000 N.am    1  LIG1       -0.2167
      2 C           1.5330    0.6080    0.0000 C.ar    1  LIG1        0.1303
      3 C           2.0290   -0.2500    0.0000 C.ar    1  LIG1        0.2941
      4 N           3.0290   -0.0580    0.0000 N.ar    1  LIG1       -0.2134
      5 N           3.1130    0.9420    0.0000 N.ar    1  LIG1       -0.2646
      6 C           2.2170    1.3170    0.0000 C.ar    1  LIG1        0.0733
      7 C           2.0040    2.3210    0.0000 C.3     1  LIG1        0.0532
      8 C           3.9880    1.4710    0.0000 C.3     1  LIG1        0.1518
      9 C           3.7170   -0.7460    0.0000 C.ar    1  LIG1        0.0841
     10 C           4.7170   -0.4960    0.0000 C.ar    1  LIG1        0.0192
     11 C           5.4080   -1.1830    0.0000 C.ar    1  LIG1        0.0015
     12 C           5.1580   -2.1830    0.0000 C.ar    1  LIG1        0.0001
     13 C           4.1750   -2.4330    0.0000 C.ar    1  LIG1        0.0015
     14 C           3.4580   -1.7210    0.0000 C.ar    1  LIG1        0.0192
     15 O           1.6540   -1.1830    0.0000 O.2     1  LIG1       -0.2638
     16 C           0.0250   -0.1250    0.0000 C.2     1  LIG1        0.1252
     17 S          -0.8920    0.1710    0.0000 S.3     1  LIG1       -0.0601
     18 C          -0.9080    1.1710    0.0000 C.2     1  LIG1        0.0853
     19 C           0.0130    1.4420    0.0000 C.2     1  LIG1        0.2635
     20 O           0.3250    2.4380    0.0000 O.2     1  LIG1       -0.2687
     21 C          -1.6710    1.8460    0.0000 C.2     1  LIG1        0.0112
     22 C          -2.6420    1.5000    0.0000 C.ar    1  LIG1        0.0039
     23 C          -2.8130    0.5000    0.0000 C.ar    1  LIG1        0.0402
     24 C          -3.7670    0.1710    0.0000 C.ar    1  LIG1        0.1764
     25 C          -4.5500    0.7960    0.0000 C.ar    1  LIG1        0.1764
     26 O          -5.4130    0.2540    0.0000 O.3     1  LIG1       -0.4346
     27 C          -5.1460   -0.6880    0.0000 C.3     1  LIG1        0.4294
     28 O          -4.1580   -0.7460    0.0000 O.3     1  LIG1       -0.4346
     29 C          -4.3790    1.8000    0.0000 C.ar    1  LIG1        0.0402
     30 C          -3.4130    2.1330    0.0000 C.ar    1  LIG1        0.0033
     31 S           0.3580   -1.0630    0.0000 S.2     1  LIG1       -0.0269
@<TRIPOS>BOND
     1     1     2    1
     2     1    16    1
     3     1    19   am
     4     2     3   ar
     5     2     6   ar
     6     3     4   ar
     7     3    15    2
     8     4     5   ar
     9     4     9    1
    10     5     6   ar
    11     5     8    1
    12     6     7    1
    13     9    10   ar
    14     9    14   ar
    15    10    11   ar
    16    11    12   ar
    17    12    13   ar
    18    13    14   ar
    19    16    17    1
    20    16    31    2
    21    17    18    1
    22    18    19    1
    23    18    21    2
    24    19    20    2
    25    21    22    1
    26    22    23   ar
    27    22    30   ar
    28    23    24   ar
    29    24    25   ar
    30    24    28    1
    31    25    26    1
    32    25    29   ar
    33    26    27    1
    34    27    28    1
    35    29    30   ar
