@<TRIPOS>MOLECULE
26781_ChemDiv_8006-7112
 33 35 0 0 0
SMALL
GASTEIGER
Energy = 0

@<TRIPOS>ATOM
      1 C          -0.0040    1.9960    0.0000 C.ar    1  LIG1        0.1858
      2 N          -0.1210    1.0580    0.0000 N.ar    1  LIG1       -0.2225
      3 C          -1.0920    0.8580    0.0000 C.ar    1  LIG1        0.0893
      4 C          -1.5830    1.7330    0.0000 C.ar    1  LIG1        0.0500
      5 S          -0.8880    2.4420    0.0000 S.2     1  LIG1       -0.0497
      6 C          -2.5750    1.7540    0.0000 C.ar    1  LIG1        0.0145
      7 C          -3.0920    0.9040    0.0000 C.ar    1  LIG1        0.0762
      8 C          -4.1130    0.9380    0.0000 C.2     1  LIG1        0.3412
      9 O          -4.6250    0.0630    0.0000 O.2     1  LIG1       -0.2449
     10 O          -4.5790    1.8000    0.0000 O.3     1  LIG1       -0.4454
     11 C          -5.5710    1.8080    0.0000 C.3     1  LIG1        0.2089
     12 C          -6.0630    2.6880    0.0000 C.3     1  LIG1        0.0513
     13 C          -2.6170    0.0170    0.0000 C.ar    1  LIG1        0.0080
     14 C          -1.6130    0.0170    0.0000 C.ar    1  LIG1        0.0199
     15 N           0.8830    2.4420    0.0000 N.am    1  LIG1       -0.1536
     16 C           1.7170    1.9000    0.0000 C.2     1  LIG1        0.2583
     17 O           1.6830    0.9040    0.0000 O.2     1  LIG1       -0.2720
     18 C           2.6040    2.3580    0.0000 C.3     1  LIG1        0.1451
     19 S           3.4710    1.8080    0.0000 S.3     1  LIG1       -0.1189
     20 C           4.3500    2.2960    0.0000 C.3     1  LIG1        0.1675
     21 C           5.2210    1.7880    0.0000 C.2     1  LIG1        0.3285
     22 O           5.1790    0.7920    0.0000 O.3     1  LIG1       -0.4393
     23 C           4.3330    0.3210    0.0000 C.3     1  LIG1        0.2766
     24 C           4.3000   -0.7080    0.0000 C.2     1  LIG1        0.2170
     25 C           3.4210   -1.2000    0.0000 C.ar    1  LIG1        0.0385
     26 C           3.4210   -2.2040    0.0000 C.ar    1  LIG1        0.0035
     27 C           2.5380   -2.6830    0.0000 C.ar    1  LIG1        0.0068
     28 C           1.7040   -2.1580    0.0000 C.ar    1  LIG1        0.0346
     29 C           1.6830   -1.1330    0.0000 C.ar    1  LIG1        0.0068
     30 C           2.5790   -0.6500    0.0000 C.ar    1  LIG1        0.0035
     31 BR          0.8040   -2.6500    0.0000 Br      1  LIG1       -0.0490
     32 O           5.1790   -1.2250    0.0000 O.2     1  LIG1       -0.2874
     33 O           6.0630    2.2540    0.0000 O.2     1  LIG1       -0.2491
@<TRIPOS>BOND
     1     1     2   ar
     2     1     5   ar
     3     1    15    1
     4     2     3   ar
     5     3     4   ar
     6     3    14   ar
     7     4     5   ar
     8     4     6   ar
     9     6     7   ar
    10     7     8    1
    11     7    13   ar
    12     8     9    2
    13     8    10    1
    14    10    11    1
    15    11    12    1
    16    13    14   ar
    17    15    16   am
    18    16    17    2
    19    16    18    1
    20    18    19    1
    21    19    20    1
    22    20    21    1
    23    21    22    1
    24    21    33    2
    25    22    23    1
    26    23    24    1
    27    24    25    1
    28    24    32    2
    29    25    26   ar
    30    25    30   ar
    31    26    27   ar
    32    27    28   ar
    33    28    29   ar
    34    28    31    1
    35    29    30   ar
