@<TRIPOS>MOLECULE
26791_ChemDiv_2280-4210
 27 30 0 0 0
SMALL
GASTEIGER
Energy = 0

@<TRIPOS>ATOM
      1 C          -1.0040   -0.4040    0.0000 C.ar    1  LIG1        0.2430
      2 N           0.0000   -0.3830    0.0000 N.ar    1  LIG1       -0.1882
      3 C           0.3540   -1.3330    0.0000 C.ar    1  LIG1        0.2326
      4 O          -0.4500   -2.0250    0.0000 O.2     1  LIG1       -0.4196
      5 C          -1.3420   -1.4210    0.0000 C.ar    1  LIG1        0.2369
      6 N          -2.1080   -1.4040    0.0000 N.pl3   1  LIG1       -0.2720
      7 C          -2.9830   -0.9040    0.0000 C.3     1  LIG1        0.1257
      8 C          -3.8630   -1.4040    0.0000 C.3     1  LIG1        0.1637
      9 O          -3.8630   -2.4250    0.0000 O.3     1  LIG1       -0.3501
     10 C          -2.9830   -2.9250    0.0000 C.3     1  LIG1        0.1637
     11 C          -2.1080   -2.4250    0.0000 C.3     1  LIG1        0.1257
     12 C           1.2880   -1.3080    0.0000 C.ar    1  LIG1        0.0537
     13 C           2.2130   -0.8080    0.0000 C.ar    1  LIG1        0.0055
     14 C           3.0920   -1.3080    0.0000 C.ar    1  LIG1        0.0115
     15 C           3.0920   -2.3830    0.0000 C.ar    1  LIG1        0.0577
     16 C           2.2130   -2.8880    0.0000 C.ar    1  LIG1        0.0115
     17 C           1.2880   -2.3830    0.0000 C.ar    1  LIG1        0.0055
     18 CL          3.8580   -2.8130    0.0000 Cl      1  LIG1       -0.0822
     19 S          -1.6960    0.1500    0.0000 S.O2    1  LIG1        0.0482
     20 O          -2.6080    0.0790    0.0000 O.2     1  LIG1       -0.1627
     21 O          -0.8210    0.1880    0.0000 O.2     1  LIG1       -0.1627
     22 C          -1.7380    1.1420    0.0000 C.ar    1  LIG1        0.1121
     23 C          -0.7380    1.1210    0.0000 C.ar    1  LIG1        0.0188
     24 C          -0.2130    2.0710    0.0000 C.ar    1  LIG1        0.0013
     25 C          -0.6790    2.9290    0.0000 C.ar    1  LIG1        0.0001
     26 C          -1.7500    2.9290    0.0000 C.ar    1  LIG1        0.0013
     27 C          -2.2380    2.0290    0.0000 C.ar    1  LIG1        0.0188
@<TRIPOS>BOND
     1     1     2   ar
     2     1     5   ar
     3     1    19    1
     4     2     3   ar
     5     3     4   ar
     6     3    12    1
     7     4     5   ar
     8     5     6    1
     9     6     7    1
    10     6    11    1
    11     7     8    1
    12     8     9    1
    13     9    10    1
    14    10    11    1
    15    12    13   ar
    16    12    17   ar
    17    13    14   ar
    18    14    15   ar
    19    15    16   ar
    20    15    18    1
    21    16    17   ar
    22    19    20    2
    23    19    21    2
    24    19    22    1
    25    22    23   ar
    26    22    27   ar
    27    23    24   ar
    28    24    25   ar
    29    25    26   ar
    30    26    27   ar
