@<TRIPOS>MOLECULE
26795_ChemDiv_1493-0230
 14 15 0 0 0
SMALL
GASTEIGER
Energy = 0

@<TRIPOS>ATOM
      1 N           0.4210   -0.7330    0.0000 N.ar    1  LIG1       -0.3306
      2 C           1.2880   -0.2290    0.0000 C.ar    1  LIG1        0.0379
      3 C           1.2880    0.7380    0.0000 C.ar    1  LIG1        0.0198
      4 C           0.4210    1.2420    0.0000 C.ar    1  LIG1        0.0382
      5 C          -0.4500    0.7630    0.0000 C.ar    1  LIG1        0.0223
      6 C          -0.4500   -0.2540    0.0000 C.ar    1  LIG1        0.0601
      7 C          -1.3170   -0.7330    0.0000 C.ar    1  LIG1        0.0172
      8 C          -2.1880   -0.2290    0.0000 C.ar    1  LIG1        0.0015
      9 C          -2.1880    0.7380    0.0000 C.ar    1  LIG1        0.0001
     10 C          -1.3170    1.2420    0.0000 C.ar    1  LIG1        0.0019
     11 S           0.4460    2.2580    0.0000 S.2     1  LIG1       -0.0506
     12 C           2.1830   -0.7330    0.0000 C.3     1  LIG1        0.0500
     13 C           0.4460   -1.7500    0.0000 C.3     1  LIG1        0.1058
     14 C          -0.4210   -2.2540    0.0000 C.3     1  LIG1        0.0265
@<TRIPOS>BOND
     1     1     2   ar
     2     1     6   ar
     3     1    13    1
     4     2     3   ar
     5     2    12    1
     6     3     4   ar
     7     4     5   ar
     8     4    11    2
     9     5     6   ar
    10     5    10   ar
    11     6     7   ar
    12     7     8   ar
    13     8     9   ar
    14     9    10   ar
    15    13    14    1
