@<TRIPOS>MOLECULE
26803_ChemDiv_8016-4354
 27 31 0 0 0
SMALL
GASTEIGER
Energy = 0

@<TRIPOS>ATOM
      1 C           0.4630   -0.2960    0.0000 C.ar    1  LIG1        0.1858
      2 N           0.0170    0.6040    0.0000 N.ar    1  LIG1       -0.2225
      3 C           0.7290    1.3040    0.0000 C.ar    1  LIG1        0.0894
      4 C           1.6170    0.8330    0.0000 C.ar    1  LIG1        0.0511
      5 S           1.4540   -0.1540    0.0000 S.2     1  LIG1       -0.0497
      6 C           2.4670    1.3670    0.0000 C.ar    1  LIG1        0.0247
      7 C           2.4290    2.3670    0.0000 C.ar    1  LIG1        0.0740
      8 N           3.2670    2.9040    0.0000 N.am    1  LIG1       -0.1792
      9 C           4.1540    2.4420    0.0000 C.2     1  LIG1        0.2461
     10 O           4.2000    1.4330    0.0000 O.2     1  LIG1       -0.2730
     11 C           5.0040    2.9750    0.0000 C.3     1  LIG1        0.0968
     12 C           1.5420    2.8330    0.0000 C.ar    1  LIG1        0.0182
     13 C           0.6920    2.3040    0.0000 C.ar    1  LIG1        0.0210
     14 N          -0.0080   -1.1830    0.0000 N.am    1  LIG1       -0.1543
     15 C          -1.0080   -1.2210    0.0000 C.2     1  LIG1        0.2473
     16 C          -1.4710   -2.1080    0.0000 C.3     1  LIG1        0.0872
     17 C          -2.4710   -2.1460    0.0000 C.3     1  LIG1        0.0087
     18 C          -3.3710   -2.3710    0.0000 C.3     1  LIG1        0.0005
     19 C          -4.2330   -2.0580    0.0000 C.3     1  LIG1        0.0000
     20 C          -5.0080   -2.8830    0.0000 C.3     1  LIG1        0.0000
     21 C          -4.0370   -2.6080    0.0000 C.3     1  LIG1        0.0000
     22 C          -3.1250   -2.9710    0.0000 C.3     1  LIG1        0.0005
     23 C          -4.0370   -1.5790    0.0000 C.3     1  LIG1        0.0000
     24 C          -3.3630   -0.7790    0.0000 C.3     1  LIG1        0.0000
     25 C          -2.4580   -1.1540    0.0000 C.3     1  LIG1        0.0005
     26 C          -4.2380   -1.0920    0.0000 C.3     1  LIG1        0.0000
     27 O          -1.5330   -0.3710    0.0000 O.2     1  LIG1       -0.2729
@<TRIPOS>BOND
     1     1     2   ar
     2     1     5   ar
     3     1    14    1
     4     2     3   ar
     5     3     4   ar
     6     3    13   ar
     7     4     5   ar
     8     4     6   ar
     9     6     7   ar
    10     7     8    1
    11     7    12   ar
    12     8     9   am
    13     9    10    2
    14     9    11    1
    15    12    13   ar
    16    14    15   am
    17    15    16    1
    18    15    27    2
    19    16    17    1
    20    17    18    1
    21    17    22    1
    22    17    25    1
    23    18    19    1
    24    19    20    1
    25    19    26    1
    26    20    21    1
    27    21    22    1
    28    21    23    1
    29    23    24    1
    30    24    25    1
    31    24    26    1
