@<TRIPOS>MOLECULE
26807_ChemDiv_C782-1191
 30 34 0 0 0
SMALL
GASTEIGER
Energy = 0

@<TRIPOS>ATOM
      1 C          -2.2330    1.5920    0.0000 C.ar    1  LIG1        0.1630
      2 N          -2.8210    0.7630    0.0000 N.ar    1  LIG1       -0.2244
      3 C          -3.7750    1.0750    0.0000 C.ar    1  LIG1        0.0852
      4 C          -3.7880    2.0750    0.0000 C.ar    1  LIG1        0.0491
      5 S          -2.8330    2.3920    0.0000 S.2     1  LIG1       -0.0516
      6 C          -4.6500    2.5710    0.0000 C.ar    1  LIG1        0.0038
      7 C          -5.5130    2.0750    0.0000 C.ar    1  LIG1       -0.0216
      8 C          -5.5130    1.0750    0.0000 C.ar    1  LIG1       -0.0070
      9 C          -4.6500    0.5750    0.0000 C.ar    1  LIG1       -0.0040
     10 C          -4.6500   -0.4210    0.0000 C.3     1  LIG1        0.0326
     11 C          -6.3670    2.5710    0.0000 C.3     1  LIG1        0.0310
     12 N          -1.2380    1.5920    0.0000 N.pl3   1  LIG1       -0.2881
     13 C          -0.7380    0.7290    0.0000 C.3     1  LIG1        0.0931
     14 C           0.2500    0.7290    0.0000 C.3     1  LIG1        0.0307
     15 C           0.7500    1.5960    0.0000 C.3     1  LIG1        0.0816
     16 C           1.7460    1.5960    0.0000 C.2     1  LIG1        0.2413
     17 N           2.2460    0.7330    0.0000 N.am    1  LIG1       -0.2006
     18 C           3.1630    0.7420    0.0000 C.3     1  LIG1        0.1416
     19 C           3.5880   -0.0250    0.0000 C.ar    1  LIG1        0.0027
     20 C           4.5130   -0.0420    0.0000 C.ar    1  LIG1        0.0376
     21 C           4.9920   -0.8920    0.0000 C.ar    1  LIG1        0.1762
     22 C           4.4790   -1.7210    0.0000 C.ar    1  LIG1        0.1764
     23 O           5.8540   -2.5670    0.0000 O.3     1  LIG1       -0.4346
     24 C           6.3670   -1.7330    0.0000 C.3     1  LIG1        0.4294
     25 O           5.9330   -0.9170    0.0000 O.3     1  LIG1       -0.4346
     26 C           3.5170   -1.6750    0.0000 C.ar    1  LIG1        0.0399
     27 C           3.0630   -0.8580    0.0000 C.ar    1  LIG1        0.0008
     28 O           2.2460    2.4670    0.0000 O.2     1  LIG1       -0.2733
     29 C           0.2500    2.4580    0.0000 C.3     1  LIG1        0.0307
     30 C          -0.7540    2.4580    0.0000 C.3     1  LIG1        0.0931
@<TRIPOS>BOND
     1     1     2   ar
     2     1     5   ar
     3     1    12    1
     4     2     3   ar
     5     3     4   ar
     6     3     9   ar
     7     4     5   ar
     8     4     6   ar
     9     6     7   ar
    10     7     8   ar
    11     7    11    1
    12     8     9   ar
    13     9    10    1
    14    12    13    1
    15    12    30    1
    16    13    14    1
    17    14    15    1
    18    15    16    1
    19    15    29    1
    20    16    17   am
    21    16    28    2
    22    17    18    1
    23    18    19    1
    24    19    20   ar
    25    19    27   ar
    26    20    21   ar
    27    21    22   ar
    28    21    25    1
    29    22    23    1
    30    22    26   ar
    31    23    24    1
    32    24    25    1
    33    26    27   ar
    34    29    30    1
