@<TRIPOS>MOLECULE
26809_ChemDiv_C797-0040
 24 27 0 0 0
SMALL
GASTEIGER
Energy = 0

@<TRIPOS>ATOM
      1 C          -0.1790    1.1670    0.0000 C.ar    1  LIG1        0.1630
      2 N          -0.7790    1.9670    0.0000 N.ar    1  LIG1       -0.2241
      3 C          -1.7210    1.6500    0.0000 C.ar    1  LIG1        0.0893
      4 C          -1.7170    0.6500    0.0000 C.ar    1  LIG1        0.0502
      5 S          -0.7630    0.3460    0.0000 S.2     1  LIG1       -0.0515
      6 C          -2.5960    0.1500    0.0000 C.ar    1  LIG1        0.0148
      7 C          -3.4580    0.6500    0.0000 C.ar    1  LIG1        0.0352
      8 C          -3.4580    1.6500    0.0000 C.ar    1  LIG1        0.0083
      9 C          -2.5960    2.1500    0.0000 C.ar    1  LIG1        0.0202
     10 BR         -4.3210    0.1500    0.0000 Br      1  LIG1       -0.0490
     11 N           0.8210    1.1670    0.0000 N.pl3   1  LIG1       -0.2881
     12 C           1.3210    0.3040    0.0000 C.3     1  LIG1        0.0931
     13 C           2.3080    0.3080    0.0000 C.3     1  LIG1        0.0307
     14 C           2.8080    1.1710    0.0000 C.3     1  LIG1        0.0816
     15 C           3.8080    1.1790    0.0000 C.2     1  LIG1        0.2409
     16 N           4.3170    0.3170    0.0000 N.am    1  LIG1       -0.2072
     17 C           3.8210   -0.5540    0.0000 C.3     1  LIG1        0.0953
     18 C           2.8250   -0.6670    0.0000 C.3     1  LIG1        0.0217
     19 C           2.6250   -1.6500    0.0000 C.3     1  LIG1        0.0018
     20 C           3.4920   -2.1460    0.0000 C.3     1  LIG1        0.0018
     21 C           4.2330   -1.4710    0.0000 C.3     1  LIG1        0.0217
     22 O           4.3080    2.0420    0.0000 O.2     1  LIG1       -0.2734
     23 C           2.3080    2.0420    0.0000 C.3     1  LIG1        0.0307
     24 C           1.3080    2.0330    0.0000 C.3     1  LIG1        0.0931
@<TRIPOS>BOND
     1     1     2   ar
     2     1     5   ar
     3     1    11    1
     4     2     3   ar
     5     3     4   ar
     6     3     9   ar
     7     4     5   ar
     8     4     6   ar
     9     6     7   ar
    10     7     8   ar
    11     7    10    1
    12     8     9   ar
    13    11    12    1
    14    11    24    1
    15    12    13    1
    16    13    14    1
    17    14    15    1
    18    14    23    1
    19    15    16   am
    20    15    22    2
    21    16    17    1
    22    17    18    1
    23    17    21    1
    24    18    19    1
    25    19    20    1
    26    20    21    1
    27    23    24    1
