@<TRIPOS>MOLECULE
26811_ChemDiv_C797-0113
 19 21 0 0 0
SMALL
GASTEIGER
Energy = 0

@<TRIPOS>ATOM
      1 C           0.5000   -0.4920    0.0000 C.ar    1  LIG1        0.1630
      2 N          -0.0920   -1.3000    0.0000 N.ar    1  LIG1       -0.2241
      3 C          -1.0380   -0.9920    0.0000 C.ar    1  LIG1        0.0892
      4 C          -1.0380    0.0080    0.0000 C.ar    1  LIG1        0.0498
      5 S          -0.0920    0.3210    0.0000 S.2     1  LIG1       -0.0515
      6 C          -1.9130    0.5080    0.0000 C.ar    1  LIG1        0.0092
      7 C          -2.7750    0.0080    0.0000 C.ar    1  LIG1        0.0146
      8 C          -3.6380    0.5000    0.0000 C.2     1  LIG1        0.0729
      9 O          -4.5000    0.0000    0.0000 O.co2   1  LIG1       -0.5446
     10 O          -3.6380    1.5000    0.0000 O.co2   1  LIG1       -0.5446
     11 C          -2.7750   -0.9960    0.0000 C.ar    1  LIG1        0.0027
     12 C          -1.9130   -1.5000    0.0000 C.ar    1  LIG1        0.0197
     13 N           1.4960   -0.4920    0.0000 N.pl3   1  LIG1       -0.2882
     14 C           2.0000   -1.3630    0.0000 C.3     1  LIG1        0.0926
     15 C           2.9960   -1.3630    0.0000 C.3     1  LIG1        0.0215
     16 C           3.4960   -0.4960    0.0000 C.3     1  LIG1        0.0034
     17 C           2.9960    0.3670    0.0000 C.3     1  LIG1        0.0215
     18 C           2.0000    0.3710    0.0000 C.3     1  LIG1        0.0926
     19 C           4.4960   -0.5080    0.0000 C.3     1  LIG1        0.0001
@<TRIPOS>BOND
     1     1     2   ar
     2     1     5   ar
     3     1    13    1
     4     2     3   ar
     5     3     4   ar
     6     3    12   ar
     7     4     5   ar
     8     4     6   ar
     9     6     7   ar
    10     7     8    1
    11     7    11   ar
    12     8     9   ar
    13     8    10   ar
    14    11    12   ar
    15    13    14    1
    16    13    18    1
    17    14    15    1
    18    15    16    1
    19    16    17    1
    20    16    19    1
    21    17    18    1
