@<TRIPOS>MOLECULE
26819_ChemDiv_8007-7062
 18 21 0 0 0
SMALL
GASTEIGER
Energy = 0

@<TRIPOS>ATOM
      1 C          -0.8960    0.2500    0.0000 C.3     1  LIG1        0.0786
      2 C          -2.0750    0.0250    0.0000 C.3     1  LIG1        0.0091
      3 C          -1.6170   -0.7580    0.0000 C.3     1  LIG1        0.0091
      4 C          -2.5540   -0.3040    0.0000 C.3     1  LIG1        0.0005
      5 C          -2.6830    1.5330    0.0000 C.3     1  LIG1        0.0000
      6 C          -2.8540    0.5540    0.0000 C.3     1  LIG1        0.0005
      7 C          -3.7920   -0.0290    0.0000 C.3     1  LIG1        0.0000
      8 C          -3.4210   -0.7750    0.0000 C.3     1  LIG1        0.0000
      9 C          -0.1170   -0.1920    0.0000 C.2     1  LIG1        0.2451
     10 N           0.6500    0.2580    0.0000 N.am    1  LIG1       -0.1792
     11 C           1.4460   -0.1830    0.0000 C.ar    1  LIG1        0.0734
     12 C           2.2080    0.2750    0.0000 C.ar    1  LIG1        0.0171
     13 C           3.0080   -0.1670    0.0000 C.ar    1  LIG1        0.0080
     14 C           3.0080   -1.0790    0.0000 C.ar    1  LIG1        0.0347
     15 BR          3.7880   -1.5290    0.0000 Br      1  LIG1       -0.0490
     16 C           2.2290   -1.5290    0.0000 C.ar    1  LIG1        0.0080
     17 C           1.4460   -1.0790    0.0000 C.ar    1  LIG1        0.0171
     18 O          -0.1170   -1.0960    0.0000 O.2     1  LIG1       -0.2730
@<TRIPOS>BOND
     1     1     2    1
     2     1     3    1
     3     1     9    1
     4     2     3    1
     5     2     6    1
     6     3     4    1
     7     4     5    1
     8     4     8    1
     9     5     6    1
    10     6     7    1
    11     7     8    1
    12     9    10   am
    13     9    18    2
    14    10    11    1
    15    11    12   ar
    16    11    17   ar
    17    12    13   ar
    18    13    14   ar
    19    14    15    1
    20    14    16   ar
    21    16    17   ar
