@<TRIPOS>MOLECULE
26825_ChemDiv_8009-4042
 20 23 0 0 0
SMALL
GASTEIGER
Energy = 0

@<TRIPOS>ATOM
      1 C          -0.2460   -0.0580    0.0000 C.3     1  LIG1        0.0786
      2 C          -1.6920   -1.3040    0.0000 C.3     1  LIG1        0.0091
      3 C          -1.3330   -0.5710    0.0000 C.3     1  LIG1        0.0091
      4 C          -2.2500   -0.0210    0.0000 C.3     1  LIG1        0.0005
      5 C          -2.4290    0.9290    0.0000 C.3     1  LIG1        0.0000
      6 C          -2.5330   -0.8540    0.0000 C.3     1  LIG1        0.0005
      7 C          -3.4460   -1.3040    0.0000 C.3     1  LIG1        0.0000
      8 C          -3.0040   -0.5420    0.0000 C.3     1  LIG1        0.0000
      9 C           0.3830   -0.6830    0.0000 C.2     1  LIG1        0.2452
     10 N           1.1380   -0.2380    0.0000 N.am    1  LIG1       -0.1761
     11 C           1.9130   -0.6630    0.0000 C.ar    1  LIG1        0.1072
     12 C           2.6710   -0.2210    0.0000 C.ar    1  LIG1        0.1537
     13 O           2.6580    0.6580    0.0000 O.3     1  LIG1       -0.4741
     14 C           3.4250    1.1080    0.0000 C.3     1  LIG1        0.2056
     15 C           3.4250    1.9920    0.0000 C.3     1  LIG1        0.0512
     16 C           3.4420   -0.6630    0.0000 C.ar    1  LIG1        0.0382
     17 C           3.4420   -1.5500    0.0000 C.ar    1  LIG1        0.0032
     18 C           2.6580   -1.9880    0.0000 C.ar    1  LIG1        0.0015
     19 C           1.8960   -1.5420    0.0000 C.ar    1  LIG1        0.0197
     20 O           0.3920   -1.5500    0.0000 O.2     1  LIG1       -0.2730
@<TRIPOS>BOND
     1     1     2    1
     2     1     3    1
     3     1     9    1
     4     2     3    1
     5     2     6    1
     6     3     4    1
     7     4     5    1
     8     4     8    1
     9     5     6    1
    10     6     7    1
    11     7     8    1
    12     9    10   am
    13     9    20    2
    14    10    11    1
    15    11    12   ar
    16    11    19   ar
    17    12    13    1
    18    12    16   ar
    19    13    14    1
    20    14    15    1
    21    16    17   ar
    22    17    18   ar
    23    18    19   ar
