@<TRIPOS>MOLECULE
26829_ChemDiv_8009-5907
 19 22 0 0 0
SMALL
GASTEIGER
Energy = 0

@<TRIPOS>ATOM
      1 C          -0.6170    0.4710    0.0000 C.3     1  LIG1        0.0786
      2 C          -2.0540   -0.7710    0.0000 C.3     1  LIG1        0.0091
      3 C          -1.7040   -0.0500    0.0000 C.3     1  LIG1        0.0091
      4 C          -2.6170    0.5040    0.0000 C.3     1  LIG1        0.0005
      5 C          -2.7920    1.4540    0.0000 C.3     1  LIG1        0.0000
      6 C          -2.8960   -0.3290    0.0000 C.3     1  LIG1        0.0005
      7 C          -3.8000   -0.7710    0.0000 C.3     1  LIG1        0.0000
      8 C          -3.3710   -0.0080    0.0000 C.3     1  LIG1        0.0000
      9 C           0.0000   -0.1540    0.0000 C.2     1  LIG1        0.2451
     10 N           0.7540    0.2960    0.0000 N.am    1  LIG1       -0.1784
     11 C           1.5250   -0.1290    0.0000 C.ar    1  LIG1        0.0839
     12 C           2.2830    0.3040    0.0000 C.ar    1  LIG1        0.0738
     13 C           3.0460   -0.1290    0.0000 C.ar    1  LIG1        0.0241
     14 C           3.0460   -1.0210    0.0000 C.ar    1  LIG1        0.0586
     15 C           2.2750   -1.4500    0.0000 C.ar    1  LIG1        0.0128
     16 C           1.5170   -1.0040    0.0000 C.ar    1  LIG1        0.0183
     17 CL          3.7960   -1.4500    0.0000 Cl      1  LIG1       -0.0822
     18 CL          2.2750    1.1830    0.0000 Cl      1  LIG1       -0.0809
     19 O           0.0170   -1.0210    0.0000 O.2     1  LIG1       -0.2730
@<TRIPOS>BOND
     1     1     2    1
     2     1     3    1
     3     1     9    1
     4     2     3    1
     5     2     6    1
     6     3     4    1
     7     4     5    1
     8     4     8    1
     9     5     6    1
    10     6     7    1
    11     7     8    1
    12     9    10   am
    13     9    19    2
    14    10    11    1
    15    11    12   ar
    16    11    16   ar
    17    12    13   ar
    18    12    18    1
    19    13    14   ar
    20    14    15   ar
    21    14    17    1
    22    15    16   ar
