@<TRIPOS>MOLECULE
26823_ChemDiv_8008-9506
 19 22 0 0 0
SMALL
GASTEIGER
Energy = 0

@<TRIPOS>ATOM
      1 C          -0.3750    0.7880    0.0000 C.3     1  LIG1        0.0786
      2 C          -1.6130   -0.1920    0.0000 C.3     1  LIG1        0.0091
      3 C          -1.2500    0.5460    0.0000 C.3     1  LIG1        0.0091
      4 C          -2.1920    1.1250    0.0000 C.3     1  LIG1        0.0005
      5 C          -2.3710    2.1040    0.0000 C.3     1  LIG1        0.0000
      6 C          -2.4790    0.2580    0.0000 C.3     1  LIG1        0.0005
      7 C          -3.4080   -0.1920    0.0000 C.3     1  LIG1        0.0000
      8 C          -2.9670    0.5920    0.0000 C.3     1  LIG1        0.0000
      9 C           0.2630    0.1500    0.0000 C.2     1  LIG1        0.2451
     10 N           1.0290    0.6040    0.0000 N.am    1  LIG1       -0.1796
     11 C           1.8330    0.1580    0.0000 C.ar    1  LIG1        0.0691
     12 C           2.6210    0.6210    0.0000 C.ar    1  LIG1       -0.0065
     13 C           3.4040    0.1710    0.0000 C.ar    1  LIG1       -0.0033
     14 C           3.4040   -0.7330    0.0000 C.ar    1  LIG1       -0.0045
     15 C           2.6210   -1.1960    0.0000 C.ar    1  LIG1       -0.0206
     16 C           1.8330   -0.7460    0.0000 C.ar    1  LIG1        0.0120
     17 C           2.6210   -2.1000    0.0000 C.3     1  LIG1        0.0311
     18 C           2.6040    1.5380    0.0000 C.3     1  LIG1        0.0324
     19 O           0.2750   -0.7630    0.0000 O.2     1  LIG1       -0.2730
@<TRIPOS>BOND
     1     1     2    1
     2     1     3    1
     3     1     9    1
     4     2     3    1
     5     2     6    1
     6     3     4    1
     7     4     5    1
     8     4     8    1
     9     5     6    1
    10     6     7    1
    11     7     8    1
    12     9    10   am
    13     9    19    2
    14    10    11    1
    15    11    12   ar
    16    11    16   ar
    17    12    13   ar
    18    12    18    1
    19    13    14   ar
    20    14    15   ar
    21    15    16   ar
    22    15    17    1
