@<TRIPOS>MOLECULE
26827_ChemDiv_8009-5568
 18 21 0 0 0
SMALL
GASTEIGER
Energy = 0

@<TRIPOS>ATOM
      1 C          -0.8380    0.2330    0.0000 C.3     1  LIG1        0.0786
      2 C          -2.0580   -0.7420    0.0000 C.3     1  LIG1        0.0091
      3 C          -1.7040    0.0080    0.0000 C.3     1  LIG1        0.0091
      4 C          -2.6460    0.5750    0.0000 C.3     1  LIG1        0.0005
      5 C          -2.8170    1.5500    0.0000 C.3     1  LIG1        0.0000
      6 C          -2.9330   -0.2830    0.0000 C.3     1  LIG1        0.0005
      7 C          -3.8540   -0.7420    0.0000 C.3     1  LIG1        0.0000
      8 C          -3.4130    0.0420    0.0000 C.3     1  LIG1        0.0000
      9 C          -0.0580   -0.2130    0.0000 C.2     1  LIG1        0.2451
     10 N           0.7290    0.2500    0.0000 N.am    1  LIG1       -0.1792
     11 C           1.5170   -0.1960    0.0000 C.ar    1  LIG1        0.0739
     12 C           2.2920    0.2580    0.0000 C.ar    1  LIG1        0.0233
     13 C           3.0750   -0.1880    0.0000 C.ar    1  LIG1        0.0359
     14 BR          3.8500    0.2670    0.0000 Br      1  LIG1       -0.0490
     15 C           3.0750   -1.1000    0.0000 C.ar    1  LIG1        0.0068
     16 C           2.3080   -1.5460    0.0000 C.ar    1  LIG1        0.0018
     17 C           1.5170   -1.1000    0.0000 C.ar    1  LIG1        0.0166
     18 O          -0.0380   -1.1080    0.0000 O.2     1  LIG1       -0.2730
@<TRIPOS>BOND
     1     1     2    1
     2     1     3    1
     3     1     9    1
     4     2     3    1
     5     2     6    1
     6     3     4    1
     7     4     5    1
     8     4     8    1
     9     5     6    1
    10     6     7    1
    11     7     8    1
    12     9    10   am
    13     9    18    2
    14    10    11    1
    15    11    12   ar
    16    11    17   ar
    17    12    13   ar
    18    13    14    1
    19    13    15   ar
    20    15    16   ar
    21    16    17   ar
