@<TRIPOS>MOLECULE
26839_ChemDiv_4327-3312
 14 15 0 0 0
SMALL
GASTEIGER
Energy = 0

@<TRIPOS>ATOM
      1 C           0.5330   -1.0170    0.0000 C.ar    1  LIG1        0.2009
      2 C           0.5330   -2.0040    0.0000 C.ar    1  LIG1        0.4068
      3 N           1.4920   -2.3210    0.0000 N.ar    1  LIG1        0.1287
      4 C           2.0670   -1.5080    0.0000 C.ar    1  LIG1        0.4758
      5 N           1.4920   -0.6880    0.0000 N.ar    1  LIG1       -0.1628
      6 N          -0.3290   -2.4960    0.0000 N.ar    1  LIG1       -0.1562
      7 C          -1.1960   -2.0040    0.0000 C.ar    1  LIG1        0.2051
      8 N          -1.1960   -1.0170    0.0000 N.ar    1  LIG1       -0.2157
      9 C          -0.3290   -0.5170    0.0000 C.ar    1  LIG1        0.1344
     10 S          -0.3290    0.5000    0.0000 S.3     1  LIG1       -0.0871
     11 C          -1.1960    0.9960    0.0000 C.3     1  LIG1        0.1051
     12 C          -1.1960    1.9830    0.0000 C.2     1  LIG1        0.0616
     13 O          -2.0710    2.4790    0.0000 O.co2   1  LIG1       -0.5483
     14 O          -0.3290    2.5000    0.0000 O.co2   1  LIG1       -0.5483
@<TRIPOS>BOND
     1     1     2   ar
     2     1     5   ar
     3     1     9   ar
     4     2     3   ar
     5     2     6   ar
     6     3     4   ar
     7     4     5   ar
     8     6     7   ar
     9     7     8   ar
    10     8     9   ar
    11     9    10    1
    12    10    11    1
    13    11    12    1
    14    12    13   ar
    15    12    14   ar
