@<TRIPOS>MOLECULE
26835_ChemDiv_1537-0012
 23 25 0 0 0
SMALL
GASTEIGER
Energy = 0

@<TRIPOS>ATOM
      1 C          -1.7210   -0.9960    0.0000 C.ar    1  LIG1        0.1422
      2 C          -1.7210   -2.0290    0.0000 C.ar    1  LIG1        0.1853
      3 N          -0.7460   -2.3130    0.0000 N.ar    1  LIG1       -0.2032
      4 C          -0.1540   -1.4580    0.0000 C.ar    1  LIG1        0.2004
      5 N          -0.7830   -0.7040    0.0000 N.ar    1  LIG1       -0.2188
      6 N          -2.5960   -2.5290    0.0000 N.ar    1  LIG1       -0.2032
      7 C          -3.4630   -2.0290    0.0000 C.ar    1  LIG1        0.2008
      8 N          -3.4630   -0.9960    0.0000 N.ar    1  LIG1       -0.2160
      9 C          -2.5960   -0.5080    0.0000 C.ar    1  LIG1        0.1292
     10 S          -2.5960    0.4960    0.0000 S.3     1  LIG1       -0.0894
     11 C          -1.7330    0.9960    0.0000 C.3     1  LIG1        0.1109
     12 C          -0.8710    0.5170    0.0000 C.3     1  LIG1        0.2174
     13 O          -0.0250    1.0330    0.0000 O.3     1  LIG1       -0.4748
     14 C           0.8420    0.5420    0.0000 C.ar    1  LIG1        0.1345
     15 C           1.7000    1.0290    0.0000 C.ar    1  LIG1        0.0111
     16 C           2.5670    0.5420    0.0000 C.ar    1  LIG1       -0.0055
     17 C           2.5830   -0.4460    0.0000 C.ar    1  LIG1       -0.0220
     18 C           1.7080   -0.9500    0.0000 C.ar    1  LIG1       -0.0012
     19 C           0.8540   -0.4540    0.0000 C.ar    1  LIG1        0.0362
     20 C           3.4580   -0.9250    0.0000 C.3     1  LIG1        0.0310
     21 C           1.7000    2.0250    0.0000 C.3     1  LIG1        0.0253
     22 C           2.5580    2.5250    0.0000 C.3     1  LIG1        0.0048
     23 C           0.8500    2.5330    0.0000 C.3     1  LIG1        0.0048
@<TRIPOS>BOND
     1     1     2   ar
     2     1     5   ar
     3     1     9   ar
     4     2     3   ar
     5     2     6   ar
     6     3     4   ar
     7     4     5   ar
     8     6     7   ar
     9     7     8   ar
    10     8     9   ar
    11     9    10    1
    12    10    11    1
    13    11    12    1
    14    12    13    1
    15    13    14    1
    16    14    15   ar
    17    14    19   ar
    18    15    16   ar
    19    15    21    1
    20    16    17   ar
    21    17    18   ar
    22    17    20    1
    23    18    19   ar
    24    21    22    1
    25    21    23    1
