@<TRIPOS>MOLECULE
26838_ChemDiv_1586-0034
 25 27 0 0 0
SMALL
GASTEIGER
Energy = 0

@<TRIPOS>ATOM
      1 C          -1.8750    1.2710    0.0000 C.ar    1  LIG1        0.1714
      2 N          -2.4710    0.4710    0.0000 N.ar    1  LIG1       -0.3061
      3 C          -3.4000    0.7630    0.0000 C.ar    1  LIG1        0.0792
      4 C          -3.4000    1.7880    0.0000 C.ar    1  LIG1        0.0992
      5 N          -2.4710    2.0830    0.0000 N.ar    1  LIG1       -0.2211
      6 C          -4.2670    2.2960    0.0000 C.ar    1  LIG1        0.0206
      7 C          -5.1330    1.7880    0.0000 C.ar    1  LIG1        0.0016
      8 C          -5.1330    0.7630    0.0000 C.ar    1  LIG1        0.0016
      9 C          -4.2670    0.2630    0.0000 C.ar    1  LIG1        0.0188
     10 C          -2.1290   -0.4920    0.0000 C.3     1  LIG1        0.1139
     11 C          -1.1500   -0.6630    0.0000 C.3     1  LIG1        0.0662
     12 C          -0.8080   -1.5920    0.0000 C.2     1  LIG1        0.0523
     13 O           0.1830   -1.7500    0.0000 O.co2   1  LIG1       -0.5491
     14 O          -1.4750   -2.2920    0.0000 O.co2   1  LIG1       -0.5491
     15 S          -0.8790    1.2710    0.0000 S.3     1  LIG1       -0.0734
     16 C          -0.3710    0.4000    0.0000 C.3     1  LIG1        0.1123
     17 C           0.6330    0.4000    0.0000 C.3     1  LIG1        0.2174
     18 O           1.1290   -0.4670    0.0000 O.3     1  LIG1       -0.4745
     19 C           2.1330   -0.4670    0.0000 C.ar    1  LIG1        0.1386
     20 C           2.6330   -1.3290    0.0000 C.ar    1  LIG1        0.0366
     21 C           3.6330   -1.3290    0.0000 C.ar    1  LIG1       -0.0011
     22 C           4.1330   -0.4670    0.0000 C.ar    1  LIG1       -0.0217
     23 C           3.6330    0.4000    0.0000 C.ar    1  LIG1       -0.0011
     24 C           2.6330    0.4000    0.0000 C.ar    1  LIG1        0.0366
     25 C           5.1290   -0.4670    0.0000 C.3     1  LIG1        0.0310
@<TRIPOS>BOND
     1     1     2   ar
     2     1     5   ar
     3     1    15    1
     4     2     3   ar
     5     2    10    1
     6     3     4   ar
     7     3     9   ar
     8     4     5   ar
     9     4     6   ar
    10     6     7   ar
    11     7     8   ar
    12     8     9   ar
    13    10    11    1
    14    11    12    1
    15    12    13   ar
    16    12    14   ar
    17    15    16    1
    18    16    17    1
    19    17    18    1
    20    18    19    1
    21    19    20   ar
    22    19    24   ar
    23    20    21   ar
    24    21    22   ar
    25    22    23   ar
    26    22    25    1
    27    23    24   ar
