@<TRIPOS>MOLECULE
26837_ChemDiv_3874-0007
 24 26 0 0 0
SMALL
GASTEIGER
Energy = 0

@<TRIPOS>ATOM
      1 N           1.2830    1.2710    0.0000 N.ar    1  LIG1       -0.2647
      2 C           0.4170    0.7710    0.0000 C.ar    1  LIG1        0.1621
      3 C          -0.4460    1.2710    0.0000 C.ar    1  LIG1        0.1249
      4 C          -0.4460    2.2670    0.0000 C.ar    1  LIG1        0.2698
      5 N           0.4170    2.7710    0.0000 N.ar    1  LIG1       -0.2466
      6 C           1.2830    2.2670    0.0000 C.ar    1  LIG1        0.3348
      7 O           2.1750    2.7710    0.0000 O.2     1  LIG1       -0.2462
      8 C           0.4170    3.7540    0.0000 C.3     1  LIG1        0.1382
      9 O          -1.3290    2.7710    0.0000 O.2     1  LIG1       -0.2667
     10 C          -1.3130    0.7710    0.0000 C.2     1  LIG1        0.1917
     11 C          -1.3130   -0.2330    0.0000 C.3     1  LIG1        0.1328
     12 S          -0.4460   -0.7500    0.0000 S.3     1  LIG1       -0.0848
     13 C          -0.4460   -1.7460    0.0000 C.ar    1  LIG1        0.1344
     14 C           0.4170   -2.2500    0.0000 C.ar    1  LIG1        0.2009
     15 C           0.4170   -3.2500    0.0000 C.ar    1  LIG1        0.4068
     16 N           1.3630   -3.5580    0.0000 N.ar    1  LIG1        0.1287
     17 C           1.9420   -2.7500    0.0000 C.ar    1  LIG1        0.4758
     18 N           1.3630   -1.9380    0.0000 N.ar    1  LIG1       -0.1628
     19 N          -0.4460   -3.7500    0.0000 N.ar    1  LIG1       -0.1562
     20 C          -1.3130   -3.2500    0.0000 C.ar    1  LIG1        0.2051
     21 N          -1.3130   -2.2500    0.0000 N.ar    1  LIG1       -0.2157
     22 O          -2.1790    1.2710    0.0000 O.2     1  LIG1       -0.2901
     23 N           0.4170   -0.2330    0.0000 N.pl3   1  LIG1       -0.1086
     24 C           2.1500    0.7710    0.0000 C.3     1  LIG1        0.1364
@<TRIPOS>BOND
     1     1     2   ar
     2     1     6   ar
     3     1    24    1
     4     2     3   ar
     5     2    23    1
     6     3     4   ar
     7     3    10    1
     8     4     5   ar
     9     4     9    2
    10     5     6   ar
    11     5     8    1
    12     6     7    2
    13    10    11    1
    14    10    22    2
    15    11    12    1
    16    12    13    1
    17    13    14   ar
    18    13    21   ar
    19    14    15   ar
    20    14    18   ar
    21    15    16   ar
    22    15    19   ar
    23    16    17   ar
    24    17    18   ar
    25    19    20   ar
    26    20    21   ar
