@<TRIPOS>MOLECULE
26841_ChemDiv_4327-3314
 14 15 0 0 0
SMALL
GASTEIGER
Energy = 0

@<TRIPOS>ATOM
      1 C           0.5880   -0.9920    0.0000 C.ar    1  LIG1        0.2009
      2 C           0.5880   -2.0000    0.0000 C.ar    1  LIG1        0.4068
      3 N           1.5040   -2.3130    0.0000 N.ar    1  LIG1        0.1287
      4 C           2.0960   -1.5080    0.0000 C.ar    1  LIG1        0.4758
      5 N           1.5040   -0.6790    0.0000 N.ar    1  LIG1       -0.1628
      6 N          -0.2960   -2.5080    0.0000 N.ar    1  LIG1       -0.1562
      7 C          -1.1460   -2.0000    0.0000 C.ar    1  LIG1        0.2051
      8 N          -1.1460   -0.9920    0.0000 N.ar    1  LIG1       -0.2157
      9 C          -0.2960   -0.4920    0.0000 C.ar    1  LIG1        0.1345
     10 S          -0.3170    0.5170    0.0000 S.3     1  LIG1       -0.0832
     11 C          -1.1960    0.9960    0.0000 C.3     1  LIG1        0.1518
     12 C          -1.2210    2.0000    0.0000 C.2     1  LIG1        0.2721
     13 O          -2.1000    2.4880    0.0000 O.2     1  LIG1       -0.2707
     14 N          -0.3670    2.5130    0.0000 N.am    1  LIG1       -0.0870
@<TRIPOS>BOND
     1     1     2   ar
     2     1     5   ar
     3     1     9   ar
     4     2     3   ar
     5     2     6   ar
     6     3     4   ar
     7     4     5   ar
     8     6     7   ar
     9     7     8   ar
    10     8     9   ar
    11     9    10    1
    12    10    11    1
    13    11    12    1
    14    12    13    2
    15    12    14   am
