@<TRIPOS>MOLECULE
26844_ChemDiv_8017-8439
 28 31 0 0 0
SMALL
GASTEIGER
Energy = 0

@<TRIPOS>ATOM
      1 C          -0.8040   -1.7540    0.0000 C.ar    1  LIG1        0.1310
      2 C          -0.7960   -2.7630    0.0000 C.ar    1  LIG1        0.3502
      3 O          -1.6580   -3.2670    0.0000 O.2     1  LIG1       -0.4209
      4 C          -2.5420   -2.7540    0.0000 C.ar    1  LIG1        0.1487
      5 C          -2.5290   -1.7540    0.0000 C.ar    1  LIG1        0.0359
      6 C          -1.6670   -1.2540    0.0000 C.ar    1  LIG1        0.0142
      7 C          -3.3960   -1.2500    0.0000 C.ar    1  LIG1        0.0144
      8 C          -4.2670   -1.7420    0.0000 C.ar    1  LIG1        0.0579
      9 C          -4.2670   -2.7540    0.0000 C.ar    1  LIG1        0.0145
     10 C          -3.4040   -3.2540    0.0000 C.ar    1  LIG1        0.0385
     11 CL         -5.1290   -1.2420    0.0000 Cl      1  LIG1       -0.0822
     12 O           0.0710   -3.2630    0.0000 O.2     1  LIG1       -0.2443
     13 C           0.0710   -1.2630    0.0000 C.2     1  LIG1        0.2714
     14 N           0.9380   -1.7630    0.0000 N.am    1  LIG1       -0.1987
     15 C           1.9380   -1.7630    0.0000 C.3     1  LIG1        0.1178
     16 C           2.4380   -0.8920    0.0000 C.ar    1  LIG1       -0.0025
     17 C           1.9380   -0.0420    0.0000 C.ar    1  LIG1       -0.0011
     18 C           2.4290    0.8210    0.0000 C.ar    1  LIG1        0.0173
     19 C           3.4290    0.8210    0.0000 C.ar    1  LIG1        0.0655
     20 N           3.9290    1.6960    0.0000 N.ar    1  LIG1       -0.2864
     21 C           4.9170    1.7960    0.0000 C.ar    1  LIG1        0.1828
     22 N           5.1250    2.7710    0.0000 N.ar    1  LIG1       -0.2220
     23 C           4.2630    3.2710    0.0000 C.ar    1  LIG1        0.1196
     24 C           3.5170    2.6000    0.0000 C.ar    1  LIG1        0.1022
     25 C           3.9290   -0.0420    0.0000 C.ar    1  LIG1        0.0173
     26 C           3.4290   -0.9040    0.0000 C.ar    1  LIG1       -0.0011
     27 C           2.4420   -2.6250    0.0000 C.3     1  LIG1        0.0283
     28 O           0.0710   -0.2540    0.0000 O.2     1  LIG1       -0.2681
@<TRIPOS>BOND
     1     1     2   ar
     2     1     6   ar
     3     1    13    1
     4     2     3   ar
     5     2    12    2
     6     3     4   ar
     7     4     5   ar
     8     4    10   ar
     9     5     6   ar
    10     5     7   ar
    11     7     8   ar
    12     8     9   ar
    13     8    11    1
    14     9    10   ar
    15    13    14   am
    16    13    28    2
    17    14    15    1
    18    15    16    1
    19    15    27    1
    20    16    17   ar
    21    16    26   ar
    22    17    18   ar
    23    18    19   ar
    24    19    20    1
    25    19    25   ar
    26    20    21   ar
    27    20    24   ar
    28    21    22   ar
    29    22    23   ar
    30    23    24   ar
    31    25    26   ar
