@<TRIPOS>MOLECULE
26840_ChemDiv_2001-0102
 28 30 0 0 0
SMALL
GASTEIGER
Energy = 0

@<TRIPOS>ATOM
      1 C          -1.8920    1.0670    0.0000 C.ar    1  LIG1        0.1714
      2 N          -2.4710    0.2580    0.0000 N.ar    1  LIG1       -0.3038
      3 C          -3.4250    0.5580    0.0000 C.ar    1  LIG1        0.0793
      4 C          -3.4250    1.5540    0.0000 C.ar    1  LIG1        0.0992
      5 N          -2.4710    1.8710    0.0000 N.ar    1  LIG1       -0.2211
      6 C          -4.2750    2.0630    0.0000 C.ar    1  LIG1        0.0206
      7 C          -5.1420    1.5540    0.0000 C.ar    1  LIG1        0.0016
      8 C          -5.1420    0.5580    0.0000 C.ar    1  LIG1        0.0016
      9 C          -4.2750    0.0670    0.0000 C.ar    1  LIG1        0.0188
     10 C          -2.1500   -0.7000    0.0000 C.3     1  LIG1        0.1435
     11 C          -1.1670   -0.9130    0.0000 C.3     1  LIG1        0.2072
     12 O          -0.5080   -0.1670    0.0000 O.3     1  LIG1       -0.2182
     13 C          -0.8500   -1.8460    0.0000 C.3     1  LIG1        0.2168
     14 O           0.1080   -2.0580    0.0000 O.3     1  LIG1       -0.2175
     15 S          -0.8960    1.0670    0.0000 S.3     1  LIG1       -0.0734
     16 C          -0.4040    0.2000    0.0000 C.3     1  LIG1        0.1123
     17 C           0.6130    0.2000    0.0000 C.3     1  LIG1        0.2174
     18 O           1.1250   -0.6500    0.0000 O.3     1  LIG1       -0.4748
     19 C           2.1250   -0.6500    0.0000 C.ar    1  LIG1        0.1345
     20 C           2.6290    0.2000    0.0000 C.ar    1  LIG1        0.0111
     21 C           3.6330    0.2000    0.0000 C.ar    1  LIG1       -0.0055
     22 C           4.1420   -0.6500    0.0000 C.ar    1  LIG1       -0.0220
     23 C           3.6330   -1.5500    0.0000 C.ar    1  LIG1       -0.0012
     24 C           2.6290   -1.5500    0.0000 C.ar    1  LIG1        0.0362
     25 C           5.1380   -0.6500    0.0000 C.3     1  LIG1        0.0310
     26 C           2.1000    1.0670    0.0000 C.3     1  LIG1        0.0253
     27 C           2.5880    1.9380    0.0000 C.3     1  LIG1        0.0048
     28 C           1.1040    1.0500    0.0000 C.3     1  LIG1        0.0048
@<TRIPOS>BOND
     1     1     2   ar
     2     1     5   ar
     3     1    15    1
     4     2     3   ar
     5     2    10    1
     6     3     4   ar
     7     3     9   ar
     8     4     5   ar
     9     4     6   ar
    10     6     7   ar
    11     7     8   ar
    12     8     9   ar
    13    10    11    1
    14    11    12    1
    15    11    13    1
    16    13    14    1
    17    15    16    1
    18    16    17    1
    19    17    18    1
    20    18    19    1
    21    19    20   ar
    22    19    24   ar
    23    20    21   ar
    24    20    26    1
    25    21    22   ar
    26    22    23   ar
    27    22    25    1
    28    23    24   ar
    29    26    27    1
    30    26    28    1
