@<TRIPOS>MOLECULE
26845_ChemDiv_8008-5023
 23 26 0 0 0
SMALL
GASTEIGER
Energy = 0

@<TRIPOS>ATOM
      1 C           2.2580   -0.3830    0.0000 C.ar    1  LIG1        0.1422
      2 C           3.1040   -0.8750    0.0000 C.ar    1  LIG1        0.1853
      3 N           2.9040   -1.8750    0.0000 N.ar    1  LIG1       -0.2032
      4 C           1.8830   -1.9210    0.0000 C.ar    1  LIG1        0.2004
      5 N           1.4790   -1.0130    0.0000 N.ar    1  LIG1       -0.2188
      6 N           3.9960   -0.3960    0.0000 N.ar    1  LIG1       -0.2032
      7 C           3.9960    0.5880    0.0000 C.ar    1  LIG1        0.2008
      8 N           3.1500    1.0920    0.0000 N.ar    1  LIG1       -0.2160
      9 C           2.2580    0.6040    0.0000 C.ar    1  LIG1        0.1295
     10 S           1.3880    1.1040    0.0000 S.3     1  LIG1       -0.0850
     11 C           0.5380    0.6540    0.0000 C.3     1  LIG1        0.1325
     12 C          -0.3250    1.1670    0.0000 C.2     1  LIG1        0.1843
     13 C          -1.2380    0.7130    0.0000 C.ar    1  LIG1        0.0356
     14 C          -1.2830   -0.3210    0.0000 C.ar    1  LIG1        0.0029
     15 C          -2.1920   -0.7210    0.0000 C.ar    1  LIG1        0.0001
     16 C          -3.0380   -0.1670    0.0000 C.ar    1  LIG1        0.0000
     17 C          -2.9630    0.8250    0.0000 C.ar    1  LIG1        0.0001
     18 C          -2.0540    1.2460    0.0000 C.ar    1  LIG1        0.0029
     19 C          -3.9460   -0.5960    0.0000 C.ar    1  LIG1        0.0000
     20 C          -4.0000   -1.6130    0.0000 C.ar    1  LIG1        0.0000
     21 C          -3.2080   -2.1500    0.0000 C.ar    1  LIG1        0.0000
     22 C          -2.2710   -1.7210    0.0000 C.ar    1  LIG1        0.0000
     23 O          -0.2830    2.1540    0.0000 O.2     1  LIG1       -0.2904
@<TRIPOS>BOND
     1     1     2   ar
     2     1     5   ar
     3     1     9   ar
     4     2     3   ar
     5     2     6   ar
     6     3     4   ar
     7     4     5   ar
     8     6     7   ar
     9     7     8   ar
    10     8     9   ar
    11     9    10    1
    12    10    11    1
    13    11    12    1
    14    12    13    1
    15    12    23    2
    16    13    14   ar
    17    13    18   ar
    18    14    15   ar
    19    15    16   ar
    20    15    22   ar
    21    16    17   ar
    22    16    19   ar
    23    17    18   ar
    24    19    20   ar
    25    20    21   ar
    26    21    22   ar
