@<TRIPOS>MOLECULE
26843_ChemDiv_6220-1337
 22 23 0 0 0
SMALL
GASTEIGER
Energy = 0

@<TRIPOS>ATOM
      1 C           2.2710   -1.1750    0.0000 C.ar    1  LIG1        0.2009
      2 C           2.2710   -2.1790    0.0000 C.ar    1  LIG1        0.4068
      3 N           3.2210   -2.4750    0.0000 N.ar    1  LIG1        0.1287
      4 C           3.7960   -1.7170    0.0000 C.ar    1  LIG1        0.4758
      5 N           3.2210   -0.8750    0.0000 N.ar    1  LIG1       -0.1628
      6 N           1.4040   -2.6960    0.0000 N.ar    1  LIG1       -0.1562
      7 C           0.5380   -2.1790    0.0000 C.ar    1  LIG1        0.2051
      8 N           0.5380   -1.1750    0.0000 N.ar    1  LIG1       -0.2157
      9 C           1.4040   -0.6880    0.0000 C.ar    1  LIG1        0.1345
     10 S           1.4040    0.3130    0.0000 S.3     1  LIG1       -0.0833
     11 C           0.5380    0.8250    0.0000 C.3     1  LIG1        0.1501
     12 C           0.5380    1.8290    0.0000 C.2     1  LIG1        0.2527
     13 N          -0.3290    2.3170    0.0000 N.am    1  LIG1       -0.2081
     14 C          -1.1960    1.8290    0.0000 C.3     1  LIG1        0.0788
     15 C          -2.0630    1.3170    0.0000 C.3     1  LIG1        0.0200
     16 C          -2.9330    1.8290    0.0000 C.3     1  LIG1        0.0016
     17 C          -3.4460    0.9670    0.0000 C.3     1  LIG1        0.0001
     18 C          -2.4420    2.7000    0.0000 C.3     1  LIG1        0.0001
     19 C          -3.8000    2.3170    0.0000 C.3     1  LIG1        0.0001
     20 C          -1.7080    2.7000    0.0000 C.3     1  LIG1        0.0217
     21 C          -0.7080    0.9670    0.0000 C.3     1  LIG1        0.0217
     22 O           1.4040    2.3170    0.0000 O.2     1  LIG1       -0.2724
@<TRIPOS>BOND
     1     1     2   ar
     2     1     5   ar
     3     1     9   ar
     4     2     3   ar
     5     2     6   ar
     6     3     4   ar
     7     4     5   ar
     8     6     7   ar
     9     7     8   ar
    10     8     9   ar
    11     9    10    1
    12    10    11    1
    13    11    12    1
    14    12    13   am
    15    12    22    2
    16    13    14    1
    17    14    15    1
    18    14    20    1
    19    14    21    1
    20    15    16    1
    21    16    17    1
    22    16    18    1
    23    16    19    1
