@<TRIPOS>MOLECULE
26849_ChemDiv_8010-0321
 21 24 0 0 0
SMALL
GASTEIGER
Energy = 0

@<TRIPOS>ATOM
      1 C          -0.4500    0.8880    0.0000 C.3     1  LIG1        0.0786
      2 C          -1.6960   -0.1000    0.0000 C.3     1  LIG1        0.0091
      3 C          -1.3330    0.6420    0.0000 C.3     1  LIG1        0.0091
      4 C          -2.2790    1.2250    0.0000 C.3     1  LIG1        0.0005
      5 C          -2.4710    2.2130    0.0000 C.3     1  LIG1        0.0000
      6 C          -2.5750    0.3500    0.0000 C.3     1  LIG1        0.0005
      7 C          -3.5170   -0.1000    0.0000 C.3     1  LIG1        0.0000
      8 C          -3.0630    0.6920    0.0000 C.3     1  LIG1        0.0000
      9 C           0.3420    0.4250    0.0000 C.2     1  LIG1        0.2452
     10 N           1.1130    0.8880    0.0000 N.am    1  LIG1       -0.1760
     11 C           1.9210    0.4420    0.0000 C.ar    1  LIG1        0.1102
     12 C           1.9130   -0.4630    0.0000 C.ar    1  LIG1        0.0566
     13 C           2.7040   -0.9330    0.0000 C.ar    1  LIG1        0.1402
     14 C           3.5130   -0.4790    0.0000 C.ar    1  LIG1        0.0401
     15 C           3.5130    0.4420    0.0000 C.ar    1  LIG1        0.0414
     16 C           2.7130    0.9130    0.0000 C.ar    1  LIG1        0.1541
     17 O           2.7130    1.8250    0.0000 O.3     1  LIG1       -0.4701
     18 C           3.4960    2.2880    0.0000 C.3     1  LIG1        0.2525
     19 O           2.7040   -1.8290    0.0000 O.3     1  LIG1       -0.4714
     20 C           1.9130   -2.2830    0.0000 C.3     1  LIG1        0.2525
     21 O           0.3420   -0.4790    0.0000 O.2     1  LIG1       -0.2730
@<TRIPOS>BOND
     1     1     2    1
     2     1     3    1
     3     1     9    1
     4     2     3    1
     5     2     6    1
     6     3     4    1
     7     4     5    1
     8     4     8    1
     9     5     6    1
    10     6     7    1
    11     7     8    1
    12     9    10   am
    13     9    21    2
    14    10    11    1
    15    11    12   ar
    16    11    16   ar
    17    12    13   ar
    18    13    14   ar
    19    13    19    1
    20    14    15   ar
    21    15    16   ar
    22    16    17    1
    23    17    18    1
    24    19    20    1
