@<TRIPOS>MOLECULE
26847_ChemDiv_8009-2979
 17 18 0 0 0
SMALL
GASTEIGER
Energy = 0

@<TRIPOS>ATOM
      1 N           0.2540    0.8130    0.0000 N.ar    1  LIG1       -0.2445
      2 C          -0.2250    0.0000    0.0000 C.ar    1  LIG1        0.1707
      3 C          -1.1750    0.0000    0.0000 C.ar    1  LIG1        0.1406
      4 N          -1.6540    0.8130    0.0000 N.ar    1  LIG1       -0.2201
      5 C          -0.2250    1.6460    0.0000 C.ar    1  LIG1        0.1841
      6 C          -1.6540   -0.8130    0.0000 C.ar    1  LIG1        0.1291
      7 N          -1.1750   -1.6420    0.0000 N.ar    1  LIG1       -0.2160
      8 C          -0.2500   -1.6420    0.0000 C.ar    1  LIG1        0.2008
      9 N           0.2460   -0.8130    0.0000 N.ar    1  LIG1       -0.2047
     10 S          -2.6580   -0.8130    0.0000 S.3     1  LIG1       -0.0924
     11 C          -3.1750    0.0460    0.0000 C.3     1  LIG1        0.0757
     12 C           1.2880    0.8250    0.0000 C.3     1  LIG1        0.2602
     13 N           1.7210    0.0170    0.0000 N.4     1  LIG1        0.3956
     14 C           1.2250   -0.8130    0.0000 C.3     1  LIG1        0.1416
     15 C           1.7000   -1.6420    0.0000 C.3     1  LIG1        0.0689
     16 C           2.6710    0.0170    0.0000 C.3     1  LIG1        0.1416
     17 C           3.1710   -0.8380    0.0000 C.3     1  LIG1        0.0689
@<TRIPOS>BOND
     1     1     2   ar
     2     1     5   ar
     3     1    12    1
     4     2     3   ar
     5     2     9   ar
     6     3     4   ar
     7     3     6   ar
     8     4     5   ar
     9     6     7   ar
    10     6    10    1
    11     7     8   ar
    12     8     9   ar
    13    10    11    1
    14    12    13    1
    15    13    14    1
    16    13    16    1
    17    14    15    1
    18    16    17    1
