@<TRIPOS>MOLECULE
26848_ChemDiv_1606-0312
 32 35 0 0 0
SMALL
GASTEIGER
Energy = 0

@<TRIPOS>ATOM
      1 N          -1.1670   -0.3290    0.0000 N.am    1  LIG1       -0.2011
      2 C          -0.6290    0.4000    0.0000 C.2     1  LIG1        0.2589
      3 C           0.3040    0.1460    0.0000 C.ar    1  LIG1        0.0588
      4 C           0.3040   -0.9080    0.0000 C.ar    1  LIG1        0.0587
      5 C          -0.6290   -1.2080    0.0000 C.2     1  LIG1        0.2589
      6 O          -0.9460   -2.1500    0.0000 O.2     1  LIG1       -0.2691
      7 C           1.1790   -1.4000    0.0000 C.ar    1  LIG1        0.0048
      8 C           2.0920   -0.9080    0.0000 C.ar    1  LIG1        0.0047
      9 C           2.0920    0.1460    0.0000 C.ar    1  LIG1        0.0555
     10 C           2.9290    0.6460    0.0000 C.2     1  LIG1        0.2691
     11 N           3.7920    0.1630    0.0000 N.am    1  LIG1       -0.1724
     12 C           4.6880    0.6460    0.0000 C.ar    1  LIG1        0.1075
     13 C           5.5580    0.1460    0.0000 C.ar    1  LIG1        0.1539
     14 O           5.5630   -0.8420    0.0000 O.3     1  LIG1       -0.4701
     15 C           4.6630   -1.3000    0.0000 C.3     1  LIG1        0.2525
     16 C           6.4420    0.5540    0.0000 C.ar    1  LIG1        0.0383
     17 C           6.4420    1.6670    0.0000 C.ar    1  LIG1        0.0032
     18 C           5.5580    2.1540    0.0000 C.ar    1  LIG1        0.0015
     19 C           4.6880    1.6670    0.0000 C.ar    1  LIG1        0.0197
     20 O           2.9290    1.6670    0.0000 O.2     1  LIG1       -0.2680
     21 C           1.1790    0.6250    0.0000 C.ar    1  LIG1        0.0093
     22 O          -0.9750    1.3750    0.0000 O.2     1  LIG1       -0.2691
     23 C          -2.1330   -0.3290    0.0000 C.ar    1  LIG1        0.0612
     24 C          -2.6460   -1.2250    0.0000 C.ar    1  LIG1        0.0155
     25 C          -3.6250   -1.2250    0.0000 C.ar    1  LIG1        0.0077
     26 C          -4.1080   -0.3290    0.0000 C.ar    1  LIG1        0.0757
     27 C          -5.0380   -0.3290    0.0000 C.2     1  LIG1        0.3413
     28 O          -5.6250   -1.1080    0.0000 O.2     1  LIG1       -0.2449
     29 O          -5.4540    0.6000    0.0000 O.3     1  LIG1       -0.4413
     30 C          -6.4420    0.6000    0.0000 C.3     1  LIG1        0.2560
     31 C          -3.6080    0.4790    0.0000 C.ar    1  LIG1        0.0077
     32 C          -2.6460    0.4790    0.0000 C.ar    1  LIG1        0.0155
@<TRIPOS>BOND
     1     1     2   am
     2     1     5   am
     3     1    23    1
     4     2     3    1
     5     2    22    2
     6     3     4   ar
     7     3    21   ar
     8     4     5    1
     9     4     7   ar
    10     5     6    2
    11     7     8   ar
    12     8     9   ar
    13     9    10    1
    14     9    21   ar
    15    10    11   am
    16    10    20    2
    17    11    12    1
    18    12    13   ar
    19    12    19   ar
    20    13    14    1
    21    13    16   ar
    22    14    15    1
    23    16    17   ar
    24    17    18   ar
    25    18    19   ar
    26    23    24   ar
    27    23    32   ar
    28    24    25   ar
    29    25    26   ar
    30    26    27    1
    31    26    31   ar
    32    27    28    2
    33    27    29    1
    34    29    30    1
    35    31    32   ar
