@<TRIPOS>MOLECULE
26851_ChemDiv_K808-0166
 18 20 0 0 0
SMALL
GASTEIGER
Energy = 0

@<TRIPOS>ATOM
      1 C          -1.3420    0.8420    0.0000 C.2     1  LIG1        0.2456
      2 N          -0.8250    0.0000    0.0000 N.am    1  LIG1       -0.1792
      3 C          -0.1960   -0.7880    0.0000 C.ar    1  LIG1        0.0731
      4 C          -0.5830   -1.7000    0.0000 C.ar    1  LIG1        0.0123
      5 C           0.0380   -2.5000    0.0000 C.ar    1  LIG1       -0.0206
      6 C           1.0080   -2.3670    0.0000 C.ar    1  LIG1       -0.0042
      7 C           1.3880   -1.4380    0.0000 C.ar    1  LIG1        0.0010
      8 C           0.7790   -0.6540    0.0000 C.ar    1  LIG1        0.0166
      9 C          -0.3460   -3.4250    0.0000 C.3     1  LIG1        0.0311
     10 C          -0.8420    1.7380    0.0000 C.3     1  LIG1        0.0872
     11 C           0.1920    1.7630    0.0000 C.3     1  LIG1        0.0091
     12 C           1.0790    2.3920    0.0000 C.3     1  LIG1        0.0005
     13 C           2.3580    1.7790    0.0000 C.3     1  LIG1        0.0000
     14 C           1.6920    1.8460    0.0000 C.3     1  LIG1        0.0000
     15 C           0.8420    1.3290    0.0000 C.3     1  LIG1        0.0005
     16 C           1.8830    2.9790    0.0000 C.3     1  LIG1        0.0000
     17 C           1.2170    3.4290    0.0000 C.3     1  LIG1        0.0000
     18 O          -2.3630    0.8290    0.0000 O.2     1  LIG1       -0.2730
@<TRIPOS>BOND
     1     1     2   am
     2     1    10    1
     3     1    18    2
     4     2     3    1
     5     3     4   ar
     6     3     8   ar
     7     4     5   ar
     8     5     6   ar
     9     5     9    1
    10     6     7   ar
    11     7     8   ar
    12    10    11    1
    13    11    12    1
    14    11    15    1
    15    12    13    1
    16    12    17    1
    17    13    14    1
    18    14    15    1
    19    14    16    1
    20    16    17    1
