@<TRIPOS>MOLECULE
26866_ChemDiv_1708-0041
 39 43 0 0 0
SMALL
GASTEIGER
Energy = 0

@<TRIPOS>ATOM
      1 N           0.2000   -0.4460    0.0000 N.am    1  LIG1       -0.2011
      2 C          -0.4040    0.3080    0.0000 C.2     1  LIG1        0.2589
      3 C          -1.3420    0.0130    0.0000 C.ar    1  LIG1        0.0588
      4 C          -1.3420   -0.9920    0.0000 C.ar    1  LIG1        0.0587
      5 C          -0.3880   -1.2790    0.0000 C.2     1  LIG1        0.2589
      6 O          -0.0710   -2.2170    0.0000 O.2     1  LIG1       -0.2691
      7 C          -2.2210   -1.5130    0.0000 C.ar    1  LIG1        0.0048
      8 C          -3.0920   -0.9920    0.0000 C.ar    1  LIG1        0.0047
      9 C          -3.0920    0.0130    0.0000 C.ar    1  LIG1        0.0555
     10 C          -3.9080    0.6170    0.0000 C.2     1  LIG1        0.2690
     11 N          -4.7330    0.1460    0.0000 N.am    1  LIG1       -0.1754
     12 C          -5.5830    0.6250    0.0000 C.ar    1  LIG1        0.0739
     13 C          -6.4710    0.1460    0.0000 C.ar    1  LIG1        0.0197
     14 C          -7.3630    0.6670    0.0000 C.ar    1  LIG1        0.0382
     15 C          -7.3170    1.6830    0.0000 C.ar    1  LIG1        0.1388
     16 C          -6.4290    2.1830    0.0000 C.ar    1  LIG1        0.0382
     17 C          -5.5830    1.6630    0.0000 C.ar    1  LIG1        0.0197
     18 O          -8.1630    2.2210    0.0000 O.3     1  LIG1       -0.4714
     19 C          -9.0500    1.7540    0.0000 C.3     1  LIG1        0.2525
     20 O          -3.9250    1.6460    0.0000 O.2     1  LIG1       -0.2680
     21 C          -2.2210    0.5330    0.0000 C.ar    1  LIG1        0.0093
     22 O          -0.1130    1.2670    0.0000 O.2     1  LIG1       -0.2691
     23 C           1.1920   -0.4460    0.0000 C.ar    1  LIG1        0.0612
     24 C           1.6880   -1.3250    0.0000 C.ar    1  LIG1        0.0155
     25 C           2.7130   -1.3420    0.0000 C.ar    1  LIG1        0.0059
     26 C           3.1960   -0.4710    0.0000 C.ar    1  LIG1        0.0555
     27 C           4.1830   -0.4710    0.0000 C.2     1  LIG1        0.2690
     28 N           4.5630    0.3460    0.0000 N.am    1  LIG1       -0.1754
     29 C           5.5500    0.3460    0.0000 C.ar    1  LIG1        0.0739
     30 C           6.0580    1.1960    0.0000 C.ar    1  LIG1        0.0197
     31 C           7.0460    1.1960    0.0000 C.ar    1  LIG1        0.0382
     32 C           7.5580    0.3290    0.0000 C.ar    1  LIG1        0.1388
     33 C           7.0790   -0.4960    0.0000 C.ar    1  LIG1        0.0382
     34 C           6.0580   -0.4960    0.0000 C.ar    1  LIG1        0.0197
     35 O           8.5750    0.3290    0.0000 O.3     1  LIG1       -0.4714
     36 C           9.0500    1.1790    0.0000 C.3     1  LIG1        0.2525
     37 O           4.7880   -1.3250    0.0000 O.2     1  LIG1       -0.2680
     38 C           2.7290    0.3960    0.0000 C.ar    1  LIG1        0.0059
     39 C           1.6920    0.3960    0.0000 C.ar    1  LIG1        0.0155
@<TRIPOS>BOND
     1     1     2   am
     2     1     5   am
     3     1    23    1
     4     2     3    1
     5     2    22    2
     6     3     4   ar
     7     3    21   ar
     8     4     5    1
     9     4     7   ar
    10     5     6    2
    11     7     8   ar
    12     8     9   ar
    13     9    10    1
    14     9    21   ar
    15    10    11   am
    16    10    20    2
    17    11    12    1
    18    12    13   ar
    19    12    17   ar
    20    13    14   ar
    21    14    15   ar
    22    15    16   ar
    23    15    18    1
    24    16    17   ar
    25    18    19    1
    26    23    24   ar
    27    23    39   ar
    28    24    25   ar
    29    25    26   ar
    30    26    27    1
    31    26    38   ar
    32    27    28   am
    33    27    37    2
    34    28    29    1
    35    29    30   ar
    36    29    34   ar
    37    30    31   ar
    38    31    32   ar
    39    32    33   ar
    40    32    35    1
    41    33    34   ar
    42    35    36    1
    43    38    39   ar
