@<TRIPOS>MOLECULE
26868_ChemDiv_2922-0208
 29 32 0 0 0
SMALL
GASTEIGER
Energy = 0

@<TRIPOS>ATOM
      1 N           1.7250   -0.8170    0.0000 N.am    1  LIG1       -0.2011
      2 C           1.0290   -0.0830    0.0000 C.2     1  LIG1        0.2589
      3 C           0.1170   -0.5460    0.0000 C.ar    1  LIG1        0.0588
      4 C           0.2830   -1.5290    0.0000 C.ar    1  LIG1        0.0587
      5 C           1.2880   -1.6750    0.0000 C.2     1  LIG1        0.2589
      6 O           1.7880   -2.5710    0.0000 O.2     1  LIG1       -0.2691
      7 C          -0.4710   -2.1750    0.0000 C.ar    1  LIG1        0.0048
      8 C          -1.3960   -1.8420    0.0000 C.ar    1  LIG1        0.0047
      9 C          -1.5960   -0.7880    0.0000 C.ar    1  LIG1        0.0555
     10 C          -2.5380   -0.4210    0.0000 C.2     1  LIG1        0.2691
     11 N          -2.6710    0.5500    0.0000 N.am    1  LIG1       -0.1724
     12 C          -3.5710    0.9170    0.0000 C.ar    1  LIG1        0.1075
     13 C          -3.6750    1.9000    0.0000 C.ar    1  LIG1        0.1539
     14 O          -2.9000    2.5750    0.0000 O.3     1  LIG1       -0.4701
     15 C          -2.0170    2.4710    0.0000 C.3     1  LIG1        0.2525
     16 C          -4.6080    2.2960    0.0000 C.ar    1  LIG1        0.0383
     17 C          -5.4080    1.7130    0.0000 C.ar    1  LIG1        0.0032
     18 C          -5.2750    0.7170    0.0000 C.ar    1  LIG1        0.0015
     19 C          -4.3580    0.3210    0.0000 C.ar    1  LIG1        0.0197
     20 O          -3.3130   -1.0460    0.0000 O.2     1  LIG1       -0.2680
     21 C          -0.8040   -0.1830    0.0000 C.ar    1  LIG1        0.0093
     22 O           1.2250    0.9170    0.0000 O.2     1  LIG1       -0.2691
     23 C           2.7000   -0.7130    0.0000 C.ar    1  LIG1        0.0613
     24 C           3.5380   -0.1460    0.0000 C.ar    1  LIG1        0.0158
     25 C           4.4000   -0.5880    0.0000 C.ar    1  LIG1        0.0080
     26 C           4.5040   -1.6250    0.0000 C.ar    1  LIG1        0.0346
     27 C           3.6710   -2.1750    0.0000 C.ar    1  LIG1        0.0080
     28 C           2.7920   -1.7380    0.0000 C.ar    1  LIG1        0.0158
     29 BR          5.4040   -2.1250    0.0000 Br      1  LIG1       -0.0490
@<TRIPOS>BOND
     1     1     2   am
     2     1     5   am
     3     1    23    1
     4     2     3    1
     5     2    22    2
     6     3     4   ar
     7     3    21   ar
     8     4     5    1
     9     4     7   ar
    10     5     6    2
    11     7     8   ar
    12     8     9   ar
    13     9    10    1
    14     9    21   ar
    15    10    11   am
    16    10    20    2
    17    11    12    1
    18    12    13   ar
    19    12    19   ar
    20    13    14    1
    21    13    16   ar
    22    14    15    1
    23    16    17   ar
    24    17    18   ar
    25    18    19   ar
    26    23    24   ar
    27    23    28   ar
    28    24    25   ar
    29    25    26   ar
    30    26    27   ar
    31    26    29    1
    32    27    28   ar
