@<TRIPOS>MOLECULE
26870_ChemDiv_2922-1257
 32 35 0 0 0
SMALL
GASTEIGER
Energy = 0

@<TRIPOS>ATOM
      1 N           3.3040   -0.4080    0.0000 N.am    1  LIG1       -0.2011
      2 C           2.3920   -0.8210    0.0000 C.2     1  LIG1        0.2589
      3 C           1.7210   -0.0710    0.0000 C.ar    1  LIG1        0.0588
      4 C           2.2250    0.7880    0.0000 C.ar    1  LIG1        0.0587
      5 C           3.2130    0.5790    0.0000 C.2     1  LIG1        0.2589
      6 O           3.9670    1.2420    0.0000 O.2     1  LIG1       -0.2691
      7 C           1.7250    1.6670    0.0000 C.ar    1  LIG1        0.0048
      8 C           0.7380    1.6670    0.0000 C.ar    1  LIG1        0.0047
      9 C           0.2250    0.7880    0.0000 C.ar    1  LIG1        0.0555
     10 C          -0.7670    0.8040    0.0000 C.2     1  LIG1        0.2690
     11 N          -1.2500    1.6710    0.0000 N.am    1  LIG1       -0.1754
     12 C          -2.2630    1.6710    0.0000 C.ar    1  LIG1        0.0738
     13 C          -2.7630    0.8170    0.0000 C.ar    1  LIG1        0.0179
     14 C          -3.7630    0.8250    0.0000 C.ar    1  LIG1        0.0179
     15 C          -4.2630    1.6960    0.0000 C.ar    1  LIG1        0.0734
     16 N          -5.2540    1.6960    0.0000 N.am    1  LIG1       -0.1792
     17 C          -5.7540    2.5750    0.0000 C.2     1  LIG1        0.2461
     18 O          -5.2460    3.4290    0.0000 O.2     1  LIG1       -0.2730
     19 C          -6.7580    2.5750    0.0000 C.3     1  LIG1        0.0968
     20 C          -3.7380    2.5630    0.0000 C.ar    1  LIG1        0.0179
     21 C          -2.7460    2.5460    0.0000 C.ar    1  LIG1        0.0179
     22 O          -1.2750   -0.0460    0.0000 O.2     1  LIG1       -0.2680
     23 C           0.7130   -0.0630    0.0000 C.ar    1  LIG1        0.0093
     24 O           2.1670   -1.7880    0.0000 O.2     1  LIG1       -0.2691
     25 C           4.1670   -0.9210    0.0000 C.ar    1  LIG1        0.0614
     26 C           5.0420   -0.4250    0.0000 C.ar    1  LIG1        0.0184
     27 C           5.9040   -0.9210    0.0000 C.ar    1  LIG1        0.0382
     28 C           5.9040   -1.9250    0.0000 C.ar    1  LIG1        0.1388
     29 C           5.0330   -2.4250    0.0000 C.ar    1  LIG1        0.0382
     30 C           4.1670   -1.9130    0.0000 C.ar    1  LIG1        0.0184
     31 O           6.7580   -2.4380    0.0000 O.3     1  LIG1       -0.4714
     32 C           6.7580   -3.4250    0.0000 C.3     1  LIG1        0.2525
@<TRIPOS>BOND
     1     1     2   am
     2     1     5   am
     3     1    25    1
     4     2     3    1
     5     2    24    2
     6     3     4   ar
     7     3    23   ar
     8     4     5    1
     9     4     7   ar
    10     5     6    2
    11     7     8   ar
    12     8     9   ar
    13     9    10    1
    14     9    23   ar
    15    10    11   am
    16    10    22    2
    17    11    12    1
    18    12    13   ar
    19    12    21   ar
    20    13    14   ar
    21    14    15   ar
    22    15    16    1
    23    15    20   ar
    24    16    17   am
    25    17    18    2
    26    17    19    1
    27    20    21   ar
    28    25    26   ar
    29    25    30   ar
    30    26    27   ar
    31    27    28   ar
    32    28    29   ar
    33    28    31    1
    34    29    30   ar
    35    31    32    1
