@<TRIPOS>MOLECULE
26878_ChemDiv_8003-4397
 32 36 0 0 0
SMALL
GASTEIGER
Energy = 0

@<TRIPOS>ATOM
      1 N           2.3880    0.3080    0.0000 N.ar    1  LIG1       -0.2387
      2 C           1.8330   -0.5250    0.0000 C.ar    1  LIG1        0.2672
      3 C           0.8920   -0.2080    0.0000 C.ar    1  LIG1        0.0613
      4 C           0.8920    0.8250    0.0000 C.ar    1  LIG1        0.0613
      5 C           1.8330    1.1540    0.0000 C.ar    1  LIG1        0.2672
      6 O           2.1580    2.0920    0.0000 O.2     1  LIG1       -0.2665
      7 C          -0.0040    1.3210    0.0000 C.ar    1  LIG1        0.0098
      8 C          -0.8670    0.8250    0.0000 C.ar    1  LIG1        0.0613
      9 C          -1.8210    1.1170    0.0000 C.ar    1  LIG1        0.2672
     10 N          -2.3960    0.3080    0.0000 N.ar    1  LIG1       -0.2387
     11 C          -1.8210   -0.5000    0.0000 C.ar    1  LIG1        0.2672
     12 C          -0.8670   -0.2080    0.0000 C.ar    1  LIG1        0.0613
     13 C          -0.0040   -0.6960    0.0000 C.ar    1  LIG1        0.0098
     14 O          -2.1630   -1.4460    0.0000 O.2     1  LIG1       -0.2665
     15 C          -3.3880    0.3080    0.0000 C.ar    1  LIG1        0.1035
     16 C          -3.8920   -0.5540    0.0000 C.ar    1  LIG1        0.1548
     17 O          -3.4290   -1.1880    0.0000 O.3     1  LIG1       -0.4700
     18 C          -4.0790   -1.9960    0.0000 C.3     1  LIG1        0.2525
     19 C          -4.9000   -0.5540    0.0000 C.ar    1  LIG1        0.0384
     20 C          -5.4080    0.3080    0.0000 C.ar    1  LIG1        0.0032
     21 C          -4.9000    1.1880    0.0000 C.ar    1  LIG1        0.0017
     22 C          -3.8830    1.1790    0.0000 C.ar    1  LIG1        0.0208
     23 O          -2.1630    2.0670    0.0000 O.2     1  LIG1       -0.2665
     24 O           2.1580   -1.4790    0.0000 O.2     1  LIG1       -0.2665
     25 C           3.3830    0.3080    0.0000 C.ar    1  LIG1        0.1035
     26 C           3.8710   -0.5540    0.0000 C.ar    1  LIG1        0.1548
     27 O           3.4580   -1.2630    0.0000 O.3     1  LIG1       -0.4700
     28 C           4.3040   -2.0880    0.0000 C.3     1  LIG1        0.2525
     29 C           4.9000   -0.5710    0.0000 C.ar    1  LIG1        0.0384
     30 C           5.4040    0.3080    0.0000 C.ar    1  LIG1        0.0032
     31 C           4.9000    1.1790    0.0000 C.ar    1  LIG1        0.0017
     32 C           3.8920    1.1790    0.0000 C.ar    1  LIG1        0.0208
@<TRIPOS>BOND
     1     1     2   ar
     2     1     5   ar
     3     1    25    1
     4     2     3   ar
     5     2    24    2
     6     3     4   ar
     7     3    13   ar
     8     4     5   ar
     9     4     7   ar
    10     5     6    2
    11     7     8   ar
    12     8     9   ar
    13     8    12   ar
    14     9    10   ar
    15     9    23    2
    16    10    11   ar
    17    10    15    1
    18    11    12   ar
    19    11    14    2
    20    12    13   ar
    21    15    16   ar
    22    15    22   ar
    23    16    17    1
    24    16    19   ar
    25    17    18    1
    26    19    20   ar
    27    20    21   ar
    28    21    22   ar
    29    25    26   ar
    30    25    32   ar
    31    26    27    1
    32    26    29   ar
    33    27    28    1
    34    29    30   ar
    35    30    31   ar
    36    31    32   ar
