@<TRIPOS>MOLECULE
26876_ChemDiv_5522-0332
 35 38 0 0 0
SMALL
GASTEIGER
Energy = 0

@<TRIPOS>ATOM
      1 N           1.2670    2.2630    0.0000 N.am    1  LIG1       -0.1981
      2 C           0.2580    2.1540    0.0000 C.2     1  LIG1        0.2590
      3 C           0.0630    1.1460    0.0000 C.ar    1  LIG1        0.0588
      4 C           0.9250    0.6670    0.0000 C.ar    1  LIG1        0.0587
      5 C           1.6790    1.3330    0.0000 C.2     1  LIG1        0.2590
      6 O           2.6500    1.1290    0.0000 O.2     1  LIG1       -0.2691
      7 C           0.9420   -0.3330    0.0000 C.ar    1  LIG1        0.0048
      8 C           0.0790   -0.8170    0.0000 C.ar    1  LIG1        0.0047
      9 C          -0.7830   -0.3330    0.0000 C.ar    1  LIG1        0.0555
     10 C          -1.6460   -0.8330    0.0000 C.2     1  LIG1        0.2690
     11 N          -1.6460   -1.8380    0.0000 N.am    1  LIG1       -0.1753
     12 C          -2.5000   -2.3380    0.0000 C.ar    1  LIG1        0.0781
     13 C          -2.5000   -3.3460    0.0000 C.ar    1  LIG1        0.0703
     14 C          -1.6460   -3.8420    0.0000 C.2     1  LIG1        0.2660
     15 N          -0.7830   -3.3460    0.0000 N.am    1  LIG1       -0.2016
     16 C           0.0790   -3.8420    0.0000 C.3     1  LIG1        0.1154
     17 C           0.9500   -3.3460    0.0000 C.3     1  LIG1        0.0217
     18 C           1.8130   -3.8420    0.0000 C.3     1  LIG1        0.0018
     19 C           0.9420   -2.3380    0.0000 C.3     1  LIG1        0.0018
     20 O          -1.6460   -4.8500    0.0000 O.2     1  LIG1       -0.2683
     21 C          -3.3790   -3.8420    0.0000 C.ar    1  LIG1        0.0059
     22 C          -4.2500   -3.3460    0.0000 C.ar    1  LIG1        0.0002
     23 C          -4.2500   -2.3380    0.0000 C.ar    1  LIG1        0.0013
     24 C          -3.3790   -1.8420    0.0000 C.ar    1  LIG1        0.0168
     25 O          -2.5380   -0.3380    0.0000 O.2     1  LIG1       -0.2680
     26 C          -0.8080    0.6500    0.0000 C.ar    1  LIG1        0.0093
     27 O          -0.4170    2.8790    0.0000 O.2     1  LIG1       -0.2691
     28 C           1.7630    3.1290    0.0000 C.ar    1  LIG1        0.0951
     29 C           2.7420    3.1290    0.0000 C.ar    1  LIG1        0.1527
     30 O           3.2670    2.2630    0.0000 O.3     1  LIG1       -0.4702
     31 C           4.2460    2.2630    0.0000 C.3     1  LIG1        0.2525
     32 C           3.2670    4.0000    0.0000 C.ar    1  LIG1        0.0382
     33 C           2.7420    4.8500    0.0000 C.ar    1  LIG1        0.0032
     34 C           1.7460    4.8330    0.0000 C.ar    1  LIG1        0.0015
     35 C           1.2580    3.9710    0.0000 C.ar    1  LIG1        0.0184
@<TRIPOS>BOND
     1     1     2   am
     2     1     5   am
     3     1    28    1
     4     2     3    1
     5     2    27    2
     6     3     4   ar
     7     3    26   ar
     8     4     5    1
     9     4     7   ar
    10     5     6    2
    11     7     8   ar
    12     8     9   ar
    13     9    10    1
    14     9    26   ar
    15    10    11   am
    16    10    25    2
    17    11    12    1
    18    12    13   ar
    19    12    24   ar
    20    13    14    1
    21    13    21   ar
    22    14    15   am
    23    14    20    2
    24    15    16    1
    25    16    17    1
    26    17    18    1
    27    17    19    1
    28    21    22   ar
    29    22    23   ar
    30    23    24   ar
    31    28    29   ar
    32    28    35   ar
    33    29    30    1
    34    29    32   ar
    35    30    31    1
    36    32    33   ar
    37    33    34   ar
    38    34    35   ar
