@<TRIPOS>MOLECULE
26874_ChemDiv_3226-1115
 29 32 0 0 0
SMALL
GASTEIGER
Energy = 0

@<TRIPOS>ATOM
      1 N           1.3830   -1.1710    0.0000 N.am    1  LIG1       -0.2010
      2 C           0.8130   -0.3380    0.0000 C.2     1  LIG1        0.2589
      3 C          -0.1500   -0.6170    0.0000 C.ar    1  LIG1        0.0588
      4 C          -0.1500   -1.6250    0.0000 C.ar    1  LIG1        0.0587
      5 C           0.7670   -1.9380    0.0000 C.2     1  LIG1        0.2589
      6 O           1.1290   -2.8960    0.0000 O.2     1  LIG1       -0.2691
      7 C          -1.0420   -2.1290    0.0000 C.ar    1  LIG1        0.0048
      8 C          -1.8960   -1.6170    0.0000 C.ar    1  LIG1        0.0047
      9 C          -1.8790   -0.6000    0.0000 C.ar    1  LIG1        0.0555
     10 C          -2.7380   -0.1040    0.0000 C.2     1  LIG1        0.2691
     11 N          -2.7380    0.8750    0.0000 N.am    1  LIG1       -0.1722
     12 C          -3.6000    1.3420    0.0000 C.ar    1  LIG1        0.1125
     13 C          -3.5830    2.3750    0.0000 C.ar    1  LIG1        0.2109
     14 O          -2.7080    2.8380    0.0000 O.3     1  LIG1       -0.2852
     15 C          -4.4790    2.9000    0.0000 C.ar    1  LIG1        0.0434
     16 C          -5.3460    2.3750    0.0000 C.ar    1  LIG1        0.0034
     17 C          -5.3580    1.3670    0.0000 C.ar    1  LIG1        0.0015
     18 C          -4.4790    0.8750    0.0000 C.ar    1  LIG1        0.0199
     19 O          -3.5830   -0.5960    0.0000 O.2     1  LIG1       -0.2680
     20 C          -1.0250   -0.1210    0.0000 C.ar    1  LIG1        0.0093
     21 O           1.0380    0.6630    0.0000 O.2     1  LIG1       -0.2691
     22 C           2.3630   -1.1710    0.0000 C.ar    1  LIG1        0.0643
     23 C           2.8580   -2.0080    0.0000 C.ar    1  LIG1        0.0522
     24 C           3.8790   -2.0080    0.0000 C.ar    1  LIG1        0.1400
     25 O           4.3880   -2.8960    0.0000 O.3     1  LIG1       -0.4714
     26 C           5.3540   -2.8710    0.0000 C.3     1  LIG1        0.2525
     27 C           4.3880   -1.1710    0.0000 C.ar    1  LIG1        0.0370
     28 C           3.8500   -0.3130    0.0000 C.ar    1  LIG1        0.0044
     29 C           2.8580   -0.3130    0.0000 C.ar    1  LIG1        0.0155
@<TRIPOS>BOND
     1     1     2   am
     2     1     5   am
     3     1    22    1
     4     2     3    1
     5     2    21    2
     6     3     4   ar
     7     3    20   ar
     8     4     5    1
     9     4     7   ar
    10     5     6    2
    11     7     8   ar
    12     8     9   ar
    13     9    10    1
    14     9    20   ar
    15    10    11   am
    16    10    19    2
    17    11    12    1
    18    12    13   ar
    19    12    18   ar
    20    13    14    1
    21    13    15   ar
    22    15    16   ar
    23    16    17   ar
    24    17    18   ar
    25    22    23   ar
    26    22    29   ar
    27    23    24   ar
    28    24    25    1
    29    24    27   ar
    30    25    26    1
    31    27    28   ar
    32    28    29   ar
