@<TRIPOS>MOLECULE
26887_ChemDiv_4245-1670
 33 37 0 0 0
SMALL
GASTEIGER
Energy = 0

@<TRIPOS>ATOM
      1 S           1.3130   -2.7880    0.0000 S.O2    1  LIG1       -0.0568
      2 N           0.4420   -3.2880    0.0000 N.pl3   1  LIG1       -0.5183
      3 C          -0.4250   -2.7880    0.0000 C.ar    1  LIG1        0.0078
      4 C          -0.4250   -1.7830    0.0000 C.ar    1  LIG1        0.1469
      5 N          -1.2920   -1.2960    0.0000 N.ar    1  LIG1       -0.2278
      6 C          -2.1630   -1.7830    0.0000 C.ar    1  LIG1        0.0999
      7 C          -2.1630   -2.7880    0.0000 C.ar    1  LIG1        0.0969
      8 N          -1.2920   -3.3000    0.0000 N.ar    1  LIG1       -0.2646
      9 C          -3.0290   -3.3000    0.0000 C.ar    1  LIG1        0.0202
     10 C          -3.8920   -2.7880    0.0000 C.ar    1  LIG1       -0.0026
     11 C          -3.8920   -1.7830    0.0000 C.ar    1  LIG1       -0.0203
     12 C          -3.0290   -1.2960    0.0000 C.ar    1  LIG1        0.0164
     13 C          -4.7630   -1.2960    0.0000 C.3     1  LIG1        0.0311
     14 N           0.4420   -1.2960    0.0000 N.pl3   1  LIG1       -0.1944
     15 C           0.4420   -0.2920    0.0000 C.ar    1  LIG1        0.0737
     16 C           1.3130    0.2210    0.0000 C.ar    1  LIG1        0.0373
     17 C           1.3130    1.2210    0.0000 C.ar    1  LIG1        0.1051
     18 N           2.0500    1.8880    0.0000 N.ar    1  LIG1       -0.1893
     19 C           1.6460    2.8080    0.0000 C.ar    1  LIG1        0.3688
     20 N           0.6420    2.6960    0.0000 N.ar    1  LIG1       -0.1893
     21 C           0.4420    1.7130    0.0000 C.ar    1  LIG1        0.1038
     22 C          -0.4250    1.2210    0.0000 C.ar    1  LIG1        0.0221
     23 C          -0.4250    0.2210    0.0000 C.ar    1  LIG1        0.0182
     24 O           2.1500    3.6750    0.0000 O.2     1  LIG1       -0.2426
     25 C           2.1330   -2.3130    0.0000 C.ar    1  LIG1        0.0894
     26 C           2.1790   -1.2960    0.0000 C.ar    1  LIG1        0.0178
     27 C           3.0210   -0.8170    0.0000 C.ar    1  LIG1        0.0127
     28 C           3.8880   -1.3170    0.0000 C.ar    1  LIG1        0.0577
     29 C           3.8710   -2.3210    0.0000 C.ar    1  LIG1        0.0127
     30 C           3.0500   -2.7880    0.0000 C.ar    1  LIG1        0.0178
     31 CL          4.7580   -0.8460    0.0000 Cl      1  LIG1       -0.0822
     32 O           1.8000   -3.6710    0.0000 O.2     1  LIG1       -0.1841
     33 O           0.7630   -1.9130    0.0000 O.2     1  LIG1       -0.1841
@<TRIPOS>BOND
     1     1     2    1
     2     1    25    1
     3     1    32    2
     4     1    33    2
     5     2     3    1
     6     3     4   ar
     7     3     8   ar
     8     4     5   ar
     9     4    14    1
    10     5     6   ar
    11     6     7   ar
    12     6    12   ar
    13     7     8   ar
    14     7     9   ar
    15     9    10   ar
    16    10    11   ar
    17    11    12   ar
    18    11    13    1
    19    14    15    1
    20    15    16   ar
    21    15    23   ar
    22    16    17   ar
    23    17    18   ar
    24    17    21   ar
    25    18    19   ar
    26    19    20   ar
    27    19    24    2
    28    20    21   ar
    29    21    22   ar
    30    22    23   ar
    31    25    26   ar
    32    25    30   ar
    33    26    27   ar
    34    27    28   ar
    35    28    29   ar
    36    28    31    1
    37    29    30   ar
