@<TRIPOS>MOLECULE
26880_ChemDiv_8003-4859
 39 43 0 0 0
SMALL
GASTEIGER
Energy = 0

@<TRIPOS>ATOM
      1 N          -0.2630   -1.1630    0.0000 N.am    1  LIG1       -0.2011
      2 C          -0.8250   -0.3960    0.0000 C.2     1  LIG1        0.2589
      3 C          -1.7920   -0.6540    0.0000 C.ar    1  LIG1        0.0588
      4 C          -1.7920   -1.6830    0.0000 C.ar    1  LIG1        0.0587
      5 C          -0.8250   -1.9790    0.0000 C.2     1  LIG1        0.2589
      6 O          -0.2830   -2.8170    0.0000 O.2     1  LIG1       -0.2691
      7 C          -2.6460   -2.2000    0.0000 C.ar    1  LIG1        0.0048
      8 C          -3.5540   -1.6580    0.0000 C.ar    1  LIG1        0.0047
      9 C          -3.5540   -0.6540    0.0000 C.ar    1  LIG1        0.0555
     10 C          -4.3670   -0.1750    0.0000 C.2     1  LIG1        0.2691
     11 N          -4.3670    0.7290    0.0000 N.am    1  LIG1       -0.1724
     12 C          -5.3580    1.3290    0.0000 C.ar    1  LIG1        0.1075
     13 C          -5.3580    2.3250    0.0000 C.ar    1  LIG1        0.1539
     14 O          -4.4960    2.7920    0.0000 O.3     1  LIG1       -0.4701
     15 C          -3.6380    2.3040    0.0000 C.3     1  LIG1        0.2525
     16 C          -6.2750    2.8210    0.0000 C.ar    1  LIG1        0.0383
     17 C          -7.1290    2.3040    0.0000 C.ar    1  LIG1        0.0032
     18 C          -7.1290    1.3040    0.0000 C.ar    1  LIG1        0.0015
     19 C          -6.2580    0.7880    0.0000 C.ar    1  LIG1        0.0197
     20 O          -5.3130   -0.6670    0.0000 O.2     1  LIG1       -0.2680
     21 C          -2.6250   -0.1580    0.0000 C.ar    1  LIG1        0.0093
     22 O          -0.4380    0.5960    0.0000 O.2     1  LIG1       -0.2691
     23 C           0.7210   -1.1420    0.0000 C.ar    1  LIG1        0.0612
     24 C           1.1960   -0.2670    0.0000 C.ar    1  LIG1        0.0155
     25 C           2.1630   -0.2420    0.0000 C.ar    1  LIG1        0.0059
     26 C           2.6790   -1.1040    0.0000 C.ar    1  LIG1        0.0555
     27 C           3.6710   -1.1250    0.0000 C.2     1  LIG1        0.2691
     28 N           4.1580   -0.2880    0.0000 N.am    1  LIG1       -0.1724
     29 C           5.1500   -0.3040    0.0000 C.ar    1  LIG1        0.1075
     30 C           5.6670    0.5420    0.0000 C.ar    1  LIG1        0.1539
     31 O           5.1960    1.3960    0.0000 O.3     1  LIG1       -0.4701
     32 C           5.6920    2.2420    0.0000 C.3     1  LIG1        0.2525
     33 C           6.6500    0.5130    0.0000 C.ar    1  LIG1        0.0383
     34 C           7.1290   -0.3500    0.0000 C.ar    1  LIG1        0.0032
     35 C           6.6130   -1.1630    0.0000 C.ar    1  LIG1        0.0015
     36 C           5.6210   -1.1630    0.0000 C.ar    1  LIG1        0.0197
     37 O           4.2710   -1.9630    0.0000 O.2     1  LIG1       -0.2680
     38 C           2.2290   -1.9420    0.0000 C.ar    1  LIG1        0.0059
     39 C           1.2420   -1.9790    0.0000 C.ar    1  LIG1        0.0155
@<TRIPOS>BOND
     1     1     2   am
     2     1     5   am
     3     1    23    1
     4     2     3    1
     5     2    22    2
     6     3     4   ar
     7     3    21   ar
     8     4     5    1
     9     4     7   ar
    10     5     6    2
    11     7     8   ar
    12     8     9   ar
    13     9    10    1
    14     9    21   ar
    15    10    11   am
    16    10    20    2
    17    11    12    1
    18    12    13   ar
    19    12    19   ar
    20    13    14    1
    21    13    16   ar
    22    14    15    1
    23    16    17   ar
    24    17    18   ar
    25    18    19   ar
    26    23    24   ar
    27    23    39   ar
    28    24    25   ar
    29    25    26   ar
    30    26    27    1
    31    26    38   ar
    32    27    28   am
    33    27    37    2
    34    28    29    1
    35    29    30   ar
    36    29    36   ar
    37    30    31    1
    38    30    33   ar
    39    31    32    1
    40    33    34   ar
    41    34    35   ar
    42    35    36   ar
    43    38    39   ar
