@<TRIPOS>MOLECULE
26881_ChemDiv_1498-1128
 29 32 0 0 0
SMALL
GASTEIGER
Energy = 0

@<TRIPOS>ATOM
      1 S           1.7460   -1.0080    0.0000 S.O2    1  LIG1       -0.0568
      2 N           1.7130   -0.0130    0.0000 N.pl3   1  LIG1       -0.5183
      3 C           0.8130    0.4670    0.0000 C.ar    1  LIG1        0.0061
      4 C           0.8130    1.4500    0.0000 C.ar    1  LIG1        0.1274
      5 N          -0.0710    1.9540    0.0000 N.ar    1  LIG1       -0.2295
      6 C          -0.9580    1.4630    0.0000 C.ar    1  LIG1        0.1002
      7 C          -0.9580    0.4420    0.0000 C.ar    1  LIG1        0.0969
      8 N          -0.0710   -0.0500    0.0000 N.ar    1  LIG1       -0.2647
      9 C          -1.8420   -0.0500    0.0000 C.ar    1  LIG1        0.0206
     10 C          -2.7250    0.4670    0.0000 C.ar    1  LIG1        0.0016
     11 C          -2.7250    1.4500    0.0000 C.ar    1  LIG1        0.0016
     12 C          -1.8420    1.9540    0.0000 C.ar    1  LIG1        0.0207
     13 N           1.7130    1.9380    0.0000 N.pl3   1  LIG1       -0.2982
     14 C           1.7130    2.9380    0.0000 C.ar    1  LIG1        0.0494
     15 C           0.8880    3.4290    0.0000 C.ar    1  LIG1        0.0146
     16 C           0.9540    4.4330    0.0000 C.ar    1  LIG1        0.0013
     17 C           1.8380    4.9000    0.0000 C.ar    1  LIG1        0.0001
     18 C           2.6790    4.3380    0.0000 C.ar    1  LIG1        0.0013
     19 C           2.6250    3.3330    0.0000 C.ar    1  LIG1        0.0146
     20 C           1.7960   -2.0170    0.0000 C.ar    1  LIG1        0.0893
     21 C           2.6540   -2.5080    0.0000 C.ar    1  LIG1        0.0166
     22 C           2.6540   -3.5500    0.0000 C.ar    1  LIG1       -0.0030
     23 C           1.8130   -4.0420    0.0000 C.ar    1  LIG1       -0.0218
     24 C           0.9290   -3.5500    0.0000 C.ar    1  LIG1       -0.0030
     25 C           0.9130   -2.5170    0.0000 C.ar    1  LIG1        0.0166
     26 C           1.8380   -4.9000    0.0000 C.3     1  LIG1        0.0310
     27 O           0.8540   -0.9920    0.0000 O.2     1  LIG1       -0.1841
     28 O           2.7210   -0.9920    0.0000 O.2     1  LIG1       -0.1841
     29 H           2.5830    1.4250    0.0000 H       1  LIG1        0.1536
@<TRIPOS>BOND
     1     1     2    1
     2     1    20    1
     3     1    27    2
     4     1    28    2
     5     2     3    1
     6     3     4   ar
     7     3     8   ar
     8     4     5   ar
     9     4    13    1
    10     5     6   ar
    11     6     7   ar
    12     6    12   ar
    13     7     8   ar
    14     7     9   ar
    15     9    10   ar
    16    10    11   ar
    17    11    12   ar
    18    13    14    1
    19    13    29    1
    20    14    15   ar
    21    14    19   ar
    22    15    16   ar
    23    16    17   ar
    24    17    18   ar
    25    18    19   ar
    26    20    21   ar
    27    20    25   ar
    28    21    22   ar
    29    22    23   ar
    30    23    24   ar
    31    23    26    1
    32    24    25   ar
