@<TRIPOS>MOLECULE
26883_ChemDiv_3172-0918
 32 36 0 0 0
SMALL
GASTEIGER
Energy = 0

@<TRIPOS>ATOM
      1 S           0.8500   -2.7830    0.0000 S.O2    1  LIG1       -0.0568
      2 N           0.0000   -3.2830    0.0000 N.pl3   1  LIG1       -0.5183
      3 C          -0.8710   -2.7830    0.0000 C.ar    1  LIG1        0.0078
      4 C          -0.8710   -1.7830    0.0000 C.ar    1  LIG1        0.1469
      5 N          -1.7210   -1.2830    0.0000 N.ar    1  LIG1       -0.2278
      6 C          -2.5880   -1.7830    0.0000 C.ar    1  LIG1        0.1002
      7 C          -2.5880   -2.7830    0.0000 C.ar    1  LIG1        0.0969
      8 N          -1.7210   -3.2830    0.0000 N.ar    1  LIG1       -0.2646
      9 C          -3.4710   -3.2830    0.0000 C.ar    1  LIG1        0.0206
     10 C          -4.3250   -2.7830    0.0000 C.ar    1  LIG1        0.0016
     11 C          -4.3250   -1.7830    0.0000 C.ar    1  LIG1        0.0016
     12 C          -3.4710   -1.2830    0.0000 C.ar    1  LIG1        0.0207
     13 N           0.0000   -1.2960    0.0000 N.pl3   1  LIG1       -0.1944
     14 C           0.0170   -0.2920    0.0000 C.ar    1  LIG1        0.0737
     15 C          -0.8540    0.2210    0.0000 C.ar    1  LIG1        0.0373
     16 C          -0.8540    1.2250    0.0000 C.ar    1  LIG1        0.1051
     17 N          -1.5880    1.8920    0.0000 N.ar    1  LIG1       -0.1893
     18 C          -1.1750    2.8040    0.0000 C.ar    1  LIG1        0.3688
     19 N          -0.1880    2.6960    0.0000 N.ar    1  LIG1       -0.1893
     20 C           0.0170    1.7080    0.0000 C.ar    1  LIG1        0.1038
     21 C           0.8830    1.2210    0.0000 C.ar    1  LIG1        0.0221
     22 C           0.8830    0.2040    0.0000 C.ar    1  LIG1        0.0182
     23 O          -1.6710    3.6750    0.0000 O.2     1  LIG1       -0.2426
     24 C           1.7130   -2.3130    0.0000 C.ar    1  LIG1        0.0894
     25 C           2.6000   -2.8000    0.0000 C.ar    1  LIG1        0.0178
     26 C           3.4460   -2.3170    0.0000 C.ar    1  LIG1        0.0127
     27 C           3.4460   -1.3170    0.0000 C.ar    1  LIG1        0.0577
     28 C           2.5830   -0.8170    0.0000 C.ar    1  LIG1        0.0127
     29 C           1.7330   -1.2960    0.0000 C.ar    1  LIG1        0.0178
     30 CL          4.3210   -0.8250    0.0000 Cl      1  LIG1       -0.0822
     31 O           0.3170   -1.9130    0.0000 O.2     1  LIG1       -0.1841
     32 O           1.3630   -3.6710    0.0000 O.2     1  LIG1       -0.1841
@<TRIPOS>BOND
     1     1     2    1
     2     1    24    1
     3     1    31    2
     4     1    32    2
     5     2     3    1
     6     3     4   ar
     7     3     8   ar
     8     4     5   ar
     9     4    13    1
    10     5     6   ar
    11     6     7   ar
    12     6    12   ar
    13     7     8   ar
    14     7     9   ar
    15     9    10   ar
    16    10    11   ar
    17    11    12   ar
    18    13    14    1
    19    14    15   ar
    20    14    22   ar
    21    15    16   ar
    22    16    17   ar
    23    16    20   ar
    24    17    18   ar
    25    18    19   ar
    26    18    23    2
    27    19    20   ar
    28    20    21   ar
    29    21    22   ar
    30    24    25   ar
    31    24    29   ar
    32    25    26   ar
    33    26    27   ar
    34    27    28   ar
    35    27    30    1
    36    28    29   ar
