@<TRIPOS>MOLECULE
26889_ChemDiv_C669-1633
 34 37 0 0 0
SMALL
GASTEIGER
Energy = 0

@<TRIPOS>ATOM
      1 S           2.1580   -2.2500    0.0000 S.O2    1  LIG1       -0.0568
      2 N           2.1670   -1.2500    0.0000 N.pl3   1  LIG1       -0.5183
      3 C           1.2960   -0.7380    0.0000 C.ar    1  LIG1        0.0078
      4 C           1.2960    0.2630    0.0000 C.ar    1  LIG1        0.1469
      5 N           0.4250    0.7630    0.0000 N.ar    1  LIG1       -0.2277
      6 C          -0.4380    0.2630    0.0000 C.ar    1  LIG1        0.1033
      7 C          -0.4380   -0.7380    0.0000 C.ar    1  LIG1        0.0971
      8 N           0.4250   -1.2380    0.0000 N.ar    1  LIG1       -0.2646
      9 C          -1.3000   -1.2380    0.0000 C.ar    1  LIG1        0.0237
     10 C          -2.1710   -0.7380    0.0000 C.ar    1  LIG1        0.0385
     11 C          -2.1710    0.2630    0.0000 C.ar    1  LIG1        0.1403
     12 C          -1.3000    0.7630    0.0000 C.ar    1  LIG1        0.0576
     13 O          -3.0380    0.7630    0.0000 O.3     1  LIG1       -0.4714
     14 C          -3.9040    0.2630    0.0000 C.3     1  LIG1        0.2525
     15 N           2.1670    0.7630    0.0000 N.pl3   1  LIG1       -0.1944
     16 C           2.1710    1.7580    0.0000 C.ar    1  LIG1        0.0722
     17 C           1.3080    2.2580    0.0000 C.ar    1  LIG1        0.0179
     18 C           1.3080    3.2580    0.0000 C.ar    1  LIG1        0.0179
     19 C           2.1710    3.7580    0.0000 C.ar    1  LIG1        0.0734
     20 N           2.1710    4.7540    0.0000 N.am    1  LIG1       -0.1792
     21 C           3.0380    5.2540    0.0000 C.2     1  LIG1        0.2461
     22 O           3.0380    6.2580    0.0000 O.2     1  LIG1       -0.2730
     23 C           3.9000    4.7540    0.0000 C.3     1  LIG1        0.0968
     24 C           3.0380    3.2580    0.0000 C.ar    1  LIG1        0.0179
     25 C           3.0380    2.2580    0.0000 C.ar    1  LIG1        0.0179
     26 C           2.1580   -3.2500    0.0000 C.ar    1  LIG1        0.0893
     27 C           1.2960   -3.7500    0.0000 C.ar    1  LIG1        0.0166
     28 C           1.2960   -4.7580    0.0000 C.ar    1  LIG1       -0.0030
     29 C           2.1580   -5.2580    0.0000 C.ar    1  LIG1       -0.0218
     30 C           3.0210   -4.7580    0.0000 C.ar    1  LIG1       -0.0030
     31 C           3.0210   -3.7500    0.0000 C.ar    1  LIG1        0.0166
     32 C           2.1710   -6.2580    0.0000 C.3     1  LIG1        0.0310
     33 O           3.1580   -2.2500    0.0000 O.2     1  LIG1       -0.1841
     34 O           1.1580   -2.2500    0.0000 O.2     1  LIG1       -0.1841
@<TRIPOS>BOND
     1     1     2    1
     2     1    26    1
     3     1    33    2
     4     1    34    2
     5     2     3    1
     6     3     4   ar
     7     3     8   ar
     8     4     5   ar
     9     4    15    1
    10     5     6   ar
    11     6     7   ar
    12     6    12   ar
    13     7     8   ar
    14     7     9   ar
    15     9    10   ar
    16    10    11   ar
    17    11    12   ar
    18    11    13    1
    19    13    14    1
    20    15    16    1
    21    16    17   ar
    22    16    25   ar
    23    17    18   ar
    24    18    19   ar
    25    19    20    1
    26    19    24   ar
    27    20    21   am
    28    21    22    2
    29    21    23    1
    30    24    25   ar
    31    26    27   ar
    32    26    31   ar
    33    27    28   ar
    34    28    29   ar
    35    29    30   ar
    36    29    32    1
    37    30    31   ar
