@<TRIPOS>MOLECULE
26885_ChemDiv_3697-0119
 34 38 0 0 0
SMALL
GASTEIGER
Energy = 0

@<TRIPOS>ATOM
      1 S           1.2670   -2.8000    0.0000 S.O2    1  LIG1       -0.0568
      2 N           0.4330   -3.2750    0.0000 N.pl3   1  LIG1       -0.5183
      3 C          -0.4330   -2.7670    0.0000 C.ar    1  LIG1        0.0078
      4 C          -0.4330   -1.7670    0.0000 C.ar    1  LIG1        0.1469
      5 N          -1.3000   -1.2670    0.0000 N.ar    1  LIG1       -0.2277
      6 C          -2.1670   -1.7670    0.0000 C.ar    1  LIG1        0.1033
      7 C          -2.1670   -2.7670    0.0000 C.ar    1  LIG1        0.0971
      8 N          -1.3000   -3.2670    0.0000 N.ar    1  LIG1       -0.2646
      9 C          -3.0330   -3.2670    0.0000 C.ar    1  LIG1        0.0237
     10 C          -3.9000   -2.7670    0.0000 C.ar    1  LIG1        0.0385
     11 C          -3.9000   -1.7670    0.0000 C.ar    1  LIG1        0.1403
     12 C          -3.0330   -1.2670    0.0000 C.ar    1  LIG1        0.0576
     13 O          -4.7670   -1.2750    0.0000 O.3     1  LIG1       -0.4714
     14 C          -4.7670   -0.2750    0.0000 C.3     1  LIG1        0.2525
     15 N           0.4330   -1.2750    0.0000 N.pl3   1  LIG1       -0.1944
     16 C           0.4330   -0.2750    0.0000 C.ar    1  LIG1        0.0737
     17 C           1.3000    0.2380    0.0000 C.ar    1  LIG1        0.0373
     18 C           1.2960    1.2540    0.0000 C.ar    1  LIG1        0.1051
     19 N           2.0330    1.9040    0.0000 N.ar    1  LIG1       -0.1893
     20 C           1.6290    2.8040    0.0000 C.ar    1  LIG1        0.3688
     21 N           0.6290    2.7040    0.0000 N.ar    1  LIG1       -0.1893
     22 C           0.4290    1.7250    0.0000 C.ar    1  LIG1        0.1038
     23 C          -0.4380    1.2380    0.0000 C.ar    1  LIG1        0.0221
     24 C          -0.4330    0.2380    0.0000 C.ar    1  LIG1        0.0182
     25 O           2.1170    3.6710    0.0000 O.2     1  LIG1       -0.2426
     26 C           2.1460   -2.3000    0.0000 C.ar    1  LIG1        0.0894
     27 C           3.0000   -2.8080    0.0000 C.ar    1  LIG1        0.0178
     28 C           3.8790   -2.3170    0.0000 C.ar    1  LIG1        0.0127
     29 C           3.8960   -1.3170    0.0000 C.ar    1  LIG1        0.0577
     30 C           3.0290   -0.8080    0.0000 C.ar    1  LIG1        0.0127
     31 C           2.1630   -1.3000    0.0000 C.ar    1  LIG1        0.0178
     32 CL          4.7630   -0.8330    0.0000 Cl      1  LIG1       -0.0822
     33 O           1.8000   -3.6670    0.0000 O.2     1  LIG1       -0.1841
     34 O           0.7670   -1.9000    0.0000 O.2     1  LIG1       -0.1841
@<TRIPOS>BOND
     1     1     2    1
     2     1    26    1
     3     1    33    2
     4     1    34    2
     5     2     3    1
     6     3     4   ar
     7     3     8   ar
     8     4     5   ar
     9     4    15    1
    10     5     6   ar
    11     6     7   ar
    12     6    12   ar
    13     7     8   ar
    14     7     9   ar
    15     9    10   ar
    16    10    11   ar
    17    11    12   ar
    18    11    13    1
    19    13    14    1
    20    15    16    1
    21    16    17   ar
    22    16    24   ar
    23    17    18   ar
    24    18    19   ar
    25    18    22   ar
    26    19    20   ar
    27    20    21   ar
    28    20    25    2
    29    21    22   ar
    30    22    23   ar
    31    23    24   ar
    32    26    27   ar
    33    26    31   ar
    34    27    28   ar
    35    28    29   ar
    36    29    30   ar
    37    29    32    1
    38    30    31   ar
