@<TRIPOS>MOLECULE
26893_ChemDiv_C669-2626
 33 36 0 0 0
SMALL
GASTEIGER
Energy = 0

@<TRIPOS>ATOM
      1 S           0.7670   -3.0330    0.0000 S.O2    1  LIG1       -0.0568
      2 N           0.2670   -2.1670    0.0000 N.pl3   1  LIG1       -0.5183
      3 C          -0.7420   -2.1670    0.0000 C.ar    1  LIG1        0.0078
      4 C          -1.2330   -1.3000    0.0000 C.ar    1  LIG1        0.1470
      5 N          -2.2330   -1.3000    0.0000 N.ar    1  LIG1       -0.2278
      6 C          -2.7420   -2.1670    0.0000 C.ar    1  LIG1        0.1002
      7 C          -2.2330   -3.0330    0.0000 C.ar    1  LIG1        0.0969
      8 N          -1.2330   -3.0330    0.0000 N.ar    1  LIG1       -0.2646
      9 C          -2.7420   -3.8960    0.0000 C.ar    1  LIG1        0.0206
     10 C          -3.7380   -3.8960    0.0000 C.ar    1  LIG1        0.0016
     11 C          -4.2380   -3.0330    0.0000 C.ar    1  LIG1        0.0016
     12 C          -3.7380   -2.1670    0.0000 C.ar    1  LIG1        0.0207
     13 N          -0.7420   -0.4330    0.0000 N.pl3   1  LIG1       -0.1914
     14 C          -1.2330    0.4330    0.0000 C.ar    1  LIG1        0.1060
     15 C          -0.7420    1.3000    0.0000 C.ar    1  LIG1        0.0208
     16 C          -1.2330    2.1710    0.0000 C.ar    1  LIG1        0.0155
     17 C          -0.7420    3.0380    0.0000 C.2     1  LIG1        0.0729
     18 O           0.2670    3.0380    0.0000 O.co2   1  LIG1       -0.5446
     19 O          -1.2330    3.9000    0.0000 O.co2   1  LIG1       -0.5446
     20 C          -2.2330    2.1710    0.0000 C.ar    1  LIG1        0.0043
     21 C          -2.7420    1.3000    0.0000 C.ar    1  LIG1        0.0383
     22 C          -2.2330    0.4330    0.0000 C.ar    1  LIG1        0.1538
     23 O          -2.7420   -0.4330    0.0000 O.3     1  LIG1       -0.4701
     24 C          -3.7380   -0.4330    0.0000 C.3     1  LIG1        0.2525
     25 C           1.6290   -2.5330    0.0000 C.ar    1  LIG1        0.0894
     26 C           1.6290   -1.5290    0.0000 C.ar    1  LIG1        0.0178
     27 C           2.4960   -1.0330    0.0000 C.ar    1  LIG1        0.0127
     28 C           3.3630   -1.5290    0.0000 C.ar    1  LIG1        0.0577
     29 C           3.3630   -2.5330    0.0000 C.ar    1  LIG1        0.0127
     30 C           2.4960   -3.0330    0.0000 C.ar    1  LIG1        0.0178
     31 CL          4.2330   -1.0330    0.0000 Cl      1  LIG1       -0.0822
     32 O          -0.1000   -3.5290    0.0000 O.2     1  LIG1       -0.1841
     33 O           1.2630   -3.8960    0.0000 O.2     1  LIG1       -0.1841
@<TRIPOS>BOND
     1     1     2    1
     2     1    25    1
     3     1    32    2
     4     1    33    2
     5     2     3    1
     6     3     4   ar
     7     3     8   ar
     8     4     5   ar
     9     4    13    1
    10     5     6   ar
    11     6     7   ar
    12     6    12   ar
    13     7     8   ar
    14     7     9   ar
    15     9    10   ar
    16    10    11   ar
    17    11    12   ar
    18    13    14    1
    19    14    15   ar
    20    14    22   ar
    21    15    16   ar
    22    16    17    1
    23    16    20   ar
    24    17    18   ar
    25    17    19   ar
    26    20    21   ar
    27    21    22   ar
    28    22    23    1
    29    23    24    1
    30    25    26   ar
    31    25    30   ar
    32    26    27   ar
    33    27    28   ar
    34    28    29   ar
    35    28    31    1
    36    29    30   ar
