@<TRIPOS>MOLECULE
26891_ChemDiv_C669-1760
 32 35 0 0 0
SMALL
GASTEIGER
Energy = 0

@<TRIPOS>ATOM
      1 S           1.6630   -2.2460    0.0000 S.O2    1  LIG1       -0.0568
      2 N           1.6670   -1.2460    0.0000 N.pl3   1  LIG1       -0.5183
      3 C           0.7880   -0.7330    0.0000 C.ar    1  LIG1        0.0078
      4 C           0.7880    0.2630    0.0000 C.ar    1  LIG1        0.1469
      5 N          -0.0710    0.7630    0.0000 N.ar    1  LIG1       -0.2278
      6 C          -0.9330    0.2630    0.0000 C.ar    1  LIG1        0.1002
      7 C          -0.9330   -0.7330    0.0000 C.ar    1  LIG1        0.0969
      8 N          -0.0710   -1.2330    0.0000 N.ar    1  LIG1       -0.2646
      9 C          -1.7960   -1.2330    0.0000 C.ar    1  LIG1        0.0206
     10 C          -2.6630   -0.7330    0.0000 C.ar    1  LIG1        0.0016
     11 C          -2.6630    0.2630    0.0000 C.ar    1  LIG1        0.0016
     12 C          -1.7960    0.7630    0.0000 C.ar    1  LIG1        0.0207
     13 N           1.6670    0.7630    0.0000 N.pl3   1  LIG1       -0.1944
     14 C           1.6670    1.7630    0.0000 C.ar    1  LIG1        0.0722
     15 C           2.5380    2.2630    0.0000 C.ar    1  LIG1        0.0179
     16 C           2.5380    3.2580    0.0000 C.ar    1  LIG1        0.0179
     17 C           1.6670    3.7580    0.0000 C.ar    1  LIG1        0.0734
     18 N           1.6670    4.7500    0.0000 N.am    1  LIG1       -0.1792
     19 C           0.7880    5.2500    0.0000 C.2     1  LIG1        0.2461
     20 O          -0.0710    4.7500    0.0000 O.2     1  LIG1       -0.2730
     21 C           0.7880    6.2500    0.0000 C.3     1  LIG1        0.0968
     22 C           0.8040    3.2580    0.0000 C.ar    1  LIG1        0.0179
     23 C           0.8040    2.2630    0.0000 C.ar    1  LIG1        0.0179
     24 C           1.6630   -3.2460    0.0000 C.ar    1  LIG1        0.0893
     25 C           0.7880   -3.7420    0.0000 C.ar    1  LIG1        0.0166
     26 C           0.7880   -4.7500    0.0000 C.ar    1  LIG1       -0.0030
     27 C           1.6630   -5.2500    0.0000 C.ar    1  LIG1       -0.0218
     28 C           2.5250   -4.7500    0.0000 C.ar    1  LIG1       -0.0030
     29 C           2.5250   -3.7420    0.0000 C.ar    1  LIG1        0.0166
     30 C           1.6630   -6.2500    0.0000 C.3     1  LIG1        0.0310
     31 O           2.6580   -2.2460    0.0000 O.2     1  LIG1       -0.1841
     32 O           0.6630   -2.2460    0.0000 O.2     1  LIG1       -0.1841
@<TRIPOS>BOND
     1     1     2    1
     2     1    24    1
     3     1    31    2
     4     1    32    2
     5     2     3    1
     6     3     4   ar
     7     3     8   ar
     8     4     5   ar
     9     4    13    1
    10     5     6   ar
    11     6     7   ar
    12     6    12   ar
    13     7     8   ar
    14     7     9   ar
    15     9    10   ar
    16    10    11   ar
    17    11    12   ar
    18    13    14    1
    19    14    15   ar
    20    14    23   ar
    21    15    16   ar
    22    16    17   ar
    23    17    18    1
    24    17    22   ar
    25    18    19   am
    26    19    20    2
    27    19    21    1
    28    22    23   ar
    29    24    25   ar
    30    24    29   ar
    31    25    26   ar
    32    26    27   ar
    33    27    28   ar
    34    27    30    1
    35    28    29   ar
