@<TRIPOS>MOLECULE
26895_ChemDiv_C669-2672
 35 39 0 0 0
SMALL
GASTEIGER
Energy = 0

@<TRIPOS>ATOM
      1 C          -3.6170    1.8000    0.0000 C.ar    1  LIG1        0.3317
      2 N          -2.7000    2.2080    0.0000 N.ar    1  LIG1       -0.2779
      3 C          -2.0250    1.4670    0.0000 C.ar    1  LIG1        0.0811
      4 C          -2.5290    0.6000    0.0000 C.ar    1  LIG1        0.0798
      5 N          -3.5040    0.8080    0.0000 N.ar    1  LIG1       -0.2779
      6 C          -4.2500    0.1380    0.0000 C.3     1  LIG1        0.1351
      7 C          -2.0250   -0.2670    0.0000 C.ar    1  LIG1        0.0201
      8 C          -1.0290   -0.2670    0.0000 C.ar    1  LIG1        0.0181
      9 C          -0.5290    0.6000    0.0000 C.ar    1  LIG1        0.0736
     10 N           0.4750    0.6000    0.0000 N.pl3   1  LIG1       -0.1944
     11 C           0.9750   -0.2670    0.0000 C.ar    1  LIG1        0.1469
     12 C           1.9750   -0.2670    0.0000 C.ar    1  LIG1        0.0078
     13 N           2.4750    0.6000    0.0000 N.pl3   1  LIG1       -0.5183
     14 S           3.4710    0.6000    0.0000 S.O2    1  LIG1       -0.0568
     15 C           3.4710    1.6040    0.0000 C.ar    1  LIG1        0.0893
     16 C           4.3380    2.1040    0.0000 C.ar    1  LIG1        0.0166
     17 C           4.3380    3.1000    0.0000 C.ar    1  LIG1       -0.0030
     18 C           3.4710    3.6000    0.0000 C.ar    1  LIG1       -0.0218
     19 C           2.6040    3.1000    0.0000 C.ar    1  LIG1       -0.0030
     20 C           2.6040    2.1040    0.0000 C.ar    1  LIG1        0.0166
     21 C           3.4710    4.5960    0.0000 C.3     1  LIG1        0.0310
     22 O           4.4750    0.6000    0.0000 O.2     1  LIG1       -0.1841
     23 O           3.4710   -0.4000    0.0000 O.2     1  LIG1       -0.1841
     24 N           2.4750   -1.1330    0.0000 N.ar    1  LIG1       -0.2646
     25 C           1.9750   -2.0000    0.0000 C.ar    1  LIG1        0.0969
     26 C           0.9750   -2.0000    0.0000 C.ar    1  LIG1        0.0999
     27 N           0.4750   -1.1330    0.0000 N.ar    1  LIG1       -0.2278
     28 C           0.4750   -2.8670    0.0000 C.ar    1  LIG1        0.0164
     29 C           0.9750   -3.7290    0.0000 C.ar    1  LIG1       -0.0203
     30 C           1.9750   -3.7290    0.0000 C.ar    1  LIG1       -0.0026
     31 C           2.4750   -2.8670    0.0000 C.ar    1  LIG1        0.0202
     32 C           0.4750   -4.5960    0.0000 C.3     1  LIG1        0.0311
     33 C          -1.0290    1.4670    0.0000 C.ar    1  LIG1        0.0353
     34 C          -2.4880    3.1830    0.0000 C.3     1  LIG1        0.1351
     35 O          -4.4790    2.3080    0.0000 O.2     1  LIG1       -0.2463
@<TRIPOS>BOND
     1     1     2   ar
     2     1     5   ar
     3     1    35    2
     4     2     3   ar
     5     2    34    1
     6     3     4   ar
     7     3    33   ar
     8     4     5   ar
     9     4     7   ar
    10     5     6    1
    11     7     8   ar
    12     8     9   ar
    13     9    10    1
    14     9    33   ar
    15    10    11    1
    16    11    12   ar
    17    11    27   ar
    18    12    13    1
    19    12    24   ar
    20    13    14    1
    21    14    15    1
    22    14    22    2
    23    14    23    2
    24    15    16   ar
    25    15    20   ar
    26    16    17   ar
    27    17    18   ar
    28    18    19   ar
    29    18    21    1
    30    19    20   ar
    31    24    25   ar
    32    25    26   ar
    33    25    31   ar
    34    26    27   ar
    35    26    28   ar
    36    28    29   ar
    37    29    30   ar
    38    29    32    1
    39    30    31   ar
