@<TRIPOS>MOLECULE
26898_ChemDiv_8005-2268
 32 36 0 0 0
SMALL
GASTEIGER
Energy = 0

@<TRIPOS>ATOM
      1 N          -2.3880    0.0540    0.0000 N.ar    1  LIG1       -0.2386
      2 C          -1.8080    0.8080    0.0000 C.ar    1  LIG1        0.2672
      3 C          -0.8580    0.5080    0.0000 C.ar    1  LIG1        0.0613
      4 C          -0.8580   -0.4960    0.0000 C.ar    1  LIG1        0.0613
      5 C          -1.8080   -0.7920    0.0000 C.ar    1  LIG1        0.2672
      6 O          -2.1170   -1.7540    0.0000 O.2     1  LIG1       -0.2665
      7 C           0.0380   -1.0290    0.0000 C.ar    1  LIG1        0.0098
      8 C           0.8830   -0.4960    0.0000 C.ar    1  LIG1        0.0613
      9 C           1.8750   -0.8080    0.0000 C.ar    1  LIG1        0.2672
     10 N           2.4420    0.0040    0.0000 N.ar    1  LIG1       -0.2386
     11 C           1.8750    0.8080    0.0000 C.ar    1  LIG1        0.2672
     12 C           0.8830    0.5080    0.0000 C.ar    1  LIG1        0.0613
     13 C           0.0380    1.0000    0.0000 C.ar    1  LIG1        0.0098
     14 O           2.2250    1.7130    0.0000 O.2     1  LIG1       -0.2665
     15 C           3.4170    0.0040    0.0000 C.ar    1  LIG1        0.1085
     16 C           3.9210   -0.8460    0.0000 C.ar    1  LIG1        0.2115
     17 C           4.9380   -0.8460    0.0000 C.ar    1  LIG1        0.0393
     18 C           5.4460    0.0040    0.0000 C.ar    1  LIG1       -0.0186
     19 C           4.9380    0.8580    0.0000 C.ar    1  LIG1       -0.0026
     20 C           3.9210    0.8580    0.0000 C.ar    1  LIG1        0.0206
     21 C           6.4330    0.0040    0.0000 C.3     1  LIG1        0.0311
     22 O           3.4000   -1.6880    0.0000 O.3     1  LIG1       -0.2850
     23 O           2.2040   -1.7540    0.0000 O.2     1  LIG1       -0.2665
     24 O          -2.1040    1.7580    0.0000 O.2     1  LIG1       -0.2665
     25 C          -3.4210    0.0540    0.0000 C.ar    1  LIG1        0.1085
     26 C          -3.9330   -0.7920    0.0000 C.ar    1  LIG1        0.2115
     27 C          -4.9420   -0.7920    0.0000 C.ar    1  LIG1        0.0393
     28 C          -5.4420    0.0540    0.0000 C.ar    1  LIG1       -0.0186
     29 C          -4.9420    0.9210    0.0000 C.ar    1  LIG1       -0.0026
     30 C          -3.9330    0.9210    0.0000 C.ar    1  LIG1        0.0206
     31 C          -6.4330    0.0540    0.0000 C.3     1  LIG1        0.0311
     32 O          -3.4460   -1.6460    0.0000 O.3     1  LIG1       -0.2850
@<TRIPOS>BOND
     1     1     2   ar
     2     1     5   ar
     3     1    25    1
     4     2     3   ar
     5     2    24    2
     6     3     4   ar
     7     3    13   ar
     8     4     5   ar
     9     4     7   ar
    10     5     6    2
    11     7     8   ar
    12     8     9   ar
    13     8    12   ar
    14     9    10   ar
    15     9    23    2
    16    10    11   ar
    17    10    15    1
    18    11    12   ar
    19    11    14    2
    20    12    13   ar
    21    15    16   ar
    22    15    20   ar
    23    16    17   ar
    24    16    22    1
    25    17    18   ar
    26    18    19   ar
    27    18    21    1
    28    19    20   ar
    29    25    26   ar
    30    25    30   ar
    31    26    27   ar
    32    26    32    1
    33    27    28   ar
    34    28    29   ar
    35    28    31    1
    36    29    30   ar
