@<TRIPOS>MOLECULE
26900_ChemDiv_1606-0565
 34 38 0 0 0
SMALL
GASTEIGER
Energy = 0

@<TRIPOS>ATOM
      1 N          -0.8670   -0.5040    0.0000 N.am    1  LIG1       -0.2011
      2 C          -0.3250    0.2960    0.0000 C.2     1  LIG1        0.2589
      3 C           0.5830    0.0500    0.0000 C.ar    1  LIG1        0.0588
      4 C           0.5830   -1.0460    0.0000 C.ar    1  LIG1        0.0587
      5 C          -0.3250   -1.3880    0.0000 C.2     1  LIG1        0.2589
      6 O          -0.6500   -2.3330    0.0000 O.2     1  LIG1       -0.2691
      7 C           1.5830   -1.5290    0.0000 C.ar    1  LIG1        0.0048
      8 C           2.4420   -1.0460    0.0000 C.ar    1  LIG1        0.0047
      9 C           2.4420    0.0500    0.0000 C.ar    1  LIG1        0.0555
     10 C           3.2290    0.5670    0.0000 C.2     1  LIG1        0.2690
     11 N           4.1250    0.0500    0.0000 N.am    1  LIG1       -0.1754
     12 C           4.9830    0.5790    0.0000 C.ar    1  LIG1        0.0750
     13 C           4.9830    1.5500    0.0000 C.ar    1  LIG1        0.0347
     14 C           5.8420    2.1000    0.0000 C.ar    1  LIG1        0.0904
     15 N           5.8420    3.0830    0.0000 N.pl3   1  LIG1       -0.1280
     16 C           6.6830    1.5500    0.0000 C.ar    1  LIG1        0.0181
     17 C           6.6830    0.5790    0.0000 C.ar    1  LIG1        0.0027
     18 C           5.8250    0.0500    0.0000 C.ar    1  LIG1        0.0167
     19 O           3.2290    1.5500    0.0000 O.2     1  LIG1       -0.2680
     20 C           1.5830    0.5250    0.0000 C.ar    1  LIG1        0.0093
     21 O          -0.6500    1.2830    0.0000 O.2     1  LIG1       -0.2691
     22 C          -1.8500   -0.5040    0.0000 C.ar    1  LIG1        0.0614
     23 C          -2.3670    0.3540    0.0000 C.ar    1  LIG1        0.0185
     24 C          -3.3080    0.3540    0.0000 C.ar    1  LIG1        0.0388
     25 C          -3.7750   -0.5040    0.0000 C.ar    1  LIG1        0.1454
     26 O          -4.7580   -0.5210    0.0000 O.3     1  LIG1       -0.4535
     27 C          -5.2290   -1.3790    0.0000 C.ar    1  LIG1        0.1453
     28 C          -6.2250   -1.3630    0.0000 C.ar    1  LIG1        0.0375
     29 C          -6.6830   -2.2630    0.0000 C.ar    1  LIG1        0.0031
     30 C          -6.1630   -3.0670    0.0000 C.ar    1  LIG1        0.0002
     31 C          -5.2040   -3.0790    0.0000 C.ar    1  LIG1        0.0031
     32 C          -4.7250   -2.2210    0.0000 C.ar    1  LIG1        0.0375
     33 C          -3.3670   -1.3880    0.0000 C.ar    1  LIG1        0.0388
     34 C          -2.3670   -1.3880    0.0000 C.ar    1  LIG1        0.0185
@<TRIPOS>BOND
     1     1     2   am
     2     1     5   am
     3     1    22    1
     4     2     3    1
     5     2    21    2
     6     3     4   ar
     7     3    20   ar
     8     4     5    1
     9     4     7   ar
    10     5     6    2
    11     7     8   ar
    12     8     9   ar
    13     9    10    1
    14     9    20   ar
    15    10    11   am
    16    10    19    2
    17    11    12    1
    18    12    13   ar
    19    12    18   ar
    20    13    14   ar
    21    14    15    1
    22    14    16   ar
    23    16    17   ar
    24    17    18   ar
    25    22    23   ar
    26    22    34   ar
    27    23    24   ar
    28    24    25   ar
    29    25    26    1
    30    25    33   ar
    31    26    27    1
    32    27    28   ar
    33    27    32   ar
    34    28    29   ar
    35    29    30   ar
    36    30    31   ar
    37    31    32   ar
    38    33    34   ar
