@<TRIPOS>MOLECULE
26913_ChemDiv_C669-2730
 33 37 0 0 0
SMALL
GASTEIGER
Energy = 0

@<TRIPOS>ATOM
      1 S           3.0420    1.0330    0.0000 S.O2    1  LIG1       -0.0568
      2 N           2.0420    1.0330    0.0000 N.pl3   1  LIG1       -0.5183
      3 C           1.5420    0.1670    0.0000 C.ar    1  LIG1        0.0078
      4 C           0.5420    0.1670    0.0000 C.ar    1  LIG1        0.1469
      5 N           0.0420   -0.7000    0.0000 N.ar    1  LIG1       -0.2277
      6 C           0.5420   -1.5670    0.0000 C.ar    1  LIG1        0.1033
      7 C           1.5420   -1.5670    0.0000 C.ar    1  LIG1        0.0971
      8 N           2.0420   -0.7000    0.0000 N.ar    1  LIG1       -0.2646
      9 C           2.0420   -2.4330    0.0000 C.ar    1  LIG1        0.0237
     10 C           1.5420   -3.3000    0.0000 C.ar    1  LIG1        0.0385
     11 C           0.5420   -3.3000    0.0000 C.ar    1  LIG1        0.1403
     12 C           0.0420   -2.4330    0.0000 C.ar    1  LIG1        0.0576
     13 O           0.0420   -4.1670    0.0000 O.3     1  LIG1       -0.4714
     14 C           0.5420   -5.0330    0.0000 C.3     1  LIG1        0.2525
     15 N           0.0420    1.0330    0.0000 N.pl3   1  LIG1       -0.1943
     16 C          -0.9580    1.0330    0.0000 C.ar    1  LIG1        0.0753
     17 C          -1.4630    0.1670    0.0000 C.ar    1  LIG1        0.0567
     18 C          -2.4540    0.1670    0.0000 C.ar    1  LIG1        0.1777
     19 C          -2.9580    1.0330    0.0000 C.ar    1  LIG1        0.1765
     20 O          -3.9380    0.8250    0.0000 O.3     1  LIG1       -0.4346
     21 C          -4.0420   -0.1710    0.0000 C.3     1  LIG1        0.4294
     22 O          -3.1250   -0.5750    0.0000 O.3     1  LIG1       -0.4346
     23 C          -2.4540    1.9000    0.0000 C.ar    1  LIG1        0.0415
     24 C          -1.4630    1.9000    0.0000 C.ar    1  LIG1        0.0199
     25 C           3.0420    2.0330    0.0000 C.ar    1  LIG1        0.0894
     26 C           3.9080    2.5290    0.0000 C.ar    1  LIG1        0.0178
     27 C           3.9080    3.5330    0.0000 C.ar    1  LIG1        0.0127
     28 C           3.0420    4.0290    0.0000 C.ar    1  LIG1        0.0577
     29 C           2.1750    3.5330    0.0000 C.ar    1  LIG1        0.0127
     30 C           2.1750    2.5290    0.0000 C.ar    1  LIG1        0.0178
     31 CL          3.0420    5.0330    0.0000 Cl      1  LIG1       -0.0822
     32 O           3.0420    0.0290    0.0000 O.2     1  LIG1       -0.1841
     33 O           4.0370    1.0330    0.0000 O.2     1  LIG1       -0.1841
@<TRIPOS>BOND
     1     1     2    1
     2     1    25    1
     3     1    32    2
     4     1    33    2
     5     2     3    1
     6     3     4   ar
     7     3     8   ar
     8     4     5   ar
     9     4    15    1
    10     5     6   ar
    11     6     7   ar
    12     6    12   ar
    13     7     8   ar
    14     7     9   ar
    15     9    10   ar
    16    10    11   ar
    17    11    12   ar
    18    11    13    1
    19    13    14    1
    20    15    16    1
    21    16    17   ar
    22    16    24   ar
    23    17    18   ar
    24    18    19   ar
    25    18    22    1
    26    19    20    1
    27    19    23   ar
    28    20    21    1
    29    21    22    1
    30    23    24   ar
    31    25    26   ar
    32    25    30   ar
    33    26    27   ar
    34    27    28   ar
    35    28    29   ar
    36    28    31    1
    37    29    30   ar
