@<TRIPOS>MOLECULE
26919_ChemDiv_2054-0719
 20 23 0 0 0
SMALL
GASTEIGER
Energy = 0

@<TRIPOS>ATOM
      1 N          -0.3540    0.0880    0.0000 N.am    1  LIG1       -0.2081
      2 C          -0.9080    0.9080    0.0000 C.2     1  LIG1        0.2351
      3 C          -1.9380    0.5580    0.0000 C.3     1  LIG1        0.0860
      4 C          -1.9380   -0.4250    0.0000 C.3     1  LIG1        0.0860
      5 C          -0.9080   -0.7710    0.0000 C.2     1  LIG1        0.2351
      6 O          -0.7750   -1.4670    0.0000 O.2     1  LIG1       -0.2741
      7 C          -2.8330   -0.9540    0.0000 C.3     1  LIG1        0.0091
      8 C          -2.5830    0.1210    0.0000 C.3     1  LIG1        0.0010
      9 C          -2.8330    1.1040    0.0000 C.3     1  LIG1        0.0091
     10 C          -3.7460    0.5580    0.0000 C.3     1  LIG1        0.0005
     11 C          -3.7460   -0.4250    0.0000 C.3     1  LIG1        0.0005
     12 O          -0.5000    1.5380    0.0000 O.2     1  LIG1       -0.2741
     13 C           0.6420    0.1040    0.0000 C.ar    1  LIG1        0.0615
     14 C           1.1710   -0.7420    0.0000 C.ar    1  LIG1        0.0276
     15 C           2.1710   -0.7040    0.0000 C.ar    1  LIG1        0.0694
     16 C           2.6460    0.1540    0.0000 C.ar    1  LIG1        0.0683
     17 C           2.1210    1.0130    0.0000 C.ar    1  LIG1        0.0135
     18 C           1.1170    0.9830    0.0000 C.ar    1  LIG1        0.0162
     19 CL          3.7420    0.1540    0.0000 Cl      1  LIG1       -0.0814
     20 CL          2.7000   -1.5380    0.0000 Cl      1  LIG1       -0.0813
@<TRIPOS>BOND
     1     1     2   am
     2     1     5   am
     3     1    13    1
     4     2     3    1
     5     2    12    2
     6     3     4    1
     7     3     9    1
     8     4     5    1
     9     4     7    1
    10     5     6    2
    11     7     8    1
    12     7    11    1
    13     8     9    1
    14     9    10    1
    15    10    11    1
    16    13    14   ar
    17    13    18   ar
    18    14    15   ar
    19    15    16   ar
    20    15    20    1
    21    16    17   ar
    22    16    19    1
    23    17    18   ar
