@<TRIPOS>MOLECULE
26929_ChemDiv_1545-0013
 15 16 0 0 0
SMALL
GASTEIGER
Energy = 0

@<TRIPOS>ATOM
      1 C           0.0000   -0.2330    0.0000 C.ar    1  LIG1        0.1206
      2 C          -0.8750    0.2710    0.0000 C.ar    1  LIG1        0.2976
      3 N          -1.7460   -0.2330    0.0000 N.ar    1  LIG1       -0.1506
      4 C          -1.7380   -1.2380    0.0000 C.ar    1  LIG1        0.3712
      5 N          -0.8750   -1.7330    0.0000 N.ar    1  LIG1       -0.1937
      6 C           0.0000   -1.2380    0.0000 C.ar    1  LIG1        0.0821
      7 C           0.8630   -1.7500    0.0000 C.3     1  LIG1        0.0537
      8 O          -2.6080   -1.7330    0.0000 O.2     1  LIG1       -0.2425
      9 O          -0.8750    1.2580    0.0000 O.2     1  LIG1       -0.2637
     10 N           0.8670    0.2540    0.0000 N.pl3   1  LIG1       -0.2980
     11 C           0.8670    1.2500    0.0000 C.3     1  LIG1        0.1232
     12 C           1.7330    1.7540    0.0000 C.3     1  LIG1        0.1636
     13 O           2.6040    1.2500    0.0000 O.3     1  LIG1       -0.3501
     14 C           2.6040    0.2540    0.0000 C.3     1  LIG1        0.1636
     15 C           1.7330   -0.2330    0.0000 C.3     1  LIG1        0.1232
@<TRIPOS>BOND
     1     1     2   ar
     2     1     6   ar
     3     1    10    1
     4     2     3   ar
     5     2     9    2
     6     3     4   ar
     7     4     5   ar
     8     4     8    2
     9     5     6   ar
    10     6     7    1
    11    10    11    1
    12    10    15    1
    13    11    12    1
    14    12    13    1
    15    13    14    1
    16    14    15    1
