@<TRIPOS>MOLECULE
26923_ChemDiv_4483-3003
 31 35 0 0 0
SMALL
GASTEIGER
Energy = 0

@<TRIPOS>ATOM
      1 N          -3.3540   -0.8130    0.0000 N.am    1  LIG1       -0.2081
      2 C          -3.9420   -1.6250    0.0000 C.2     1  LIG1        0.2351
      3 C          -4.8920   -1.3170    0.0000 C.3     1  LIG1        0.0860
      4 C          -4.8920   -0.3130    0.0000 C.3     1  LIG1        0.0860
      5 C          -3.9420   -0.0040    0.0000 C.2     1  LIG1        0.2351
      6 O          -3.6330    0.9420    0.0000 O.2     1  LIG1       -0.2741
      7 C          -5.7540    0.1790    0.0000 C.3     1  LIG1        0.0091
      8 C          -5.4960   -0.7830    0.0000 C.3     1  LIG1        0.0010
      9 C          -5.7540   -1.8170    0.0000 C.3     1  LIG1        0.0091
     10 C          -6.6170   -1.3170    0.0000 C.3     1  LIG1        0.0005
     11 C          -6.6170   -0.3210    0.0000 C.3     1  LIG1        0.0005
     12 O          -3.6330   -2.5790    0.0000 O.2     1  LIG1       -0.2741
     13 C          -2.3540   -0.8130    0.0000 C.ar    1  LIG1        0.0608
     14 C          -1.8710   -1.6880    0.0000 C.ar    1  LIG1        0.0184
     15 C          -0.8790   -1.6960    0.0000 C.ar    1  LIG1        0.0389
     16 C          -0.3580   -0.8330    0.0000 C.ar    1  LIG1        0.1486
     17 O           0.6290   -0.8380    0.0000 O.3     1  LIG1       -0.4216
     18 C           1.1290    0.0210    0.0000 C.2     1  LIG1        0.3665
     19 O           0.6380    0.8830    0.0000 O.2     1  LIG1       -0.2455
     20 C           2.1290    0.0130    0.0000 C.3     1  LIG1        0.3145
     21 O           2.6290    0.8710    0.0000 O.3     1  LIG1       -0.4638
     22 C           3.6250    0.8670    0.0000 C.ar    1  LIG1        0.1390
     23 C           4.1330    1.7250    0.0000 C.ar    1  LIG1        0.0324
     24 C           5.1290    1.7170    0.0000 C.ar    1  LIG1       -0.0228
     25 C           5.6170    0.8540    0.0000 C.ar    1  LIG1       -0.0256
     26 C           5.1250   -0.0040    0.0000 C.ar    1  LIG1       -0.0015
     27 C           4.1250    0.0000    0.0000 C.ar    1  LIG1        0.0366
     28 C           6.6170    0.8500    0.0000 C.3     1  LIG1        0.0307
     29 C           5.6420    2.5830    0.0000 C.3     1  LIG1        0.0308
     30 C          -0.8420    0.0380    0.0000 C.ar    1  LIG1        0.0389
     31 C          -1.8500    0.0500    0.0000 C.ar    1  LIG1        0.0184
@<TRIPOS>BOND
     1     1     2   am
     2     1     5   am
     3     1    13    1
     4     2     3    1
     5     2    12    2
     6     3     4    1
     7     3     9    1
     8     4     5    1
     9     4     7    1
    10     5     6    2
    11     7     8    1
    12     7    11    1
    13     8     9    1
    14     9    10    1
    15    10    11    1
    16    13    14   ar
    17    13    31   ar
    18    14    15   ar
    19    15    16   ar
    20    16    17    1
    21    16    30   ar
    22    17    18    1
    23    18    19    2
    24    18    20    1
    25    20    21    1
    26    21    22    1
    27    22    23   ar
    28    22    27   ar
    29    23    24   ar
    30    24    25   ar
    31    24    29    1
    32    25    26   ar
    33    25    28    1
    34    26    27   ar
    35    30    31   ar
