@<TRIPOS>MOLECULE
26921_ChemDiv_3043-0009
 24 27 0 0 0
SMALL
GASTEIGER
Energy = 0

@<TRIPOS>ATOM
      1 N          -1.8460    0.3500    0.0000 N.am    1  LIG1       -0.2098
      2 C          -2.3920   -0.4500    0.0000 C.2     1  LIG1        0.2326
      3 C          -3.3330   -0.1540    0.0000 C.3     1  LIG1        0.0857
      4 C          -3.3330    0.8540    0.0000 C.3     1  LIG1        0.0857
      5 C          -2.3920    1.1540    0.0000 C.2     1  LIG1        0.2326
      6 O          -2.0670    2.1040    0.0000 O.2     1  LIG1       -0.2744
      7 C          -4.2080    1.3380    0.0000 C.3     1  LIG1        0.0091
      8 C          -3.6290    0.4000    0.0000 C.3     1  LIG1        0.0010
      9 C          -4.2080   -0.6420    0.0000 C.3     1  LIG1        0.0091
     10 C          -5.0880   -0.1540    0.0000 C.3     1  LIG1        0.0005
     11 C          -5.0880    0.8540    0.0000 C.3     1  LIG1        0.0005
     12 O          -2.0670   -1.4080    0.0000 O.2     1  LIG1       -0.2744
     13 C          -0.8580    0.3420    0.0000 C.3     1  LIG1        0.2146
     14 N          -0.3250   -0.5000    0.0000 N.pl3   1  LIG1       -0.2152
     15 C           0.6630   -0.5000    0.0000 C.ar    1  LIG1        0.0674
     16 C           1.1710    0.3790    0.0000 C.ar    1  LIG1        0.0175
     17 C           2.1630    0.4000    0.0000 C.ar    1  LIG1        0.0179
     18 C           2.6630   -0.5000    0.0000 C.ar    1  LIG1        0.0734
     19 N           3.6630   -0.5130    0.0000 N.am    1  LIG1       -0.1792
     20 C           4.1210   -1.3330    0.0000 C.2     1  LIG1        0.2461
     21 O           5.0830   -1.3420    0.0000 O.2     1  LIG1       -0.2730
     22 C           3.7960   -2.1000    0.0000 C.3     1  LIG1        0.0968
     23 C           2.1630   -1.3710    0.0000 C.ar    1  LIG1        0.0179
     24 C           1.1710   -1.3710    0.0000 C.ar    1  LIG1        0.0175
@<TRIPOS>BOND
     1     1     2   am
     2     1     5   am
     3     1    13    1
     4     2     3    1
     5     2    12    2
     6     3     4    1
     7     3     9    1
     8     4     5    1
     9     4     7    1
    10     5     6    2
    11     7     8    1
    12     7    11    1
    13     8     9    1
    14     9    10    1
    15    10    11    1
    16    13    14    1
    17    14    15    1
    18    15    16   ar
    19    15    24   ar
    20    16    17   ar
    21    17    18   ar
    22    18    19    1
    23    18    23   ar
    24    19    20   am
    25    20    21    2
    26    20    22    1
    27    23    24   ar
