@<TRIPOS>MOLECULE
26939_ChemDiv_8012-4974
 25 27 0 0 0
SMALL
GASTEIGER
Energy = 0

@<TRIPOS>ATOM
      1 C          -1.0880   -0.1000    0.0000 C.ar    1  LIG1        0.3085
      2 S          -0.0960    0.1330    0.0000 S.O2    1  LIG1        0.0990
      3 N           0.8630    0.3790    0.0000 N.3     1  LIG1       -0.1526
      4 C           1.5540   -0.3420    0.0000 C.3     1  LIG1        0.0965
      5 C           2.5170   -0.1290    0.0000 C.3     1  LIG1        0.0303
      6 C           2.8210    0.8210    0.0000 C.3     1  LIG1        0.1019
      7 C           3.7880    1.0420    0.0000 C.2     1  LIG1        0.3165
      8 O           4.0830    2.0170    0.0000 O.2     1  LIG1       -0.2501
      9 O           4.4750    0.3170    0.0000 O.3     1  LIG1       -0.4485
     10 C           4.1750   -0.6250    0.0000 C.3     1  LIG1        0.2086
     11 C           4.8580   -1.3540    0.0000 C.3     1  LIG1        0.0513
     12 C           2.1290    1.5670    0.0000 C.3     1  LIG1        0.0303
     13 C           1.1580    1.3460    0.0000 C.3     1  LIG1        0.0965
     14 O          -0.3380    1.1210    0.0000 O.2     1  LIG1       -0.1497
     15 O           0.1290   -0.8380    0.0000 O.2     1  LIG1       -0.1497
     16 N          -1.4420   -1.0080    0.0000 N.ar    1  LIG1       -0.1719
     17 C          -2.4500   -0.9290    0.0000 C.ar    1  LIG1        0.2550
     18 N          -2.6750    0.0460    0.0000 N.ar    1  LIG1       -0.1978
     19 N          -1.8040    0.5580    0.0000 N.ar    1  LIG1       -0.1227
     20 C          -3.6210    0.3500    0.0000 C.ar    1  LIG1        0.0652
     21 C          -4.3500   -0.3290    0.0000 C.ar    1  LIG1        0.0297
     22 C          -4.1290   -1.3130    0.0000 C.ar    1  LIG1        0.0637
     23 N          -3.1790   -1.6170    0.0000 N.ar    1  LIG1       -0.2143
     24 C          -4.8630   -2.0130    0.0000 C.3     1  LIG1        0.0522
     25 C          -3.8460    1.3130    0.0000 C.3     1  LIG1        0.0523
@<TRIPOS>BOND
     1     1     2    1
     2     1    16   ar
     3     1    19   ar
     4     2     3    1
     5     2    14    2
     6     2    15    2
     7     3     4    1
     8     3    13    1
     9     4     5    1
    10     5     6    1
    11     6     7    1
    12     6    12    1
    13     7     8    2
    14     7     9    1
    15     9    10    1
    16    10    11    1
    17    12    13    1
    18    16    17   ar
    19    17    18   ar
    20    17    23   ar
    21    18    19   ar
    22    18    20   ar
    23    20    21   ar
    24    20    25    1
    25    21    22   ar
    26    22    23   ar
    27    22    24    1
