@<TRIPOS>MOLECULE
26931_ChemDiv_1545-0026
 17 18 0 0 0
SMALL
GASTEIGER
Energy = 0

@<TRIPOS>ATOM
      1 N          -0.8330   -0.2330    0.0000 N.ar    1  LIG1       -0.1891
      2 C          -0.8330   -1.1920    0.0000 C.ar    1  LIG1        0.2547
      3 N          -0.0040   -1.6830    0.0000 N.ar    1  LIG1       -0.1862
      4 C           0.8290   -1.1920    0.0000 C.ar    1  LIG1        0.2226
      5 N           0.8330   -0.2330    0.0000 N.ar    1  LIG1       -0.1393
      6 N          -1.6710   -1.6670    0.0000 N.ar    1  LIG1       -0.2142
      7 C          -2.4960   -1.1920    0.0000 C.ar    1  LIG1        0.0645
      8 C          -2.5000   -0.2330    0.0000 C.ar    1  LIG1        0.0404
      9 C          -1.6710    0.2540    0.0000 C.ar    1  LIG1        0.1124
     10 S          -1.6710    1.1960    0.0000 S.3     1  LIG1       -0.0948
     11 C          -0.8380    1.6710    0.0000 C.3     1  LIG1        0.0637
     12 C          -0.0040    1.1960    0.0000 C.3     1  LIG1        0.0120
     13 C           0.8290    1.6880    0.0000 C.3     1  LIG1        0.0009
     14 C           1.6580    1.1960    0.0000 C.3     1  LIG1        0.0000
     15 C           2.4920    1.6880    0.0000 C.3     1  LIG1        0.0000
     16 C           3.3250    1.2130    0.0000 C.3     1  LIG1        0.0000
     17 C          -3.3290   -1.6670    0.0000 C.3     1  LIG1        0.0523
@<TRIPOS>BOND
     1     1     2   ar
     2     1     5   ar
     3     1     9   ar
     4     2     3   ar
     5     2     6   ar
     6     3     4   ar
     7     4     5   ar
     8     6     7   ar
     9     7     8   ar
    10     7    17    1
    11     8     9   ar
    12     9    10    1
    13    10    11    1
    14    11    12    1
    15    12    13    1
    16    13    14    1
    17    14    15    1
    18    15    16    1
