@<TRIPOS>MOLECULE
26935_ChemDiv_8009-8764
 23 24 0 0 0
SMALL
GASTEIGER
Energy = 0

@<TRIPOS>ATOM
      1 C          -0.0790   -0.7920    0.0000 C.ar    1  LIG1        0.3099
      2 S           0.9380   -0.7920    0.0000 S.O2    1  LIG1        0.1129
      3 N           1.9330   -0.7750    0.0000 N.3     1  LIG1       -0.0688
      4 C           2.4330    0.0880    0.0000 C.3     1  LIG1        0.1540
      5 C           2.9290    0.9460    0.0000 C.2     1  LIG1        0.2766
      6 O           3.9250    0.9460    0.0000 O.2     1  LIG1       -0.2701
      7 N           2.4330    1.8130    0.0000 N.am    1  LIG1       -0.0866
      8 C           3.3130   -0.4290    0.0000 C.3     1  LIG1        0.0251
      9 C           4.1790    0.0710    0.0000 C.3     1  LIG1        0.0019
     10 C           3.3130   -1.4250    0.0000 C.3     1  LIG1        0.0019
     11 C           1.5670    0.5830    0.0000 C.3     1  LIG1        0.0288
     12 O           0.9170    0.2250    0.0000 O.2     1  LIG1       -0.1485
     13 O           0.9380   -1.7880    0.0000 O.2     1  LIG1       -0.1485
     14 N          -0.6540   -1.6170    0.0000 N.ar    1  LIG1       -0.1718
     15 C          -1.5920   -1.3130    0.0000 C.ar    1  LIG1        0.2550
     16 N          -1.5920   -0.2920    0.0000 N.ar    1  LIG1       -0.1978
     17 N          -0.6540    0.0130    0.0000 N.ar    1  LIG1       -0.1227
     18 C          -2.4500    0.2080    0.0000 C.ar    1  LIG1        0.0652
     19 C          -3.3130   -0.2920    0.0000 C.ar    1  LIG1        0.0297
     20 C          -3.3130   -1.3130    0.0000 C.ar    1  LIG1        0.0637
     21 N          -2.4500   -1.8080    0.0000 N.ar    1  LIG1       -0.2143
     22 C          -4.1830   -1.8080    0.0000 C.3     1  LIG1        0.0522
     23 C          -2.4500    1.1960    0.0000 C.3     1  LIG1        0.0523
@<TRIPOS>BOND
     1     1     2    1
     2     1    14   ar
     3     1    17   ar
     4     2     3    1
     5     2    12    2
     6     2    13    2
     7     3     4    1
     8     4     5    1
     9     4     8    1
    10     4    11    1
    11     5     6    2
    12     5     7   am
    13     8     9    1
    14     8    10    1
    15    14    15   ar
    16    15    16   ar
    17    15    21   ar
    18    16    17   ar
    19    16    18   ar
    20    18    19   ar
    21    18    23    1
    22    19    20   ar
    23    20    21   ar
    24    20    22    1
