@<TRIPOS>MOLECULE
26941_ChemDiv_8013-0380
 24 26 0 0 0
SMALL
GASTEIGER
Energy = 0

@<TRIPOS>ATOM
      1 C          -1.1830   -0.4790    0.0000 C.ar    1  LIG1        0.3099
      2 N          -1.7710   -1.2790    0.0000 N.ar    1  LIG1       -0.1718
      3 C          -2.7250   -0.9710    0.0000 C.ar    1  LIG1        0.2549
      4 N          -2.7250    0.0210    0.0000 N.ar    1  LIG1       -0.1981
      5 N          -1.7710    0.3210    0.0000 N.ar    1  LIG1       -0.1227
      6 C          -3.5790    0.5250    0.0000 C.ar    1  LIG1        0.0612
      7 C          -4.4380    0.0210    0.0000 C.ar    1  LIG1        0.0055
      8 C          -4.4380   -0.9920    0.0000 C.ar    1  LIG1        0.0597
      9 N          -3.5790   -1.4880    0.0000 N.ar    1  LIG1       -0.2146
     10 C          -5.3130   -1.5170    0.0000 C.3     1  LIG1        0.0519
     11 C          -5.3130    0.5580    0.0000 C.3     1  LIG1        0.0335
     12 C          -3.5790    1.5210    0.0000 C.3     1  LIG1        0.0520
     13 S          -0.1880   -0.4790    0.0000 S.O2    1  LIG1        0.1129
     14 N           0.8080   -0.4790    0.0000 N.3     1  LIG1       -0.0700
     15 C           1.3210    0.3830    0.0000 C.3     1  LIG1        0.1419
     16 C           2.3170    0.3750    0.0000 C.ar    1  LIG1       -0.0028
     17 C           2.8130    1.2330    0.0000 C.ar    1  LIG1       -0.0019
     18 C           3.8040    1.2330    0.0000 C.ar    1  LIG1        0.0111
     19 C           4.3080    0.3750    0.0000 C.ar    1  LIG1        0.0577
     20 CL          5.3080    0.3750    0.0000 Cl      1  LIG1       -0.0822
     21 C           3.8040   -0.5000    0.0000 C.ar    1  LIG1        0.0111
     22 C           2.8130   -0.5000    0.0000 C.ar    1  LIG1       -0.0019
     23 O          -0.1880    0.5250    0.0000 O.2     1  LIG1       -0.1485
     24 O          -0.1880   -1.4880    0.0000 O.2     1  LIG1       -0.1485
@<TRIPOS>BOND
     1     1     2   ar
     2     1     5   ar
     3     1    13    1
     4     2     3   ar
     5     3     4   ar
     6     3     9   ar
     7     4     5   ar
     8     4     6   ar
     9     6     7   ar
    10     6    12    1
    11     7     8   ar
    12     7    11    1
    13     8     9   ar
    14     8    10    1
    15    13    14    1
    16    13    23    2
    17    13    24    2
    18    14    15    1
    19    15    16    1
    20    16    17   ar
    21    16    22   ar
    22    17    18   ar
    23    18    19   ar
    24    19    20    1
    25    19    21   ar
    26    21    22   ar
