@<TRIPOS>MOLECULE
26947_ChemDiv_1499-0329
 22 23 0 0 0
SMALL
GASTEIGER
Energy = 0

@<TRIPOS>ATOM
      1 C           1.3170   -0.7460    0.0000 C.3     1  LIG1        0.2508
      2 C           1.3170   -1.7330    0.0000 C.2     1  LIG1        0.3123
      3 N           0.4460   -2.2330    0.0000 N.am    1  LIG1       -0.1728
      4 C          -0.4210   -1.7330    0.0000 C.ar    1  LIG1        0.0794
      5 C          -0.4210   -0.7460    0.0000 C.ar    1  LIG1        0.0461
      6 S           0.4460   -0.2540    0.0000 S.3     1  LIG1       -0.0440
      7 C          -1.2790   -0.2540    0.0000 C.ar    1  LIG1        0.0034
      8 C          -2.1460   -0.7460    0.0000 C.ar    1  LIG1       -0.0213
      9 C          -2.1460   -1.7330    0.0000 C.ar    1  LIG1       -0.0029
     10 C          -1.2790   -2.2330    0.0000 C.ar    1  LIG1        0.0168
     11 C          -3.0290   -0.2790    0.0000 C.3     1  LIG1        0.0310
     12 O           2.1960   -2.2000    0.0000 O.2     1  LIG1       -0.2654
     13 C           2.1710   -0.2790    0.0000 C.2     1  LIG1        0.3827
     14 O           3.0250   -0.7630    0.0000 O.2     1  LIG1       -0.2423
     15 O           2.1960    0.7080    0.0000 O.3     1  LIG1       -0.4437
     16 C           1.3330    1.2210    0.0000 C.3     1  LIG1        0.2088
     17 C           1.3580    2.2380    0.0000 C.3     1  LIG1        0.0513
     18 N           1.3170    0.2290    0.0000 N.4     1  LIG1        0.3904
     19 C           0.8790    1.1630    0.0000 C.3     1  LIG1        0.1408
     20 C          -0.1500    1.2630    0.0000 C.3     1  LIG1        0.0689
     21 C           0.4710    0.7540    0.0000 C.3     1  LIG1        0.1408
     22 C          -0.4670    0.2460    0.0000 C.3     1  LIG1        0.0689
@<TRIPOS>BOND
     1     1     2    1
     2     1     6    1
     3     1    13    1
     4     1    18    1
     5     2     3   am
     6     2    12    2
     7     3     4    1
     8     4     5   ar
     9     4    10   ar
    10     5     6    1
    11     5     7   ar
    12     7     8   ar
    13     8     9   ar
    14     8    11    1
    15     9    10   ar
    16    13    14    2
    17    13    15    1
    18    15    16    1
    19    16    17    1
    20    18    19    1
    21    18    21    1
    22    19    20    1
    23    21    22    1
