@<TRIPOS>MOLECULE
26943_ChemDiv_C121-0041
 30 33 0 0 0
SMALL
GASTEIGER
Energy = 0

@<TRIPOS>ATOM
      1 C          -0.4380   -0.6380    0.0000 C.ar    1  LIG1        0.2543
      2 N          -0.4380   -1.6420    0.0000 N.ar    1  LIG1       -0.1989
      3 C          -1.2920   -2.1420    0.0000 C.ar    1  LIG1        0.0615
      4 C          -2.1630   -1.6420    0.0000 C.ar    1  LIG1        0.0096
      5 C          -2.1630   -0.6380    0.0000 C.ar    1  LIG1        0.0600
      6 N          -1.2920   -0.1420    0.0000 N.ar    1  LIG1       -0.2146
      7 C          -3.0330   -0.1420    0.0000 C.3     1  LIG1        0.0519
      8 C          -3.0330   -2.1500    0.0000 C.3     1  LIG1        0.0547
      9 C          -3.9000   -1.6500    0.0000 C.ar    1  LIG1       -0.0216
     10 C          -4.7630   -2.1500    0.0000 C.ar    1  LIG1       -0.0255
     11 C          -4.7630   -3.1500    0.0000 C.3     1  LIG1        0.0307
     12 C          -5.6250   -1.6500    0.0000 C.ar    1  LIG1       -0.0046
     13 C          -5.6250   -0.6500    0.0000 C.ar    1  LIG1       -0.0003
     14 C          -4.7630   -0.1500    0.0000 C.ar    1  LIG1       -0.0003
     15 C          -3.9000   -0.6500    0.0000 C.ar    1  LIG1       -0.0042
     16 C          -1.2920   -3.1420    0.0000 C.3     1  LIG1        0.0520
     17 N           0.5210   -1.9460    0.0000 N.ar    1  LIG1       -0.1367
     18 C           1.1000   -1.1580    0.0000 C.ar    1  LIG1        0.2120
     19 N           0.5210   -0.3380    0.0000 N.ar    1  LIG1       -0.1834
     20 S           2.1040   -1.1710    0.0000 S.3     1  LIG1       -0.0642
     21 C           2.6080   -0.3170    0.0000 C.3     1  LIG1        0.1501
     22 C           3.6170   -0.3250    0.0000 C.2     1  LIG1        0.2371
     23 N           4.1210    0.5420    0.0000 N.am    1  LIG1       -0.2788
     24 C           3.6170    1.4040    0.0000 C.3     1  LIG1        0.0934
     25 C           4.1210    2.2750    0.0000 C.3     1  LIG1        0.0216
     26 C           5.1210    2.2750    0.0000 C.3     1  LIG1        0.0034
     27 C           5.6210    1.4040    0.0000 C.3     1  LIG1        0.0216
     28 C           5.1210    0.5420    0.0000 C.3     1  LIG1        0.0934
     29 C           5.6210    3.1540    0.0000 C.3     1  LIG1        0.0001
     30 O           4.1210   -1.1880    0.0000 O.2     1  LIG1       -0.2739
@<TRIPOS>BOND
     1     1     2   ar
     2     1     6   ar
     3     1    19   ar
     4     2     3   ar
     5     2    17   ar
     6     3     4   ar
     7     3    16    1
     8     4     5   ar
     9     4     8    1
    10     5     6   ar
    11     5     7    1
    12     8     9    1
    13     9    10   ar
    14     9    15   ar
    15    10    11    1
    16    10    12   ar
    17    12    13   ar
    18    13    14   ar
    19    14    15   ar
    20    17    18   ar
    21    18    19   ar
    22    18    20    1
    23    20    21    1
    24    21    22    1
    25    22    23   am
    26    22    30    2
    27    23    24    1
    28    23    28    1
    29    24    25    1
    30    25    26    1
    31    26    27    1
    32    26    29    1
    33    27    28    1
