@<TRIPOS>MOLECULE
26950_ChemDiv_1646-0128
 24 27 0 0 0
SMALL
GASTEIGER
Energy = 0

@<TRIPOS>ATOM
      1 N           0.3750    0.3460    0.0000 N.am    1  LIG1       -0.2224
      2 C           0.3580   -0.6290    0.0000 C.2     1  LIG1        0.3151
      3 N          -0.5290   -1.0830    0.0000 N.am    1  LIG1       -0.2515
      4 C          -1.3880   -0.5670    0.0000 C.3     1  LIG1        0.1577
      5 C          -2.2630   -1.0170    0.0000 C.3     1  LIG1        0.1609
      6 N          -2.3000   -1.9920    0.0000 N.4     1  LIG1        0.3847
      7 C          -1.4670   -2.5420    0.0000 C.3     1  LIG1        0.1609
      8 C          -0.5630   -2.0710    0.0000 C.3     1  LIG1        0.1577
      9 C          -3.1880   -2.4210    0.0000 C.3     1  LIG1        0.2024
     10 O           1.2210   -1.1630    0.0000 O.2     1  LIG1       -0.2516
     11 C          -0.5290    0.7540    0.0000 C.ar    1  LIG1        0.0556
     12 C          -0.7880    1.7500    0.0000 C.ar    1  LIG1       -0.0078
     13 C          -0.1710    2.5460    0.0000 C.3     1  LIG1        0.0323
     14 C           0.8000    2.5460    0.0000 C.3     1  LIG1        0.0323
     15 C           1.4790    1.8000    0.0000 C.ar    1  LIG1       -0.0078
     16 C           1.2790    0.7960    0.0000 C.ar    1  LIG1        0.0556
     17 C           2.0170    0.1540    0.0000 C.ar    1  LIG1        0.0150
     18 C           2.9710    0.4710    0.0000 C.ar    1  LIG1        0.0013
     19 C           3.1830    1.4460    0.0000 C.ar    1  LIG1       -0.0002
     20 C           2.4210    2.1130    0.0000 C.ar    1  LIG1       -0.0030
     21 C          -1.7580    2.0290    0.0000 C.ar    1  LIG1       -0.0030
     22 C          -2.4790    1.3130    0.0000 C.ar    1  LIG1       -0.0002
     23 C          -2.2330    0.3420    0.0000 C.ar    1  LIG1        0.0013
     24 C          -1.2460    0.0830    0.0000 C.ar    1  LIG1        0.0150
@<TRIPOS>BOND
     1     1     2   am
     2     1    11    1
     3     1    16    1
     4     2     3   am
     5     2    10    2
     6     3     4    1
     7     3     8    1
     8     4     5    1
     9     5     6    1
    10     6     7    1
    11     6     9    1
    12     7     8    1
    13    11    12   ar
    14    11    24   ar
    15    12    13    1
    16    12    21   ar
    17    13    14    1
    18    14    15    1
    19    15    16   ar
    20    15    20   ar
    21    16    17   ar
    22    17    18   ar
    23    18    19   ar
    24    19    20   ar
    25    21    22   ar
    26    22    23   ar
    27    23    24   ar
