@<TRIPOS>MOLECULE
26959_ChemDiv_4358-1217
 18 19 0 0 0
SMALL
GASTEIGER
Energy = 0

@<TRIPOS>ATOM
      1 C          -1.2830   -0.2420    0.0000 C.ar    1  LIG1        0.0512
      2 C          -0.4460    0.2580    0.0000 C.ar    1  LIG1        0.1507
      3 N           0.4290   -0.2420    0.0000 N.ar    1  LIG1       -0.2075
      4 C           0.4420   -1.2540    0.0000 C.ar    1  LIG1        0.2001
      5 N          -0.4210   -1.7420    0.0000 N.ar    1  LIG1       -0.2239
      6 C          -1.2830   -1.2540    0.0000 C.ar    1  LIG1        0.0858
      7 C          -2.1630   -1.7580    0.0000 C.ar    1  LIG1        0.0198
      8 C          -3.0170   -1.2580    0.0000 C.ar    1  LIG1        0.0082
      9 C          -3.0170   -0.2540    0.0000 C.ar    1  LIG1        0.0348
     10 C          -2.1630    0.2580    0.0000 C.ar    1  LIG1        0.0110
     11 BR         -3.8920    0.2460    0.0000 Br      1  LIG1       -0.0490
     12 N          -0.4460    1.2380    0.0000 N.pl3   1  LIG1       -0.2202
     13 C           0.4290    1.7460    0.0000 C.3     1  LIG1        0.1142
     14 C           1.2920    1.2500    0.0000 C.3     1  LIG1        0.0293
     15 C           2.1460    1.7630    0.0000 C.3     1  LIG1        0.0435
     16 C           3.0130    1.2630    0.0000 C.2     1  LIG1        0.0504
     17 O           3.0130    0.2670    0.0000 O.co2   1  LIG1       -0.5492
     18 O           3.8880    1.7630    0.0000 O.co2   1  LIG1       -0.5492
@<TRIPOS>BOND
     1     1     2   ar
     2     1     6   ar
     3     1    10   ar
     4     2     3   ar
     5     2    12    1
     6     3     4   ar
     7     4     5   ar
     8     5     6   ar
     9     6     7   ar
    10     7     8   ar
    11     8     9   ar
    12     9    10   ar
    13     9    11    1
    14    12    13    1
    15    13    14    1
    16    14    15    1
    17    15    16    1
    18    16    17   ar
    19    16    18   ar
