@<TRIPOS>MOLECULE
26952_ChemDiv_1646-0133
 26 29 0 0 0
SMALL
GASTEIGER
Energy = 0

@<TRIPOS>ATOM
      1 N           1.2290    0.3500    0.0000 N.am    1  LIG1       -0.2224
      2 C           1.2130   -0.6290    0.0000 C.2     1  LIG1        0.3151
      3 N           0.3250   -1.0830    0.0000 N.am    1  LIG1       -0.2515
      4 C          -0.5330   -0.5670    0.0000 C.3     1  LIG1        0.1577
      5 C          -1.4080   -1.0210    0.0000 C.3     1  LIG1        0.1607
      6 N          -1.4500   -1.9920    0.0000 N.4     1  LIG1        0.3821
      7 C          -0.6170   -2.5460    0.0000 C.3     1  LIG1        0.1607
      8 C           0.2920   -2.0750    0.0000 C.3     1  LIG1        0.1577
      9 C          -2.3330   -2.4250    0.0000 C.3     1  LIG1        0.1749
     10 C          -3.1630   -1.8790    0.0000 C.3     1  LIG1        0.2442
     11 O          -4.0420   -2.3170    0.0000 O.3     1  LIG1       -0.2137
     12 O           2.0750   -1.1670    0.0000 O.2     1  LIG1       -0.2516
     13 C           0.3250    0.7540    0.0000 C.ar    1  LIG1        0.0556
     14 C           0.0670    1.7540    0.0000 C.ar    1  LIG1       -0.0078
     15 C           0.6830    2.5500    0.0000 C.3     1  LIG1        0.0323
     16 C           1.6540    2.5500    0.0000 C.3     1  LIG1        0.0323
     17 C           2.3380    1.8040    0.0000 C.ar    1  LIG1       -0.0078
     18 C           2.1380    0.7960    0.0000 C.ar    1  LIG1        0.0556
     19 C           2.8710    0.1540    0.0000 C.ar    1  LIG1        0.0150
     20 C           3.8290    0.4710    0.0000 C.ar    1  LIG1        0.0013
     21 C           4.0370    1.4460    0.0000 C.ar    1  LIG1       -0.0002
     22 C           3.2750    2.1170    0.0000 C.ar    1  LIG1       -0.0030
     23 C          -0.9080    2.0290    0.0000 C.ar    1  LIG1       -0.0030
     24 C          -1.6250    1.3170    0.0000 C.ar    1  LIG1       -0.0002
     25 C          -1.3830    0.3420    0.0000 C.ar    1  LIG1        0.0013
     26 C          -0.3960    0.0830    0.0000 C.ar    1  LIG1        0.0150
@<TRIPOS>BOND
     1     1     2   am
     2     1    13    1
     3     1    18    1
     4     2     3   am
     5     2    12    2
     6     3     4    1
     7     3     8    1
     8     4     5    1
     9     5     6    1
    10     6     7    1
    11     6     9    1
    12     7     8    1
    13     9    10    1
    14    10    11    1
    15    13    14   ar
    16    13    26   ar
    17    14    15    1
    18    14    23   ar
    19    15    16    1
    20    16    17    1
    21    17    18   ar
    22    17    22   ar
    23    18    19   ar
    24    19    20   ar
    25    20    21   ar
    26    21    22   ar
    27    23    24   ar
    28    24    25   ar
    29    25    26   ar
