@<TRIPOS>MOLECULE
26956_ChemDiv_5570-0102
 24 27 0 0 0
SMALL
GASTEIGER
Energy = 0

@<TRIPOS>ATOM
      1 N           0.0080    1.1500    0.0000 N.am    1  LIG1       -0.2210
      2 C           0.0080    0.1460    0.0000 C.2     1  LIG1        0.3350
      3 N           0.8790   -0.3250    0.0000 N.am    1  LIG1       -0.1617
      4 C           0.8920   -1.3460    0.0000 C.ar    1  LIG1        0.0749
      5 C           1.7580   -1.8380    0.0000 C.ar    1  LIG1        0.0166
      6 C           1.7580   -2.8380    0.0000 C.ar    1  LIG1        0.0013
      7 C           0.8790   -3.3420    0.0000 C.ar    1  LIG1        0.0001
      8 C           0.0080   -2.8380    0.0000 C.ar    1  LIG1        0.0013
      9 C           0.0210   -1.8380    0.0000 C.ar    1  LIG1        0.0166
     10 O          -0.8460   -0.3420    0.0000 O.2     1  LIG1       -0.2497
     11 C          -0.8830    1.5960    0.0000 C.ar    1  LIG1        0.0556
     12 C          -1.1170    2.5630    0.0000 C.ar    1  LIG1       -0.0078
     13 C          -0.5210    3.3460    0.0000 C.3     1  LIG1        0.0323
     14 C           0.4750    3.3460    0.0000 C.3     1  LIG1        0.0323
     15 C           1.1130    2.5750    0.0000 C.ar    1  LIG1       -0.0078
     16 C           0.8920    1.5960    0.0000 C.ar    1  LIG1        0.0556
     17 C           1.6380    0.9210    0.0000 C.ar    1  LIG1        0.0150
     18 C           2.5750    1.2130    0.0000 C.ar    1  LIG1        0.0013
     19 C           2.8040    2.2130    0.0000 C.ar    1  LIG1       -0.0002
     20 C           2.0580    2.8790    0.0000 C.ar    1  LIG1       -0.0030
     21 C          -2.0790    2.8540    0.0000 C.ar    1  LIG1       -0.0030
     22 C          -2.8080    2.1540    0.0000 C.ar    1  LIG1       -0.0002
     23 C          -2.5580    1.1880    0.0000 C.ar    1  LIG1        0.0013
     24 C          -1.6250    0.8960    0.0000 C.ar    1  LIG1        0.0150
@<TRIPOS>BOND
     1     1     2   am
     2     1    11    1
     3     1    16    1
     4     2     3   am
     5     2    10    2
     6     3     4    1
     7     4     5   ar
     8     4     9   ar
     9     5     6   ar
    10     6     7   ar
    11     7     8   ar
    12     8     9   ar
    13    11    12   ar
    14    11    24   ar
    15    12    13    1
    16    12    21   ar
    17    13    14    1
    18    14    15    1
    19    15    16   ar
    20    15    20   ar
    21    16    17   ar
    22    17    18   ar
    23    18    19   ar
    24    19    20   ar
    25    21    22   ar
    26    22    23   ar
    27    23    24   ar
