@<TRIPOS>MOLECULE
26955_ChemDiv_3909-7952
 19 20 0 0 0
SMALL
GASTEIGER
Energy = 0

@<TRIPOS>ATOM
      1 C           0.4130   -3.0130    0.0000 C.ar    1  LIG1        0.0507
      2 C           1.2790   -2.4920    0.0000 C.ar    1  LIG1        0.1506
      3 N           2.1540   -2.9960    0.0000 N.ar    1  LIG1       -0.2075
      4 C           2.1540   -4.0130    0.0000 C.ar    1  LIG1        0.2001
      5 N           1.2790   -4.4960    0.0000 N.ar    1  LIG1       -0.2239
      6 C           0.4130   -4.0130    0.0000 C.ar    1  LIG1        0.0858
      7 C          -0.4420   -4.4960    0.0000 C.ar    1  LIG1        0.0192
      8 C          -1.3080   -4.0130    0.0000 C.ar    1  LIG1        0.0015
      9 C          -1.3080   -2.9960    0.0000 C.ar    1  LIG1        0.0002
     10 C          -0.4420   -2.4920    0.0000 C.ar    1  LIG1        0.0043
     11 N           1.2790   -1.5080    0.0000 N.pl3   1  LIG1       -0.2202
     12 C           0.4130   -1.0040    0.0000 C.3     1  LIG1        0.1138
     13 C           0.4130    0.0130    0.0000 C.3     1  LIG1        0.0234
     14 C          -0.4420    0.4960    0.0000 C.3     1  LIG1        0.0018
     15 C          -0.4420    1.5000    0.0000 C.3     1  LIG1        0.0001
     16 C          -1.2880    2.0170    0.0000 C.3     1  LIG1        0.0000
     17 C          -1.2880    3.0040    0.0000 C.3     1  LIG1        0.0000
     18 C          -2.1580    3.5040    0.0000 C.3     1  LIG1        0.0000
     19 C          -2.1580    4.4960    0.0000 C.3     1  LIG1        0.0000
@<TRIPOS>BOND
     1     1     2   ar
     2     1     6   ar
     3     1    10   ar
     4     2     3   ar
     5     2    11    1
     6     3     4   ar
     7     4     5   ar
     8     5     6   ar
     9     6     7   ar
    10     7     8   ar
    11     8     9   ar
    12     9    10   ar
    13    11    12    1
    14    12    13    1
    15    13    14    1
    16    14    15    1
    17    15    16    1
    18    16    17    1
    19    17    18    1
    20    18    19    1
