@<TRIPOS>MOLECULE
26957_ChemDiv_4300-0483
 21 22 0 0 0
SMALL
GASTEIGER
Energy = 0

@<TRIPOS>ATOM
      1 N           0.4170   -0.7580    0.0000 N.ar    1  LIG1       -0.2146
      2 C           0.4290   -1.7710    0.0000 C.ar    1  LIG1        0.1401
      3 N          -0.4210   -2.2790    0.0000 N.ar    1  LIG1       -0.2306
      4 C          -1.3000   -1.7790    0.0000 C.ar    1  LIG1        0.0854
      5 C          -1.3000   -0.7830    0.0000 C.ar    1  LIG1        0.0507
      6 C          -0.4330   -0.2750    0.0000 C.ar    1  LIG1        0.1502
      7 N          -0.4330    0.7170    0.0000 N.pl3   1  LIG1       -0.2198
      8 C           0.4000    1.2460    0.0000 C.3     1  LIG1        0.1197
      9 C           0.4000    2.2460    0.0000 C.3     1  LIG1        0.0651
     10 C           1.2500    2.7500    0.0000 C.2     1  LIG1        0.0521
     11 O           1.2500    3.7670    0.0000 O.co2   1  LIG1       -0.5491
     12 O           2.1420    2.2630    0.0000 O.co2   1  LIG1       -0.5491
     13 C          -2.1830   -0.2750    0.0000 C.ar    1  LIG1        0.0043
     14 C          -3.0330   -0.7830    0.0000 C.ar    1  LIG1        0.0002
     15 C          -3.0330   -1.7790    0.0000 C.ar    1  LIG1        0.0015
     16 C          -2.1710   -2.2790    0.0000 C.ar    1  LIG1        0.0192
     17 C           1.3080   -2.2580    0.0000 C.3     1  LIG1        0.0587
     18 C           2.1630   -1.7460    0.0000 C.3     1  LIG1        0.0075
     19 C           3.0290   -2.2420    0.0000 C.3     1  LIG1        0.0005
     20 C           1.3130   -3.2500    0.0000 C.3     1  LIG1        0.0075
     21 C           0.4420   -3.7630    0.0000 C.3     1  LIG1        0.0005
@<TRIPOS>BOND
     1     1     2   ar
     2     1     6   ar
     3     2     3   ar
     4     2    17    1
     5     3     4   ar
     6     4     5   ar
     7     4    16   ar
     8     5     6   ar
     9     5    13   ar
    10     6     7    1
    11     7     8    1
    12     8     9    1
    13     9    10    1
    14    10    11   ar
    15    10    12   ar
    16    13    14   ar
    17    14    15   ar
    18    15    16   ar
    19    17    18    1
    20    17    20    1
    21    18    19    1
    22    20    21    1
