@<TRIPOS>MOLECULE
26963_ChemDiv_C179-0735
 34 38 0 0 0
SMALL
GASTEIGER
Energy = 0

@<TRIPOS>ATOM
      1 C          -1.7290    1.0040    0.0000 C.ar    1  LIG1        0.2543
      2 N          -1.7380    2.0080    0.0000 N.ar    1  LIG1       -0.1989
      3 C          -2.6000    2.5080    0.0000 C.ar    1  LIG1        0.0615
      4 C          -3.4580    2.0080    0.0000 C.ar    1  LIG1        0.0096
      5 C          -3.4580    1.0040    0.0000 C.ar    1  LIG1        0.0600
      6 N          -2.6000    0.5040    0.0000 N.ar    1  LIG1       -0.2146
      7 C          -4.3330    0.5040    0.0000 C.3     1  LIG1        0.0519
      8 C          -4.3330    2.5000    0.0000 C.3     1  LIG1        0.0559
      9 C          -5.2000    2.0000    0.0000 C.ar    1  LIG1       -0.0071
     10 C          -6.0380    2.4920    0.0000 C.ar    1  LIG1        0.0540
     11 CL         -6.0330    3.5130    0.0000 Cl      1  LIG1       -0.0826
     12 C          -6.9080    2.0000    0.0000 C.ar    1  LIG1        0.0111
     13 C          -6.9250    1.0080    0.0000 C.ar    1  LIG1        0.0008
     14 C          -6.0580    0.5040    0.0000 C.ar    1  LIG1       -0.0003
     15 C          -5.1880    1.0040    0.0000 C.ar    1  LIG1       -0.0031
     16 C          -2.6000    3.5130    0.0000 C.3     1  LIG1        0.0520
     17 N          -0.7880    2.3170    0.0000 N.ar    1  LIG1       -0.1367
     18 C          -0.1920    1.5210    0.0000 C.ar    1  LIG1        0.2120
     19 N          -0.7830    0.7040    0.0000 N.ar    1  LIG1       -0.1834
     20 S           0.8000    1.5210    0.0000 S.3     1  LIG1       -0.0641
     21 C           1.3000    0.6580    0.0000 C.3     1  LIG1        0.1516
     22 C           2.3040    0.6580    0.0000 C.2     1  LIG1        0.2531
     23 N           2.8000   -0.2080    0.0000 N.am    1  LIG1       -0.1998
     24 C           3.7130   -0.2080    0.0000 C.3     1  LIG1        0.1416
     25 C           4.1290   -0.9630    0.0000 C.ar    1  LIG1        0.0027
     26 C           5.0710   -0.9830    0.0000 C.ar    1  LIG1        0.0376
     27 C           5.5420   -1.8210    0.0000 C.ar    1  LIG1        0.1762
     28 C           5.0330   -2.6670    0.0000 C.ar    1  LIG1        0.1764
     29 O           6.4080   -3.5080    0.0000 O.3     1  LIG1       -0.4346
     30 C           6.9250   -2.6670    0.0000 C.3     1  LIG1        0.4294
     31 O           6.4830   -1.8500    0.0000 O.3     1  LIG1       -0.4346
     32 C           4.0670   -2.6210    0.0000 C.ar    1  LIG1        0.0399
     33 C           3.6210   -1.8040    0.0000 C.ar    1  LIG1        0.0008
     34 O           2.8000    1.5210    0.0000 O.2     1  LIG1       -0.2724
@<TRIPOS>BOND
     1     1     2   ar
     2     1     6   ar
     3     1    19   ar
     4     2     3   ar
     5     2    17   ar
     6     3     4   ar
     7     3    16    1
     8     4     5   ar
     9     4     8    1
    10     5     6   ar
    11     5     7    1
    12     8     9    1
    13     9    10   ar
    14     9    15   ar
    15    10    11    1
    16    10    12   ar
    17    12    13   ar
    18    13    14   ar
    19    14    15   ar
    20    17    18   ar
    21    18    19   ar
    22    18    20    1
    23    20    21    1
    24    21    22    1
    25    22    23   am
    26    22    34    2
    27    23    24    1
    28    24    25    1
    29    25    26   ar
    30    25    33   ar
    31    26    27   ar
    32    27    28   ar
    33    27    31    1
    34    28    29    1
    35    28    32   ar
    36    29    30    1
    37    30    31    1
    38    32    33   ar
