@<TRIPOS>MOLECULE
26969_ChemDiv_C301-3628
 23 26 0 0 0
SMALL
GASTEIGER
Energy = 0

@<TRIPOS>ATOM
      1 N           0.8540    1.4830    0.0000 N.ar    1  LIG1       -0.1891
      2 C           0.8710    2.4880    0.0000 C.ar    1  LIG1        0.2544
      3 N           1.8210    2.7920    0.0000 N.ar    1  LIG1       -0.1933
      4 C           2.4080    1.9750    0.0000 C.ar    1  LIG1        0.1627
      5 N           1.8080    1.1630    0.0000 N.ar    1  LIG1       -0.1471
      6 C           3.4040    1.9580    0.0000 C.3     1  LIG1        0.0757
      7 N           0.0080    2.9880    0.0000 N.ar    1  LIG1       -0.2142
      8 C          -0.8580    2.4960    0.0000 C.ar    1  LIG1        0.0645
      9 C          -0.8710    1.4920    0.0000 C.ar    1  LIG1        0.0408
     10 C          -0.0080    0.9920    0.0000 C.ar    1  LIG1        0.1178
     11 S          -0.0080   -0.0040    0.0000 S.3     1  LIG1       -0.0486
     12 C          -0.0080   -1.0040    0.0000 C.ar    1  LIG1        0.1178
     13 N          -0.8710   -1.5040    0.0000 N.ar    1  LIG1       -0.1891
     14 C          -0.8710   -2.5000    0.0000 C.ar    1  LIG1        0.2544
     15 N          -1.8210   -2.8130    0.0000 N.ar    1  LIG1       -0.1933
     16 C          -2.4130   -2.0000    0.0000 C.ar    1  LIG1        0.1627
     17 N          -1.8210   -1.1830    0.0000 N.ar    1  LIG1       -0.1471
     18 C          -3.4080   -2.0000    0.0000 C.3     1  LIG1        0.0757
     19 N          -0.0080   -3.0000    0.0000 N.ar    1  LIG1       -0.2142
     20 C           0.8540   -2.5000    0.0000 C.ar    1  LIG1        0.0645
     21 C           0.8540   -1.5040    0.0000 C.ar    1  LIG1        0.0408
     22 C           1.7250   -3.0000    0.0000 C.3     1  LIG1        0.0523
     23 C          -1.7210    3.0040    0.0000 C.3     1  LIG1        0.0523
@<TRIPOS>BOND
     1     1     2   ar
     2     1     5   ar
     3     1    10   ar
     4     2     3   ar
     5     2     7   ar
     6     3     4   ar
     7     4     5   ar
     8     4     6    1
     9     7     8   ar
    10     8     9   ar
    11     8    23    1
    12     9    10   ar
    13    10    11    1
    14    11    12    1
    15    12    13   ar
    16    12    21   ar
    17    13    14   ar
    18    13    17   ar
    19    14    15   ar
    20    14    19   ar
    21    15    16   ar
    22    16    17   ar
    23    16    18    1
    24    19    20   ar
    25    20    21   ar
    26    20    22    1
