@<TRIPOS>MOLECULE
26977_ChemDiv_4491-1495
 20 21 0 0 0
SMALL
GASTEIGER
Energy = 0

@<TRIPOS>ATOM
      1 C          -2.1580   -0.2580    0.0000 C.ar    1  LIG1        0.0504
      2 C          -1.3080    0.2380    0.0000 C.ar    1  LIG1        0.1506
      3 N          -0.4330   -0.2540    0.0000 N.ar    1  LIG1       -0.2075
      4 C          -0.4330   -1.2540    0.0000 C.ar    1  LIG1        0.2001
      5 N          -1.2960   -1.7580    0.0000 N.ar    1  LIG1       -0.2239
      6 C          -2.1580   -1.2580    0.0000 C.ar    1  LIG1        0.0858
      7 C          -3.0330   -1.7670    0.0000 C.ar    1  LIG1        0.0189
      8 C          -3.8960   -1.2670    0.0000 C.ar    1  LIG1       -0.0027
      9 C          -3.8960   -0.2710    0.0000 C.ar    1  LIG1       -0.0217
     10 C          -3.0330    0.2380    0.0000 C.ar    1  LIG1        0.0001
     11 C          -4.7580    0.2290    0.0000 C.3     1  LIG1        0.0310
     12 N          -1.3080    1.2460    0.0000 N.pl3   1  LIG1       -0.2202
     13 C          -0.4500    1.7500    0.0000 C.3     1  LIG1        0.1138
     14 C           0.4250    1.2580    0.0000 C.3     1  LIG1        0.0234
     15 C           1.2880    1.7540    0.0000 C.3     1  LIG1        0.0022
     16 C           2.1540    1.2580    0.0000 C.3     1  LIG1        0.0060
     17 C           3.0170    1.7670    0.0000 C.3     1  LIG1        0.0417
     18 C           3.8880    1.2670    0.0000 C.2     1  LIG1        0.0503
     19 O           3.8880    0.2750    0.0000 O.co2   1  LIG1       -0.5492
     20 O           4.7540    1.7710    0.0000 O.co2   1  LIG1       -0.5492
@<TRIPOS>BOND
     1     1     2   ar
     2     1     6   ar
     3     1    10   ar
     4     2     3   ar
     5     2    12    1
     6     3     4   ar
     7     4     5   ar
     8     5     6   ar
     9     6     7   ar
    10     7     8   ar
    11     8     9   ar
    12     9    10   ar
    13     9    11    1
    14    12    13    1
    15    13    14    1
    16    14    15    1
    17    15    16    1
    18    16    17    1
    19    17    18    1
    20    18    19   ar
    21    18    20   ar
