@<TRIPOS>MOLECULE
26979_ChemDiv_5695-0711
 19 20 0 0 0
SMALL
GASTEIGER
Energy = 0

@<TRIPOS>ATOM
      1 C           0.4380   -1.4830    0.0000 C.ar    1  LIG1        0.1509
      2 C          -0.4170   -1.9880    0.0000 C.ar    1  LIG1        0.0507
      3 C          -0.4170   -2.9960    0.0000 C.ar    1  LIG1        0.0858
      4 N           0.4540   -3.4830    0.0000 N.ar    1  LIG1       -0.2239
      5 C           1.3040   -2.9790    0.0000 C.ar    1  LIG1        0.2001
      6 N           1.3040   -1.9710    0.0000 N.ar    1  LIG1       -0.2075
      7 C          -1.2790   -3.5000    0.0000 C.ar    1  LIG1        0.0192
      8 C          -2.1580   -2.9960    0.0000 C.ar    1  LIG1        0.0015
      9 C          -2.1580   -1.9880    0.0000 C.ar    1  LIG1        0.0002
     10 C          -1.2790   -1.4880    0.0000 C.ar    1  LIG1        0.0043
     11 N           0.4380   -0.4750    0.0000 N.pl3   1  LIG1       -0.2163
     12 CA          0.4130    0.5130    0.0000 C.3     1  LIG1        0.1300
     13 C          -0.4330    1.0130    0.0000 C.2     1  LIG1        0.0701
     14 O          -0.4330    2.0210    0.0000 O.co2   1  LIG1       -0.5474
     15 OXT        -1.2960    0.5130    0.0000 O.co2   1  LIG1       -0.5474
     16 C           1.2880    1.0130    0.0000 C.3     1  LIG1        0.0273
     17 C           1.2880    2.0210    0.0000 C.3     1  LIG1        0.0022
     18 C           2.1540    2.5080    0.0000 C.3     1  LIG1        0.0001
     19 C           2.1540    3.5040    0.0000 C.3     1  LIG1        0.0000
@<TRIPOS>BOND
     1     1     2   ar
     2     1     6   ar
     3     1    11    1
     4     2     3   ar
     5     2    10   ar
     6     3     4   ar
     7     3     7   ar
     8     4     5   ar
     9     5     6   ar
    10     7     8   ar
    11     8     9   ar
    12     9    10   ar
    13    11    12    1
    14    12    13    1
    15    12    16    1
    16    13    14   ar
    17    13    15   ar
    18    16    17    1
    19    17    18    1
    20    18    19    1
