@<TRIPOS>MOLECULE
26971_ChemDiv_K783-4324
 17 18 0 0 0
SMALL
GASTEIGER
Energy = 0

@<TRIPOS>ATOM
      1 C          -1.2630   -0.7420    0.0000 C.ar    1  LIG1        0.2543
      2 N          -0.3130   -1.0580    0.0000 N.ar    1  LIG1       -0.1834
      3 C           0.2750   -0.2460    0.0000 C.ar    1  LIG1        0.2118
      4 N          -0.3130    0.5580    0.0000 N.ar    1  LIG1       -0.1367
      5 N          -1.2630    0.2540    0.0000 N.ar    1  LIG1       -0.1986
      6 C          -2.1250    0.7500    0.0000 C.ar    1  LIG1        0.0652
      7 C          -2.9960    0.2540    0.0000 C.ar    1  LIG1        0.0297
      8 C          -2.9960   -0.7420    0.0000 C.ar    1  LIG1        0.0637
      9 N          -2.1250   -1.2500    0.0000 N.ar    1  LIG1       -0.2143
     10 C          -3.8710   -1.2540    0.0000 C.3     1  LIG1        0.0522
     11 C          -2.1250    1.7500    0.0000 C.3     1  LIG1        0.0523
     12 S           1.2710   -0.2580    0.0000 S.3     1  LIG1       -0.0692
     13 C           2.1420   -0.7540    0.0000 C.3     1  LIG1        0.0911
     14 C           3.0040   -0.2460    0.0000 C.2     1  LIG1        0.0605
     15 O           2.9920    0.7500    0.0000 O.co2   1  LIG1       -0.5483
     16 O           3.8670   -0.7420    0.0000 O.co2   1  LIG1       -0.5483
     17 C           2.1420   -1.7460    0.0000 C.3     1  LIG1        0.0181
@<TRIPOS>BOND
     1     1     2   ar
     2     1     5   ar
     3     1     9   ar
     4     2     3   ar
     5     3     4   ar
     6     3    12    1
     7     4     5   ar
     8     5     6   ar
     9     6     7   ar
    10     6    11    1
    11     7     8   ar
    12     8     9   ar
    13     8    10    1
    14    12    13    1
    15    13    14    1
    16    13    17    1
    17    14    15   ar
    18    14    16   ar
