@<TRIPOS>MOLECULE
26973_ChemDiv_K783-4326
 24 26 0 0 0
SMALL
GASTEIGER
Energy = 0

@<TRIPOS>ATOM
      1 C          -0.4080   -1.9920    0.0000 C.ar    1  LIG1        0.2543
      2 N          -0.4080   -0.9960    0.0000 N.ar    1  LIG1       -0.1989
      3 C          -1.2750   -0.4920    0.0000 C.ar    1  LIG1        0.0615
      4 C          -2.1420   -0.9960    0.0000 C.ar    1  LIG1        0.0096
      5 C          -2.1420   -1.9920    0.0000 C.ar    1  LIG1        0.0600
      6 N          -1.2750   -2.4880    0.0000 N.ar    1  LIG1       -0.2146
      7 C          -3.0210   -2.5040    0.0000 C.3     1  LIG1        0.0519
      8 C          -3.0040   -0.4920    0.0000 C.3     1  LIG1        0.0547
      9 C          -3.0040    0.5170    0.0000 C.ar    1  LIG1       -0.0216
     10 C          -3.8710    1.0040    0.0000 C.ar    1  LIG1       -0.0255
     11 C          -4.7290    0.5000    0.0000 C.3     1  LIG1        0.0307
     12 C          -3.8710    2.0000    0.0000 C.ar    1  LIG1       -0.0046
     13 C          -3.0040    2.5080    0.0000 C.ar    1  LIG1       -0.0003
     14 C          -2.1420    2.0080    0.0000 C.ar    1  LIG1       -0.0003
     15 C          -2.1420    1.0040    0.0000 C.ar    1  LIG1       -0.0042
     16 C          -1.2750    0.5170    0.0000 C.3     1  LIG1        0.0520
     17 N           0.5460   -0.6880    0.0000 N.ar    1  LIG1       -0.1367
     18 C           1.1330   -1.4920    0.0000 C.ar    1  LIG1        0.2119
     19 N           0.5460   -2.3040    0.0000 N.ar    1  LIG1       -0.1834
     20 S           2.1290   -1.5040    0.0000 S.3     1  LIG1       -0.0680
     21 C           3.0000   -1.9920    0.0000 C.3     1  LIG1        0.1066
     22 C           3.8630   -1.4920    0.0000 C.2     1  LIG1        0.0617
     23 O           3.8500   -0.4920    0.0000 O.co2   1  LIG1       -0.5483
     24 O           4.7250   -1.9920    0.0000 O.co2   1  LIG1       -0.5483
@<TRIPOS>BOND
     1     1     2   ar
     2     1     6   ar
     3     1    19   ar
     4     2     3   ar
     5     2    17   ar
     6     3     4   ar
     7     3    16    1
     8     4     5   ar
     9     4     8    1
    10     5     6   ar
    11     5     7    1
    12     8     9    1
    13     9    10   ar
    14     9    15   ar
    15    10    11    1
    16    10    12   ar
    17    12    13   ar
    18    13    14   ar
    19    14    15   ar
    20    17    18   ar
    21    18    19   ar
    22    18    20    1
    23    20    21    1
    24    21    22    1
    25    22    23   ar
    26    22    24   ar
