@<TRIPOS>MOLECULE
26987_ChemDiv_8011-7972
 20 22 0 0 0
SMALL
GASTEIGER
Energy = 0

@<TRIPOS>ATOM
      1 N           1.0000   -0.4330    0.0000 N.ar    1  LIG1       -0.2160
      2 C           0.5000    0.4420    0.0000 C.ar    1  LIG1        0.1344
      3 C          -0.5130    0.4420    0.0000 C.ar    1  LIG1        0.0493
      4 C          -1.0130   -0.4170    0.0000 C.ar    1  LIG1        0.0853
      5 N          -0.5130   -1.2920    0.0000 N.ar    1  LIG1       -0.2306
      6 C           0.5000   -1.2920    0.0000 C.ar    1  LIG1        0.1397
      7 C           1.0000   -2.1420    0.0000 C.3     1  LIG1        0.0524
      8 C           1.5210   -3.0170    0.0000 C.3     1  LIG1        0.0075
      9 C           1.8750   -1.6500    0.0000 C.3     1  LIG1        0.0075
     10 C           0.1460   -2.6630    0.0000 C.3     1  LIG1        0.0075
     11 C          -2.0040   -0.4170    0.0000 C.ar    1  LIG1        0.0192
     12 C          -2.5040    0.4540    0.0000 C.ar    1  LIG1        0.0015
     13 C          -2.0040    1.3080    0.0000 C.ar    1  LIG1        0.0002
     14 C          -1.0130    1.3080    0.0000 C.ar    1  LIG1        0.0043
     15 N           1.0000    1.2880    0.0000 N.pl3   1  LIG1       -0.2932
     16 C           2.0000    1.2880    0.0000 C.3     1  LIG1        0.0922
     17 C           2.5000    2.1460    0.0000 C.3     1  LIG1        0.0215
     18 C           2.0000    3.0210    0.0000 C.3     1  LIG1        0.0035
     19 C           1.0000    3.0210    0.0000 C.3     1  LIG1        0.0215
     20 C           0.5000    2.1460    0.0000 C.3     1  LIG1        0.0922
@<TRIPOS>BOND
     1     1     2   ar
     2     1     6   ar
     3     2     3   ar
     4     2    15    1
     5     3     4   ar
     6     3    14   ar
     7     4     5   ar
     8     4    11   ar
     9     5     6   ar
    10     6     7    1
    11     7     8    1
    12     7     9    1
    13     7    10    1
    14    11    12   ar
    15    12    13   ar
    16    13    14   ar
    17    15    16    1
    18    15    20    1
    19    16    17    1
    20    17    18    1
    21    18    19    1
    22    19    20    1
