@<TRIPOS>MOLECULE
26981_ChemDiv_5695-0716
 20 21 0 0 0
SMALL
GASTEIGER
Energy = 0

@<TRIPOS>ATOM
      1 C1          0.0080   -1.4920    0.0000 C.ar    1  <1>         0.1509
      2 C2         -0.8500   -1.9920    0.0000 C.ar    1  <1>         0.0507
      3 C3         -0.8500   -3.0000    0.0000 C.ar    1  <1>         0.0858
      4 N1          0.0250   -3.4920    0.0000 N.ar    1  <1>        -0.2239
      5 C4          0.8750   -2.9880    0.0000 C.ar    1  <1>         0.2001
      6 N2          0.8750   -1.9790    0.0000 N.ar    1  <1>        -0.2075
      7 C5         -1.7130   -3.5040    0.0000 C.ar    1  <1>         0.0192
      8 C6         -2.5880   -3.0000    0.0000 C.ar    1  <1>         0.0015
      9 C7         -2.5880   -1.9920    0.0000 C.ar    1  <1>         0.0002
     10 C8         -1.7130   -1.4960    0.0000 C.ar    1  <1>         0.0043
     11 N3          0.0080   -0.4830    0.0000 N.pl3   1  <1>        -0.2163
     12 C9         -0.0170    0.5040    0.0000 C.3     1  <1>         0.1305
     13 C10        -0.8630    1.0040    0.0000 C.2     1  <1>         0.0701
     14 O1         -0.8630    2.0130    0.0000 O.co2   1  <1>        -0.5474
     15 O2         -1.7250    0.5040    0.0000 O.co2   1  <1>        -0.5474
     16 C11         0.8540    1.0170    0.0000 C.3     1  <1>         0.0370
     17 C12         0.8540    2.0170    0.0000 C.3     1  <1>         0.0907
     18 C13         1.7210    2.5210    0.0000 C.2     1  <1>         0.2608
     19 O3          1.7210    3.5080    0.0000 O.2     1  <1>        -0.2717
     20 N4          2.5830    2.0170    0.0000 N.am    1  <1>        -0.0878
@<TRIPOS>BOND
     1     1     2   ar
     2     1     6   ar
     3     1    11    1
     4     2     3   ar
     5     2    10   ar
     6     3     4   ar
     7     3     7   ar
     8     4     5   ar
     9     5     6   ar
    10     7     8   ar
    11     8     9   ar
    12     9    10   ar
    13    11    12    1
    14    12    13    1
    15    12    16    1
    16    13    14   ar
    17    13    15   ar
    18    16    17    1
    19    17    18    1
    20    18    19    2
    21    18    20   am
