@<TRIPOS>MOLECULE
26983_ChemDiv_5695-0733
 20 21 0 0 0
SMALL
GASTEIGER
Energy = 0

@<TRIPOS>ATOM
      1 C           0.8830   -1.4750    0.0000 C.ar    1  LIG1        0.1509
      2 C          -0.0080   -2.0000    0.0000 C.ar    1  LIG1        0.0512
      3 C          -0.0080   -2.9920    0.0000 C.ar    1  LIG1        0.0858
      4 N           0.8830   -3.5000    0.0000 N.ar    1  LIG1       -0.2239
      5 C           1.7500   -2.9920    0.0000 C.ar    1  LIG1        0.2001
      6 N           1.7380   -1.9880    0.0000 N.ar    1  LIG1       -0.2075
      7 C          -0.8540   -3.5080    0.0000 C.ar    1  LIG1        0.0198
      8 C          -1.7250   -3.0080    0.0000 C.ar    1  LIG1        0.0082
      9 C          -1.7250   -2.0000    0.0000 C.ar    1  LIG1        0.0348
     10 C          -0.8540   -1.5000    0.0000 C.ar    1  LIG1        0.0110
     11 BR         -2.5880   -1.4920    0.0000 Br      1  LIG1       -0.0490
     12 N           0.8670   -0.4880    0.0000 N.pl3   1  LIG1       -0.2163
     13 CA          0.8580    0.5250    0.0000 C.3     1  LIG1        0.1300
     14 C          -0.0080    1.0250    0.0000 C.2     1  LIG1        0.0701
     15 O          -0.0080    2.0000    0.0000 O.co2   1  LIG1       -0.5474
     16 OXT        -0.8710    0.5250    0.0000 O.co2   1  LIG1       -0.5474
     17 C           1.7290    1.0250    0.0000 C.3     1  LIG1        0.0273
     18 C           1.7290    2.0000    0.0000 C.3     1  LIG1        0.0022
     19 C           2.5830    2.5130    0.0000 C.3     1  LIG1        0.0001
     20 C           2.5830    3.5130    0.0000 C.3     1  LIG1        0.0000
@<TRIPOS>BOND
     1     1     2   ar
     2     1     6   ar
     3     1    12    1
     4     2     3   ar
     5     2    10   ar
     6     3     4   ar
     7     3     7   ar
     8     4     5   ar
     9     5     6   ar
    10     7     8   ar
    11     8     9   ar
    12     9    10   ar
    13     9    11    1
    14    12    13    1
    15    13    14    1
    16    13    17    1
    17    14    15   ar
    18    14    16   ar
    19    17    18    1
    20    18    19    1
    21    19    20    1
