@<TRIPOS>MOLECULE
26999_ChemDiv_K784-9117
 27 30 0 0 0
SMALL
GASTEIGER
Energy = 0

@<TRIPOS>ATOM
      1 C          -3.7670   -1.7210    0.0000 C.ar    1  LIG1        0.2543
      2 N          -3.7670   -0.7210    0.0000 N.ar    1  LIG1       -0.1986
      3 N          -2.8210   -0.4080    0.0000 N.ar    1  LIG1       -0.1367
      4 C          -2.2330   -1.2250    0.0000 C.ar    1  LIG1        0.2115
      5 N          -2.8210   -2.0290    0.0000 N.ar    1  LIG1       -0.1834
      6 S          -1.2330   -1.2250    0.0000 S.3     1  LIG1       -0.0735
      7 C          -0.7330   -0.3630    0.0000 C.3     1  LIG1        0.0748
      8 C           0.2670   -0.3630    0.0000 C.3     1  LIG1        0.0989
      9 C           0.7670    0.5000    0.0000 C.2     1  LIG1        0.2426
     10 N           1.7750    0.5000    0.0000 N.am    1  LIG1       -0.2005
     11 C           2.2750    1.3630    0.0000 C.3     1  LIG1        0.1416
     12 C           3.2750    1.3630    0.0000 C.ar    1  LIG1        0.0027
     13 C           3.7750    0.4880    0.0000 C.ar    1  LIG1        0.0376
     14 C           4.7830    0.4880    0.0000 C.ar    1  LIG1        0.1762
     15 C           5.2750    1.3630    0.0000 C.ar    1  LIG1        0.1764
     16 O           6.2580    1.1540    0.0000 O.3     1  LIG1       -0.4346
     17 C           6.3630    0.1670    0.0000 C.3     1  LIG1        0.4294
     18 O           5.4540   -0.2540    0.0000 O.3     1  LIG1       -0.4346
     19 C           4.7710    2.2290    0.0000 C.ar    1  LIG1        0.0399
     20 C           3.7710    2.2250    0.0000 C.ar    1  LIG1        0.0008
     21 O           0.2670    1.3630    0.0000 O.2     1  LIG1       -0.2733
     22 C          -4.6290   -0.2210    0.0000 C.ar    1  LIG1        0.0652
     23 C          -5.5000   -0.7210    0.0000 C.ar    1  LIG1        0.0297
     24 C          -5.5000   -1.7210    0.0000 C.ar    1  LIG1        0.0637
     25 N          -4.6290   -2.2210    0.0000 N.ar    1  LIG1       -0.2143
     26 C          -6.3630   -2.2250    0.0000 C.3     1  LIG1        0.0522
     27 C          -4.6290    0.7750    0.0000 C.3     1  LIG1        0.0523
@<TRIPOS>BOND
     1     1     2   ar
     2     1     5   ar
     3     1    25   ar
     4     2     3   ar
     5     2    22   ar
     6     3     4   ar
     7     4     5   ar
     8     4     6    1
     9     6     7    1
    10     7     8    1
    11     8     9    1
    12     9    10   am
    13     9    21    2
    14    10    11    1
    15    11    12    1
    16    12    13   ar
    17    12    20   ar
    18    13    14   ar
    19    14    15   ar
    20    14    18    1
    21    15    16    1
    22    15    19   ar
    23    16    17    1
    24    17    18    1
    25    19    20   ar
    26    22    23   ar
    27    22    27    1
    28    23    24   ar
    29    24    25   ar
    30    24    26    1
