@<TRIPOS>MOLECULE
26995_ChemDiv_K784-6435
 24 25 0 0 0
SMALL
GASTEIGER
Energy = 0

@<TRIPOS>ATOM
      1 C          -3.4290   -0.7630    0.0000 C.ar    1  LIG1        0.2543
      2 N          -3.4380    0.2380    0.0000 N.ar    1  LIG1       -0.1986
      3 N          -2.4830    0.5460    0.0000 N.ar    1  LIG1       -0.1367
      4 C          -1.8920   -0.2500    0.0000 C.ar    1  LIG1        0.2120
      5 N          -2.4750   -1.0670    0.0000 N.ar    1  LIG1       -0.1834
      6 S          -0.8830   -0.2500    0.0000 S.3     1  LIG1       -0.0641
      7 C          -0.0170    0.2500    0.0000 C.3     1  LIG1        0.1516
      8 C           0.8500   -0.2500    0.0000 C.2     1  LIG1        0.2528
      9 O           1.7210    0.2500    0.0000 O.2     1  LIG1       -0.2724
     10 N           0.8500   -1.2460    0.0000 N.am    1  LIG1       -0.2045
     11 C           1.7130   -1.7460    0.0000 C.3     1  LIG1        0.1213
     12 C           2.5750   -1.2460    0.0000 C.3     1  LIG1        0.0861
     13 C           3.4380   -1.7420    0.0000 C.3     1  LIG1        0.1404
     14 N           4.3000   -1.2420    0.0000 N.4     1  LIG1        0.3773
     15 C           5.1670   -1.7330    0.0000 C.3     1  LIG1        0.1388
     16 C           6.0290   -1.2330    0.0000 C.3     1  LIG1        0.0688
     17 C           4.3000   -0.2500    0.0000 C.3     1  LIG1        0.1388
     18 C           5.1670    0.2500    0.0000 C.3     1  LIG1        0.0688
     19 C          -4.3000    0.7420    0.0000 C.ar    1  LIG1        0.0652
     20 C          -5.1630    0.2380    0.0000 C.ar    1  LIG1        0.0297
     21 C          -5.1630   -0.7710    0.0000 C.ar    1  LIG1        0.0637
     22 N          -4.3000   -1.2630    0.0000 N.ar    1  LIG1       -0.2143
     23 C          -6.0290   -1.2790    0.0000 C.3     1  LIG1        0.0522
     24 C          -4.3000    1.7500    0.0000 C.3     1  LIG1        0.0523
@<TRIPOS>BOND
     1     1     2   ar
     2     1     5   ar
     3     1    22   ar
     4     2     3   ar
     5     2    19   ar
     6     3     4   ar
     7     4     5   ar
     8     4     6    1
     9     6     7    1
    10     7     8    1
    11     8     9    2
    12     8    10   am
    13    10    11    1
    14    11    12    1
    15    12    13    1
    16    13    14    1
    17    14    15    1
    18    14    17    1
    19    15    16    1
    20    17    18    1
    21    19    20   ar
    22    19    24    1
    23    20    21   ar
    24    21    22   ar
    25    21    23    1
