@<TRIPOS>MOLECULE
26991_ChemDiv_1502-0764
 21 23 0 0 0
SMALL
GASTEIGER
Energy = 0

@<TRIPOS>ATOM
      1 N           0.0000   -0.4500    0.0000 N.pl3   1  LIG1       -0.1451
      2 C          -0.8540   -0.9460    0.0000 C.cat   1  LIG1        0.4588
      3 N          -1.7290   -0.4380    0.0000 N.2     1  LIG1        0.0023
      4 C          -1.7290    0.5630    0.0000 C.cat   1  LIG1        0.4948
      5 N          -0.8540    1.0580    0.0000 N.2     1  LIG1       -0.0625
      6 C           0.0000    0.5630    0.0000 C.3     1  LIG1        0.2581
      7 C           0.8880    1.0790    0.0000 C.ar    1  LIG1        0.0431
      8 C           1.7420    0.5750    0.0000 C.ar    1  LIG1        0.0018
      9 C           2.6130    1.0790    0.0000 C.ar    1  LIG1       -0.0001
     10 C           2.6130    2.0630    0.0000 C.ar    1  LIG1       -0.0000
     11 C           1.7420    2.5710    0.0000 C.ar    1  LIG1       -0.0001
     12 C           0.8880    2.0710    0.0000 C.ar    1  LIG1        0.0018
     13 N          -2.6170    1.0460    0.0000 N.pl3   1  LIG1        0.1498
     14 N          -0.8540   -1.9460    0.0000 N.pl3   1  LIG1        0.1446
     15 C           0.7920   -1.0710    0.0000 C.ar    1  LIG1        0.1151
     16 C           1.6500   -0.5750    0.0000 C.ar    1  LIG1        0.0315
     17 C           2.5210   -1.0710    0.0000 C.ar    1  LIG1        0.0027
     18 C           2.5210   -2.0540    0.0000 C.ar    1  LIG1        0.0002
     19 C           1.6500   -2.5670    0.0000 C.ar    1  LIG1        0.0027
     20 C           0.7920   -2.0710    0.0000 C.ar    1  LIG1        0.0315
     21 H           0.0000    1.5580    0.0000 H       1  LIG1        0.1188
@<TRIPOS>BOND
     1     1     2    1
     2     1     6    1
     3     1    15    1
     4     2     3    2
     5     2    14    1
     6     3     4    1
     7     4     5    2
     8     4    13    1
     9     5     6    1
    10     6     7    1
    11     6    21    1
    12     7     8   ar
    13     7    12   ar
    14     8     9   ar
    15     9    10   ar
    16    10    11   ar
    17    11    12   ar
    18    15    16   ar
    19    15    20   ar
    20    16    17   ar
    21    17    18   ar
    22    18    19   ar
    23    19    20   ar
