@<TRIPOS>MOLECULE
26997_ChemDiv_K784-7481
 32 35 0 0 0
SMALL
GASTEIGER
Energy = 0

@<TRIPOS>ATOM
      1 C          -3.4080   -1.7580    0.0000 C.ar    1  LIG1        0.2543
      2 N          -3.4080   -0.7580    0.0000 N.ar    1  LIG1       -0.1989
      3 C          -4.2790   -0.2580    0.0000 C.ar    1  LIG1        0.0615
      4 C          -5.1500   -0.7580    0.0000 C.ar    1  LIG1        0.0096
      5 C          -5.1500   -1.7670    0.0000 C.ar    1  LIG1        0.0600
      6 N          -4.2790   -2.2670    0.0000 N.ar    1  LIG1       -0.2146
      7 C          -6.0080   -2.2710    0.0000 C.3     1  LIG1        0.0519
      8 C          -6.0080   -0.2580    0.0000 C.3     1  LIG1        0.0550
      9 C          -6.0130    0.7420    0.0000 C.ar    1  LIG1       -0.0177
     10 C          -5.1500    1.2540    0.0000 C.ar    1  LIG1       -0.0039
     11 C          -5.1500    2.2540    0.0000 C.ar    1  LIG1       -0.0003
     12 C          -6.0250    2.7540    0.0000 C.ar    1  LIG1       -0.0000
     13 C          -6.8920    2.2380    0.0000 C.ar    1  LIG1       -0.0003
     14 C          -6.8880    1.2420    0.0000 C.ar    1  LIG1       -0.0039
     15 C          -4.2790    0.7460    0.0000 C.3     1  LIG1        0.0520
     16 N          -2.4580   -0.4540    0.0000 N.ar    1  LIG1       -0.1367
     17 C          -1.8710   -1.2580    0.0000 C.ar    1  LIG1        0.2120
     18 N          -2.4580   -2.0710    0.0000 N.ar    1  LIG1       -0.1834
     19 S          -0.8670   -1.2580    0.0000 S.3     1  LIG1       -0.0641
     20 C          -0.0040   -0.7580    0.0000 C.3     1  LIG1        0.1520
     21 C           0.8580   -1.2580    0.0000 C.2     1  LIG1        0.2570
     22 N           1.7210   -0.7580    0.0000 N.am    1  LIG1       -0.1785
     23 C           2.5830   -1.2580    0.0000 C.ar    1  LIG1        0.0736
     24 C           2.5790   -2.2500    0.0000 C.ar    1  LIG1        0.0197
     25 C           3.4290   -2.7500    0.0000 C.ar    1  LIG1        0.0382
     26 C           4.3040   -2.2540    0.0000 C.ar    1  LIG1        0.1386
     27 C           4.2960   -1.2500    0.0000 C.ar    1  LIG1        0.0382
     28 C           3.4420   -0.7580    0.0000 C.ar    1  LIG1        0.0197
     29 O           5.1580   -2.7500    0.0000 O.3     1  LIG1       -0.4755
     30 C           6.0290   -2.2500    0.0000 C.3     1  LIG1        0.2055
     31 C           6.8920   -2.7500    0.0000 C.3     1  LIG1        0.0512
     32 O           0.8580   -2.2540    0.0000 O.2     1  LIG1       -0.2720
@<TRIPOS>BOND
     1     1     2   ar
     2     1     6   ar
     3     1    18   ar
     4     2     3   ar
     5     2    16   ar
     6     3     4   ar
     7     3    15    1
     8     4     5   ar
     9     4     8    1
    10     5     6   ar
    11     5     7    1
    12     8     9    1
    13     9    10   ar
    14     9    14   ar
    15    10    11   ar
    16    11    12   ar
    17    12    13   ar
    18    13    14   ar
    19    16    17   ar
    20    17    18   ar
    21    17    19    1
    22    19    20    1
    23    20    21    1
    24    21    22   am
    25    21    32    2
    26    22    23    1
    27    23    24   ar
    28    23    28   ar
    29    24    25   ar
    30    25    26   ar
    31    26    27   ar
    32    26    29    1
    33    27    28   ar
    34    29    30    1
    35    30    31    1
