@<TRIPOS>MOLECULE
27008_ChemDiv_8017-4040
 16 18 0 0 0
SMALL
GASTEIGER
Energy = 0

@<TRIPOS>ATOM
      1 C           1.3960    0.7580    0.0000 C.ar    1  LIG1        0.1537
      2 C           1.3960   -0.2460    0.0000 C.ar    1  LIG1        0.1452
      3 C           0.5330   -0.7540    0.0000 C.ar    1  LIG1        0.0387
      4 C          -0.3380   -0.2460    0.0000 C.ar    1  LIG1        0.0505
      5 C          -0.3380    0.7580    0.0000 C.ar    1  LIG1        0.0276
      6 C           0.5330    1.2500    0.0000 C.ar    1  LIG1        0.0813
      7 CL          0.5330    2.2500    0.0000 Cl      1  LIG1       -0.0805
      8 N          -1.2080   -0.7460    0.0000 N.pl3   1  LIG1       -0.3027
      9 C          -1.2080   -1.7460    0.0000 C.3     1  LIG1        0.1231
     10 C          -2.0710   -2.2460    0.0000 C.3     1  LIG1        0.1636
     11 O          -2.9380   -1.7460    0.0000 O.3     1  LIG1       -0.3501
     12 C          -2.9380   -0.7460    0.0000 C.3     1  LIG1        0.1636
     13 C          -2.0710   -0.2540    0.0000 C.3     1  LIG1        0.1231
     14 N           2.3460   -0.5580    0.0000 N.ar    1  LIG1       -0.0482
     15 O           2.9330    0.2580    0.0000 O.2     1  LIG1       -0.2415
     16 N           2.3460    1.0630    0.0000 N.ar    1  LIG1       -0.0474
@<TRIPOS>BOND
     1     1     2   ar
     2     1     6   ar
     3     1    16   ar
     4     2     3   ar
     5     2    14   ar
     6     3     4   ar
     7     4     5   ar
     8     4     8    1
     9     5     6   ar
    10     6     7    1
    11     8     9    1
    12     8    13    1
    13     9    10    1
    14    10    11    1
    15    11    12    1
    16    12    13    1
    17    14    15   ar
    18    15    16   ar
