@<TRIPOS>MOLECULE
27009_ChemDiv_1503-0651
 25 28 0 0 0
SMALL
GASTEIGER
Energy = 0

@<TRIPOS>ATOM
      1 C           0.2750    1.0330    0.0000 C.ar    1  LIG1        0.1520
      2 C           0.5960    0.0290    0.0000 C.ar    1  LIG1        0.2977
      3 N           1.6290    0.0290    0.0000 N.ar    1  LIG1       -0.2132
      4 N           1.9500    1.0330    0.0000 N.ar    1  LIG1       -0.2644
      5 C           1.1080    1.6080    0.0000 C.ar    1  LIG1        0.0769
      6 C           1.2830    2.5750    0.0000 C.3     1  LIG1        0.0534
      7 C           2.7580    1.1580    0.0000 C.3     1  LIG1        0.1518
      8 C           2.1960   -0.7880    0.0000 C.ar    1  LIG1        0.0842
      9 C           3.2000   -0.7040    0.0000 C.ar    1  LIG1        0.0192
     10 C           3.7750   -1.5250    0.0000 C.ar    1  LIG1        0.0015
     11 C           3.3460   -2.4500    0.0000 C.ar    1  LIG1        0.0001
     12 C           2.3420   -2.5380    0.0000 C.ar    1  LIG1        0.0015
     13 C           1.7750   -1.7000    0.0000 C.ar    1  LIG1        0.0192
     14 O           0.1290   -0.5960    0.0000 O.2     1  LIG1       -0.2635
     15 N          -0.7500    1.4750    0.0000 N.2     1  LIG1       -0.2378
     16 C          -1.6210    1.1960    0.0000 C.2     1  LIG1        0.0991
     17 C          -1.8170    0.2420    0.0000 C.ar    1  LIG1        0.0224
     18 C          -2.7500   -0.0750    0.0000 C.ar    1  LIG1        0.0417
     19 C          -2.9500   -1.0420    0.0000 C.ar    1  LIG1        0.1765
     20 C          -2.2130   -1.7000    0.0000 C.ar    1  LIG1        0.1764
     21 O          -2.2830   -2.5710    0.0000 O.3     1  LIG1       -0.4346
     22 C          -3.7790   -2.4830    0.0000 C.3     1  LIG1        0.4294
     23 O          -3.7250   -1.4710    0.0000 O.3     1  LIG1       -0.4346
     24 C          -1.2790   -1.3920    0.0000 C.ar    1  LIG1        0.0402
     25 C          -1.0880   -0.4130    0.0000 C.ar    1  LIG1        0.0049
@<TRIPOS>BOND
     1     1     2   ar
     2     1     5   ar
     3     1    15    1
     4     2     3   ar
     5     2    14    2
     6     3     4   ar
     7     3     8    1
     8     4     5   ar
     9     4     7    1
    10     5     6    1
    11     8     9   ar
    12     8    13   ar
    13     9    10   ar
    14    10    11   ar
    15    11    12   ar
    16    12    13   ar
    17    15    16    2
    18    16    17    1
    19    17    18   ar
    20    17    25   ar
    21    18    19   ar
    22    19    20   ar
    23    19    23    1
    24    20    21    1
    25    20    24   ar
    26    21    22    1
    27    22    23    1
    28    24    25   ar
