@<TRIPOS>MOLECULE
27007_ChemDiv_1546-0006
 15 16 0 0 0
SMALL
GASTEIGER
Energy = 0

@<TRIPOS>ATOM
      1 C           0.5000    0.1420    0.0000 C.ar    1  LIG1        0.1469
      2 N           0.6710   -0.8460    0.0000 N.ar    1  LIG1       -0.2624
      3 C           1.6830   -0.9540    0.0000 C.ar    1  LIG1        0.3808
      4 N           2.0830   -0.0710    0.0000 N.ar    1  LIG1       -0.1357
      5 C           1.3580    0.6000    0.0000 C.ar    1  LIG1        0.3073
      6 C           3.0670    0.1130    0.0000 C.3     1  LIG1        0.4098
      7 C          -0.0040   -1.5670    0.0000 C.3     1  LIG1        0.1365
      8 C          -0.4170    0.5540    0.0000 C.3     1  LIG1        0.2182
      9 C          -1.3420    0.0920    0.0000 C.ar    1  LIG1        0.0136
     10 C          -2.1960    0.5880    0.0000 C.ar    1  LIG1       -0.0015
     11 C          -3.0710    0.0920    0.0000 C.ar    1  LIG1       -0.0002
     12 C          -3.0710   -0.9130    0.0000 C.ar    1  LIG1       -0.0000
     13 C          -2.1960   -1.4210    0.0000 C.ar    1  LIG1       -0.0002
     14 C          -1.3420   -0.9130    0.0000 C.ar    1  LIG1       -0.0015
     15 O          -0.3830    1.5710    0.0000 O.3     1  LIG1       -0.2116
@<TRIPOS>BOND
     1     1     2   ar
     2     1     5   ar
     3     1     8    1
     4     2     3   ar
     5     2     7    1
     6     3     4   ar
     7     4     5   ar
     8     4     6    1
     9     8     9    1
    10     8    15    1
    11     9    10   ar
    12     9    14   ar
    13    10    11   ar
    14    11    12   ar
    15    12    13   ar
    16    13    14   ar
