@<TRIPOS>MOLECULE
27013_ChemDiv_8006-1501
 30 34 0 0 0
SMALL
GASTEIGER
Energy = 0

@<TRIPOS>ATOM
      1 C          -0.1880   -0.7750    0.0000 C.ar    1  LIG1        0.1520
      2 C          -0.8130   -0.0670    0.0000 C.ar    1  LIG1        0.2977
      3 N          -1.7290   -0.4750    0.0000 N.ar    1  LIG1       -0.2132
      4 N          -1.6460   -1.4080    0.0000 N.ar    1  LIG1       -0.2644
      5 C          -0.6920   -1.6290    0.0000 C.ar    1  LIG1        0.0769
      6 C          -0.3080   -2.6250    0.0000 C.3     1  LIG1        0.0534
      7 C          -2.5000   -2.1000    0.0000 C.3     1  LIG1        0.1518
      8 C          -2.6420   -0.0290    0.0000 C.ar    1  LIG1        0.0842
      9 C          -3.4630   -0.5960    0.0000 C.ar    1  LIG1        0.0192
     10 C          -4.4080   -0.1670    0.0000 C.ar    1  LIG1        0.0015
     11 C          -4.4330    0.8420    0.0000 C.ar    1  LIG1        0.0001
     12 C          -3.6380    1.4040    0.0000 C.ar    1  LIG1        0.0015
     13 C          -2.7250    0.9380    0.0000 C.ar    1  LIG1        0.0192
     14 O          -0.6330    0.8420    0.0000 O.2     1  LIG1       -0.2635
     15 N           0.7710   -0.8380    0.0000 N.2     1  LIG1       -0.2378
     16 C           1.2540   -0.0040    0.0000 C.2     1  LIG1        0.0990
     17 C           2.3500   -0.0040    0.0000 C.ar    1  LIG1        0.0191
     18 C           2.8420    0.9040    0.0000 C.ar    1  LIG1        0.0015
     19 C           3.8380    0.9250    0.0000 C.ar    1  LIG1        0.0000
     20 C           4.4040    0.0790    0.0000 C.ar    1  LIG1        0.0000
     21 C           3.9000   -0.7540    0.0000 C.ar    1  LIG1        0.0000
     22 C           2.8580   -0.7750    0.0000 C.ar    1  LIG1        0.0015
     23 C           2.4130   -1.6290    0.0000 C.ar    1  LIG1        0.0000
     24 C           2.9250   -2.5040    0.0000 C.ar    1  LIG1        0.0000
     25 C           3.9750   -2.4830    0.0000 C.ar    1  LIG1        0.0000
     26 C           4.4290   -1.5920    0.0000 C.ar    1  LIG1        0.0000
     27 C           4.3210    1.7920    0.0000 C.ar    1  LIG1        0.0000
     28 C           3.7960    2.6290    0.0000 C.ar    1  LIG1        0.0000
     29 C           2.7960    2.5670    0.0000 C.ar    1  LIG1        0.0000
     30 C           2.2540    1.7540    0.0000 C.ar    1  LIG1        0.0000
@<TRIPOS>BOND
     1     1     2   ar
     2     1     5   ar
     3     1    15    1
     4     2     3   ar
     5     2    14    2
     6     3     4   ar
     7     3     8    1
     8     4     5   ar
     9     4     7    1
    10     5     6    1
    11     8     9   ar
    12     8    13   ar
    13     9    10   ar
    14    10    11   ar
    15    11    12   ar
    16    12    13   ar
    17    15    16    2
    18    16    17    1
    19    17    18   ar
    20    17    22   ar
    21    18    19   ar
    22    18    30   ar
    23    19    20   ar
    24    19    27   ar
    25    20    21   ar
    26    21    22   ar
    27    21    26   ar
    28    22    23   ar
    29    23    24   ar
    30    24    25   ar
    31    25    26   ar
    32    27    28   ar
    33    28    29   ar
    34    29    30   ar
