@<TRIPOS>MOLECULE
27019_ChemDiv_3931-0065
 29 32 0 0 0
SMALL
GASTEIGER
Energy = 0

@<TRIPOS>ATOM
      1 C           2.6420    0.8460    0.0000 C.ar    1  LIG1        0.0954
      2 S           3.2250    0.0710    0.0000 S.2     1  LIG1       -0.0815
      3 C           4.1580    0.3380    0.0000 C.ar    1  LIG1        0.0304
      4 C           4.1580    1.3500    0.0000 C.ar    1  LIG1        0.0172
      5 C           3.2250    1.6670    0.0000 C.ar    1  LIG1        0.0686
      6 CL          2.8880    2.6170    0.0000 Cl      1  LIG1       -0.0816
      7 C           5.0290    1.8580    0.0000 C.ar    1  LIG1        0.0014
      8 C           5.9000    1.3500    0.0000 C.ar    1  LIG1        0.0001
      9 C           5.9000    0.3380    0.0000 C.ar    1  LIG1        0.0005
     10 C           5.0290   -0.1380    0.0000 C.ar    1  LIG1        0.0065
     11 C           1.6290    0.8460    0.0000 C.2     1  LIG1        0.2758
     12 N           1.1210    0.0000    0.0000 N.am    1  LIG1       -0.1750
     13 C           0.1330    0.0000    0.0000 C.ar    1  LIG1        0.0738
     14 C          -0.3670    0.8460    0.0000 C.ar    1  LIG1        0.0179
     15 C          -1.3790    0.8460    0.0000 C.ar    1  LIG1        0.0182
     16 C          -1.8830    0.0000    0.0000 C.ar    1  LIG1        0.0894
     17 S          -2.8830    0.0000    0.0000 S.O2    1  LIG1       -0.0559
     18 N          -3.8960    0.0000    0.0000 N.pl3   1  LIG1       -0.5049
     19 C          -4.3880   -0.8710    0.0000 C.ar    1  LIG1        0.0590
     20 N          -5.3880   -0.8710    0.0000 N.ar    1  LIG1       -0.2485
     21 C          -5.9040   -1.7420    0.0000 C.ar    1  LIG1        0.1000
     22 C          -5.3880   -2.6130    0.0000 C.ar    1  LIG1        0.0412
     23 C          -4.3880   -2.6130    0.0000 C.ar    1  LIG1        0.1000
     24 N          -3.8960   -1.7420    0.0000 N.ar    1  LIG1       -0.2485
     25 O          -2.8830    0.9920    0.0000 O.2     1  LIG1       -0.1841
     26 O          -2.8830   -1.0080    0.0000 O.2     1  LIG1       -0.1841
     27 C          -1.3790   -0.8710    0.0000 C.ar    1  LIG1        0.0182
     28 C          -0.3670   -0.8710    0.0000 C.ar    1  LIG1        0.0179
     29 O           1.1210    1.7210    0.0000 O.2     1  LIG1       -0.2674
@<TRIPOS>BOND
     1     1     2   ar
     2     1     5   ar
     3     1    11    1
     4     2     3   ar
     5     3     4   ar
     6     3    10   ar
     7     4     5   ar
     8     4     7   ar
     9     5     6    1
    10     7     8   ar
    11     8     9   ar
    12     9    10   ar
    13    11    12   am
    14    11    29    2
    15    12    13    1
    16    13    14   ar
    17    13    28   ar
    18    14    15   ar
    19    15    16   ar
    20    16    17    1
    21    16    27   ar
    22    17    18    1
    23    17    25    2
    24    17    26    2
    25    18    19    1
    26    19    20   ar
    27    19    24   ar
    28    20    21   ar
    29    21    22   ar
    30    22    23   ar
    31    23    24   ar
    32    27    28   ar
