@<TRIPOS>MOLECULE
27015_ChemDiv_1503-0859
 23 26 0 0 0
SMALL
GASTEIGER
Energy = 0

@<TRIPOS>ATOM
      1 C          -0.6210    0.8580    0.0000 C.ar    1  LIG1        0.0954
      2 S          -1.1920    0.0460    0.0000 S.2     1  LIG1       -0.0815
      3 C          -2.1330    0.3670    0.0000 C.ar    1  LIG1        0.0304
      4 C          -2.1330    1.3750    0.0000 C.ar    1  LIG1        0.0172
      5 C          -1.1920    1.6670    0.0000 C.ar    1  LIG1        0.0686
      6 CL         -0.8540    2.6250    0.0000 Cl      1  LIG1       -0.0816
      7 C          -3.0040    1.8670    0.0000 C.ar    1  LIG1        0.0014
      8 C          -3.8790    1.3750    0.0000 C.ar    1  LIG1        0.0001
      9 C          -3.8790    0.3670    0.0000 C.ar    1  LIG1        0.0005
     10 C          -3.0040   -0.1460    0.0000 C.ar    1  LIG1        0.0065
     11 C           0.3830    0.8580    0.0000 C.2     1  LIG1        0.2759
     12 N           0.8920   -0.0130    0.0000 N.am    1  LIG1       -0.1735
     13 C           1.8830   -0.0130    0.0000 C.ar    1  LIG1        0.0912
     14 C           2.3790   -0.8750    0.0000 C.ar    1  LIG1        0.0966
     15 N           1.8960   -1.7630    0.0000 N.ar    1  LIG1       -0.2425
     16 C           2.3960   -2.6210    0.0000 C.ar    1  LIG1        0.0989
     17 C           3.3880   -2.6170    0.0000 C.ar    1  LIG1        0.0207
     18 C           3.8750   -1.7290    0.0000 C.ar    1  LIG1        0.0031
     19 C           3.3670   -0.8630    0.0000 C.ar    1  LIG1        0.0190
     20 C           3.8670    0.0080    0.0000 C.ar    1  LIG1        0.0016
     21 C           3.3540    0.8580    0.0000 C.ar    1  LIG1        0.0014
     22 C           2.3630    0.8460    0.0000 C.ar    1  LIG1        0.0181
     23 O           0.8920    1.7330    0.0000 O.2     1  LIG1       -0.2674
@<TRIPOS>BOND
     1     1     2   ar
     2     1     5   ar
     3     1    11    1
     4     2     3   ar
     5     3     4   ar
     6     3    10   ar
     7     4     5   ar
     8     4     7   ar
     9     5     6    1
    10     7     8   ar
    11     8     9   ar
    12     9    10   ar
    13    11    12   am
    14    11    23    2
    15    12    13    1
    16    13    14   ar
    17    13    22   ar
    18    14    15   ar
    19    14    19   ar
    20    15    16   ar
    21    16    17   ar
    22    17    18   ar
    23    18    19   ar
    24    19    20   ar
    25    20    21   ar
    26    21    22   ar
