@<TRIPOS>MOLECULE
27018_ChemDiv_1659-1443
 20 23 0 0 0
SMALL
GASTEIGER
Energy = 0

@<TRIPOS>ATOM
      1 C          -0.5000    0.0460    0.0000 C.ar    1  LIG1        0.1623
      2 N          -1.3920    0.4830    0.0000 N.ar    1  LIG1       -0.2250
      3 C          -2.1210   -0.1920    0.0000 C.ar    1  LIG1        0.1019
      4 C          -1.6750   -1.1290    0.0000 C.ar    1  LIG1        0.1007
      5 N          -0.6790   -0.9460    0.0000 N.ar    1  LIG1       -0.2251
      6 C          -2.2460   -1.9500    0.0000 C.ar    1  LIG1        0.0221
      7 C          -3.2710   -1.8540    0.0000 C.ar    1  LIG1        0.0197
      8 C          -3.6960   -0.9380    0.0000 C.ar    1  LIG1        0.0907
      9 C          -3.1130   -0.1000    0.0000 C.ar    1  LIG1        0.0387
     10 N          -4.6380   -0.8130    0.0000 N.pl3   1  LIG1       -0.1280
     11 C           0.3830    0.4960    0.0000 C.ar    1  LIG1        0.0364
     12 C           1.2750   -0.0170    0.0000 C.ar    1  LIG1        0.0111
     13 C           2.0670    0.4670    0.0000 C.ar    1  LIG1        0.0499
     14 S           3.0330    0.1460    0.0000 S.2     1  LIG1       -0.0484
     15 C           3.6580    0.9880    0.0000 C.ar    1  LIG1        0.2006
     16 N           3.0330    1.7920    0.0000 N.ar    1  LIG1       -0.2215
     17 C           2.0670    1.4710    0.0000 C.ar    1  LIG1        0.0893
     18 C           1.2750    1.9540    0.0000 C.ar    1  LIG1        0.0198
     19 C           0.3830    1.4710    0.0000 C.ar    1  LIG1        0.0046
     20 N           4.6330    1.0000    0.0000 N.pl3   1  LIG1       -0.0998
@<TRIPOS>BOND
     1     1     2   ar
     2     1     5   ar
     3     1    11    1
     4     2     3   ar
     5     3     4   ar
     6     3     9   ar
     7     4     5   ar
     8     4     6   ar
     9     6     7   ar
    10     7     8   ar
    11     8     9   ar
    12     8    10    1
    13    11    12   ar
    14    11    19   ar
    15    12    13   ar
    16    13    14   ar
    17    13    17   ar
    18    14    15   ar
    19    15    16   ar
    20    15    20    1
    21    16    17   ar
    22    17    18   ar
    23    18    19   ar
