@<TRIPOS>MOLECULE
27025_ChemDiv_1552-0021
 19 20 0 0 0
SMALL
GASTEIGER
Energy = 0

@<TRIPOS>ATOM
      1 N          -1.1130    0.8380    0.0000 N.am    1  LIG1       -0.2299
      2 C          -1.7210   -0.0040    0.0000 C.2     1  LIG1        0.2313
      3 C          -2.6580    0.2790    0.0000 C.3     1  LIG1        0.0857
      4 C          -2.6580    1.3000    0.0000 C.3     1  LIG1        0.0857
      5 C          -1.7210    1.5920    0.0000 C.2     1  LIG1        0.2313
      6 O          -1.4420    2.5460    0.0000 O.2     1  LIG1       -0.2745
      7 C          -3.5330    1.8250    0.0000 C.3     1  LIG1        0.0096
      8 C          -4.3960    1.3000    0.0000 C.3     1  LIG1        0.0005
      9 C          -4.3960    0.2790    0.0000 C.3     1  LIG1        0.0005
     10 C          -3.5330   -0.2380    0.0000 C.3     1  LIG1        0.0096
     11 O          -1.4080   -0.9460    0.0000 O.2     1  LIG1       -0.2745
     12 C          -0.1330    0.8380    0.0000 C.3     1  LIG1        0.1009
     13 C           0.3420   -0.0290    0.0000 C.3     1  LIG1        0.0220
     14 C           1.3580   -0.0290    0.0000 C.3     1  LIG1        0.0022
     15 C           1.8880   -0.8790    0.0000 C.3     1  LIG1        0.0060
     16 C           2.8670   -0.8750    0.0000 C.3     1  LIG1        0.0417
     17 C           3.3670   -1.7290    0.0000 C.2     1  LIG1        0.0503
     18 O           4.3920   -1.7170    0.0000 O.co2   1  LIG1       -0.5492
     19 O           2.8250   -2.5420    0.0000 O.co2   1  LIG1       -0.5492
@<TRIPOS>BOND
     1     1     2   am
     2     1     5   am
     3     1    12    1
     4     2     3    1
     5     2    11    2
     6     3     4    1
     7     3    10    1
     8     4     5    1
     9     4     7    1
    10     5     6    2
    11     7     8    1
    12     8     9    1
    13     9    10    1
    14    12    13    1
    15    13    14    1
    16    14    15    1
    17    15    16    1
    18    16    17    1
    19    17    18   ar
    20    17    19   ar
