@<TRIPOS>MOLECULE
27020_ChemDiv_1668-0277
 19 20 0 0 0
SMALL
GASTEIGER
Energy = 0

@<TRIPOS>ATOM
      1 N           0.5500   -2.3710    0.0000 N.ar    1  LIG1       -0.2445
      2 C          -0.2580   -1.7830    0.0000 C.ar    1  LIG1        0.0773
      3 C           0.0580   -0.8330    0.0000 C.ar    1  LIG1       -0.0030
      4 C           1.0580   -0.8330    0.0000 C.ar    1  LIG1        0.0175
      5 CA          1.3580   -1.7830    0.0000 C.ar    1  LIG1        0.0949
      6 C           2.3210   -2.1000    0.0000 C.2     1  LIG1        0.0905
      7 O           3.0630   -1.4210    0.0000 O.co2   1  LIG1       -0.5430
      8 OXT         2.5380   -3.0710    0.0000 O.co2   1  LIG1       -0.5430
      9 C          -0.5290   -0.0080    0.0000 C.3     1  LIG1        0.0279
     10 C          -0.1040    0.8960    0.0000 C.3     1  LIG1        0.0047
     11 C          -0.6790    1.7250    0.0000 C.3     1  LIG1        0.0003
     12 C          -0.2580    2.6290    0.0000 C.3     1  LIG1        0.0000
     13 C          -0.8580    3.4380    0.0000 C.3     1  LIG1        0.0000
     14 C          -1.1960   -2.1210    0.0000 C.ar    1  LIG1        0.0173
     15 C          -1.3670   -3.0960    0.0000 C.ar    1  LIG1        0.0015
     16 C          -2.2960   -3.4330    0.0000 C.ar    1  LIG1        0.0000
     17 C          -3.0670   -2.8000    0.0000 C.ar    1  LIG1        0.0000
     18 C          -2.9000   -1.8170    0.0000 C.ar    1  LIG1        0.0000
     19 C          -1.9580   -1.4790    0.0000 C.ar    1  LIG1        0.0015
@<TRIPOS>BOND
     1     1     2   ar
     2     1     5   ar
     3     2     3   ar
     4     2    14    1
     5     3     4   ar
     6     3     9    1
     7     4     5   ar
     8     5     6    1
     9     6     7   ar
    10     6     8   ar
    11     9    10    1
    12    10    11    1
    13    11    12    1
    14    12    13    1
    15    14    15   ar
    16    14    19   ar
    17    15    16   ar
    18    16    17   ar
    19    17    18   ar
    20    18    19   ar
