@<TRIPOS>MOLECULE
27022_ChemDiv_1668-0372
 13 13 0 0 0
SMALL
GASTEIGER
Energy = 0

@<TRIPOS>ATOM
      1 S          -2.4960   -0.8630    0.0000 S.O     1  LIG1        0.0540
      2 C          -2.0000   -1.7330    0.0000 C.3     1  LIG1        0.1544
      3 C          -0.9920   -1.7330    0.0000 C.3     1  LIG1        0.1532
      4 N          -0.5080   -0.8630    0.0000 N.4     1  LIG1        0.3788
      5 C          -1.0000   -0.0080    0.0000 C.3     1  LIG1        0.1532
      6 C          -2.0000   -0.0080    0.0000 C.3     1  LIG1        0.1544
      7 C           0.5040   -0.8630    0.0000 C.3     1  LIG1        0.1390
      8 C           1.0000   -0.0080    0.0000 C.3     1  LIG1        0.0686
      9 C           2.0040   -0.0080    0.0000 C.3     1  LIG1        0.0478
     10 C           2.5040    0.8670    0.0000 C.2     1  LIG1        0.0505
     11 O           1.9920    1.7380    0.0000 O.co2   1  LIG1       -0.5492
     12 O           3.4960    0.8670    0.0000 O.co2   1  LIG1       -0.5492
     13 O          -3.5000   -0.8630    0.0000 O.2     1  LIG1       -0.2555
@<TRIPOS>BOND
     1     1     2    1
     2     1     6    1
     3     1    13    2
     4     2     3    1
     5     3     4    1
     6     4     5    1
     7     4     7    1
     8     5     6    1
     9     7     8    1
    10     8     9    1
    11     9    10    1
    12    10    11   ar
    13    10    12   ar
