@<TRIPOS>MOLECULE
27026_ChemDiv_8018-0695
 16 18 0 0 0
SMALL
GASTEIGER
Energy = 0

@<TRIPOS>ATOM
      1 C           0.0540    1.9670    0.0000 C.ar    1  LIG1        0.1494
      2 C           0.9380    1.4670    0.0000 C.ar    1  LIG1        0.1449
      3 C           0.9380    0.4670    0.0000 C.ar    1  LIG1        0.0387
      4 C           0.0540   -0.0290    0.0000 C.ar    1  LIG1        0.0502
      5 C          -0.8170    0.4670    0.0000 C.ar    1  LIG1        0.0229
      6 C          -0.8170    1.4670    0.0000 C.ar    1  LIG1        0.0583
      7 BR         -1.6790    1.9540    0.0000 Br      1  LIG1       -0.0472
      8 N           0.0540   -1.0250    0.0000 N.pl3   1  LIG1       -0.3027
      9 C          -0.8040   -1.5250    0.0000 C.3     1  LIG1        0.1231
     10 C          -0.7830   -2.5250    0.0000 C.3     1  LIG1        0.1636
     11 O           0.0750   -3.0380    0.0000 O.3     1  LIG1       -0.3501
     12 C           0.9170   -2.5380    0.0000 C.3     1  LIG1        0.1636
     13 C           0.9170   -1.5250    0.0000 C.3     1  LIG1        0.1231
     14 N           1.6750    2.1460    0.0000 N.ar    1  LIG1       -0.0482
     15 O           1.2540    3.0420    0.0000 O.2     1  LIG1       -0.2415
     16 N           0.2670    2.9500    0.0000 N.ar    1  LIG1       -0.0478
@<TRIPOS>BOND
     1     1     2   ar
     2     1     6   ar
     3     1    16   ar
     4     2     3   ar
     5     2    14   ar
     6     3     4   ar
     7     4     5   ar
     8     4     8    1
     9     5     6   ar
    10     6     7    1
    11     8     9    1
    12     8    13    1
    13     9    10    1
    14    10    11    1
    15    11    12    1
    16    12    13    1
    17    14    15   ar
    18    15    16   ar
