@<TRIPOS>MOLECULE
27021_ChemDiv_4476-0492
 24 26 0 0 0
SMALL
GASTEIGER
Energy = 0

@<TRIPOS>ATOM
      1 C          -1.2000    0.1500    0.0000 C.ar    1  LIG1        0.0954
      2 S          -1.7500   -0.6210    0.0000 S.2     1  LIG1       -0.0815
      3 C          -2.7040   -0.3290    0.0000 C.ar    1  LIG1        0.0313
      4 C          -2.7040    0.6710    0.0000 C.ar    1  LIG1        0.0173
      5 C          -1.7500    0.9830    0.0000 C.ar    1  LIG1        0.0686
      6 CL         -1.4380    1.9380    0.0000 Cl      1  LIG1       -0.0816
      7 C          -3.5630    1.1670    0.0000 C.ar    1  LIG1        0.0022
      8 C          -4.4170    0.6710    0.0000 C.ar    1  LIG1        0.0115
      9 C          -4.4170   -0.3290    0.0000 C.ar    1  LIG1        0.0582
     10 C          -3.5630   -0.8330    0.0000 C.ar    1  LIG1        0.0179
     11 CL         -5.3040   -0.8330    0.0000 Cl      1  LIG1       -0.0822
     12 C          -0.2000    0.1210    0.0000 C.2     1  LIG1        0.2758
     13 N           0.2750   -0.7580    0.0000 N.am    1  LIG1       -0.1750
     14 C           1.3040   -0.8040    0.0000 C.ar    1  LIG1        0.0738
     15 C           1.7790   -1.6920    0.0000 C.ar    1  LIG1        0.0180
     16 C           2.7790   -1.7130    0.0000 C.ar    1  LIG1        0.0213
     17 C           3.3040   -0.8580    0.0000 C.ar    1  LIG1        0.1251
     18 S           4.3040   -0.9040    0.0000 S.O2    1  LIG1        0.0935
     19 O           4.3460    0.0960    0.0000 O.2     1  LIG1       -0.1503
     20 O           4.2580   -1.9330    0.0000 O.2     1  LIG1       -0.1503
     21 N           5.3000   -0.9540    0.0000 N.3     1  LIG1        0.0392
     22 C           2.8290    0.0290    0.0000 C.ar    1  LIG1        0.0213
     23 C           1.8250    0.0500    0.0000 C.ar    1  LIG1        0.0180
     24 O           0.3250    0.9540    0.0000 O.2     1  LIG1       -0.2674
@<TRIPOS>BOND
     1     1     2   ar
     2     1     5   ar
     3     1    12    1
     4     2     3   ar
     5     3     4   ar
     6     3    10   ar
     7     4     5   ar
     8     4     7   ar
     9     5     6    1
    10     7     8   ar
    11     8     9   ar
    12     9    10   ar
    13     9    11    1
    14    12    13   am
    15    12    24    2
    16    13    14    1
    17    14    15   ar
    18    14    23   ar
    19    15    16   ar
    20    16    17   ar
    21    17    18    1
    22    17    22   ar
    23    18    19    2
    24    18    20    2
    25    18    21    1
    26    22    23   ar
