@<TRIPOS>MOLECULE
27023_ChemDiv_6214-0921
 30 33 0 0 0
SMALL
GASTEIGER
Energy = 0

@<TRIPOS>ATOM
      1 C          -0.8500    2.1670    0.0000 C.ar    1  LIG1        0.0936
      2 C           0.1500    2.1380    0.0000 C.2     1  LIG1        0.2561
      3 N           0.6210    1.2580    0.0000 N.am    1  LIG1       -0.2714
      4 C           1.6210    1.2380    0.0000 C.3     1  LIG1        0.1013
      5 C           2.2420    2.0250    0.0000 C.3     1  LIG1        0.1705
      6 S           3.1830    1.6750    0.0000 S.O2    1  LIG1       -0.0083
      7 O           3.4710    2.6290    0.0000 O.2     1  LIG1       -0.1729
      8 O           4.1460    1.3880    0.0000 O.2     1  LIG1       -0.1729
      9 C           3.1460    0.6830    0.0000 C.3     1  LIG1        0.1527
     10 C           2.1830    0.4040    0.0000 C.3     1  LIG1        0.0469
     11 C           0.1080    0.4170    0.0000 C.3     1  LIG1        0.1204
     12 C           0.5750   -0.4580    0.0000 C.ar    1  LIG1       -0.0022
     13 C           1.5750   -0.4920    0.0000 C.ar    1  LIG1       -0.0013
     14 C           2.0460   -1.3630    0.0000 C.ar    1  LIG1        0.0142
     15 C           1.5290   -2.2170    0.0000 C.ar    1  LIG1        0.0479
     16 N           2.0000   -3.0960    0.0000 N.pl3   1  LIG1       -0.3041
     17 C           1.4830   -3.9460    0.0000 C.3     1  LIG1        0.1122
     18 C           3.0000   -3.1250    0.0000 C.3     1  LIG1        0.1122
     19 C           0.5290   -2.1880    0.0000 C.ar    1  LIG1        0.0142
     20 C           0.0540   -1.3080    0.0000 C.ar    1  LIG1       -0.0013
     21 O           0.6670    2.9830    0.0000 O.2     1  LIG1       -0.2693
     22 S          -1.4710    1.3750    0.0000 S.2     1  LIG1       -0.0816
     23 C          -2.4130    1.7210    0.0000 C.ar    1  LIG1        0.0304
     24 C          -2.3790    2.7210    0.0000 C.ar    1  LIG1        0.0172
     25 C          -1.4080    3.0080    0.0000 C.ar    1  LIG1        0.0685
     26 CL         -1.0750    3.9500    0.0000 Cl      1  LIG1       -0.0816
     27 C          -3.2250    3.2580    0.0000 C.ar    1  LIG1        0.0014
     28 C          -4.1040    2.7960    0.0000 C.ar    1  LIG1        0.0001
     29 C          -4.1500    1.7880    0.0000 C.ar    1  LIG1        0.0005
     30 C          -3.3040    1.2580    0.0000 C.ar    1  LIG1        0.0065
@<TRIPOS>BOND
     1     1     2    1
     2     1    22   ar
     3     1    25   ar
     4     2     3   am
     5     2    21    2
     6     3     4    1
     7     3    11    1
     8     4     5    1
     9     4    10    1
    10     5     6    1
    11     6     7    2
    12     6     8    2
    13     6     9    1
    14     9    10    1
    15    11    12    1
    16    12    13   ar
    17    12    20   ar
    18    13    14   ar
    19    14    15   ar
    20    15    16    1
    21    15    19   ar
    22    16    17    1
    23    16    18    1
    24    19    20   ar
    25    22    23   ar
    26    23    24   ar
    27    23    30   ar
    28    24    25   ar
    29    24    27   ar
    30    25    26    1
    31    27    28   ar
    32    28    29   ar
    33    29    30   ar
