@<TRIPOS>MOLECULE
27037_ChemDiv_3529-0004
 24 27 0 0 0
SMALL
GASTEIGER
Energy = 0

@<TRIPOS>ATOM
      1 C           1.8630    1.4080    0.0000 C.3     1  LIG1        0.0479
      2 C           1.8630    0.3670    0.0000 C.3     1  LIG1       -0.0158
      3 C           0.9710   -0.1420    0.0000 C.3     1  LIG1       -0.0217
      4 C           0.0880    0.3790    0.0000 C.3     1  LIG1       -0.0039
      5 C          -0.8130   -0.1420    0.0000 C.ar    1  LIG1       -0.0300
      6 C          -0.8130   -1.1710    0.0000 C.ar    1  LIG1       -0.0171
      7 C          -1.6920   -1.6880    0.0000 C.ar    1  LIG1        0.0691
      8 C          -2.5830   -1.1710    0.0000 C.ar    1  LIG1        0.2015
      9 C          -2.5830   -0.1420    0.0000 C.ar    1  LIG1        0.0422
     10 C          -1.6920    0.3790    0.0000 C.ar    1  LIG1       -0.0016
     11 O          -3.4460   -1.6580    0.0000 O.3     1  LIG1       -0.2861
     12 BR         -1.6920   -2.6750    0.0000 Br      1  LIG1       -0.0460
     13 C           0.0880   -1.6880    0.0000 C.3     1  LIG1        0.0263
     14 C           0.9710   -1.1710    0.0000 C.3     1  LIG1        0.0005
     15 C           0.0880    1.4080    0.0000 C.3     1  LIG1        0.0002
     16 C           0.9710    1.9330    0.0000 C.3     1  LIG1        0.0066
     17 C           2.8420    0.0750    0.0000 C.3     1  LIG1        0.0039
     18 C           3.4420    0.9210    0.0000 C.3     1  LIG1        0.0642
     19 C           2.8250    1.7170    0.0000 C.2     1  LIG1        0.1495
     20 O           3.1210    2.6790    0.0000 O.2     1  LIG1       -0.2961
     21 C           1.8750    2.4000    0.0000 C.3     1  LIG1        0.0070
     22 H           1.8630   -0.4830    0.0000 H       1  LIG1        0.0320
     23 H           0.9670    0.6960    0.0000 H       1  LIG1        0.0316
     24 H           0.0920   -0.4000    0.0000 H       1  LIG1        0.0358
@<TRIPOS>BOND
     1     1     2    1
     2     1    16    1
     3     1    19    1
     4     1    21    1
     5     2     3    1
     6     2    17    1
     7     2    22    1
     8     3     4    1
     9     3    14    1
    10     3    23    1
    11     4     5    1
    12     4    15    1
    13     4    24    1
    14     5     6   ar
    15     5    10   ar
    16     6     7   ar
    17     6    13    1
    18     7     8   ar
    19     7    12    1
    20     8     9   ar
    21     8    11    1
    22     9    10   ar
    23    13    14    1
    24    15    16    1
    25    17    18    1
    26    18    19    1
    27    19    20    2
