@<TRIPOS>MOLECULE
27031_ChemDiv_8017-6189
 22 26 0 0 0
SMALL
GASTEIGER
Energy = 0

@<TRIPOS>ATOM
      1 N           2.0080    1.6460    0.0000 N.am    1  LIG1       -0.2812
      2 C           1.2880    0.9670    0.0000 C.3     1  LIG1        0.0752
      3 C           1.2880   -0.1580    0.0000 C.3     1  LIG1        0.0183
      4 C           1.0790   -0.9040    0.0000 C.3     1  LIG1        0.0033
      5 C           0.0500   -0.6670    0.0000 C.3     1  LIG1        0.0183
      6 C          -1.0830   -0.9540    0.0000 C.3     1  LIG1        0.0752
      7 N          -1.9210   -1.4790    0.0000 N.am    1  LIG1       -0.2812
      8 C          -1.9750   -2.4540    0.0000 C.2     1  LIG1        0.2256
      9 O          -1.1830   -3.0500    0.0000 O.2     1  LIG1       -0.2749
     10 C          -2.9670   -2.7130    0.0000 C.3     1  LIG1        0.0870
     11 C          -3.4790   -1.8670    0.0000 C.3     1  LIG1        0.0311
     12 C          -2.8130   -1.0920    0.0000 C.3     1  LIG1        0.0938
     13 C          -0.3830   -0.1290    0.0000 C.3     1  LIG1        0.0183
     14 C           0.3920   -0.4670    0.0000 C.3     1  LIG1        0.0033
     15 C          -0.3830    0.9540    0.0000 C.3     1  LIG1        0.0033
     16 C           0.4790    1.3540    0.0000 C.3     1  LIG1        0.0183
     17 C           0.0500    0.7040    0.0000 C.3     1  LIG1        0.0033
     18 C           2.9580    1.4460    0.0000 C.2     1  LIG1        0.2256
     19 O           3.3130    0.5210    0.0000 O.2     1  LIG1       -0.2749
     20 C           3.4750    2.3170    0.0000 C.3     1  LIG1        0.0870
     21 C           2.7880    3.0540    0.0000 C.3     1  LIG1        0.0311
     22 C           1.8790    2.5960    0.0000 C.3     1  LIG1        0.0938
@<TRIPOS>BOND
     1     1     2    1
     2     1    18   am
     3     1    22    1
     4     2     3    1
     5     2    16    1
     6     3     4    1
     7     3    14    1
     8     4     5    1
     9     5     6    1
    10     5    17    1
    11     6     7    1
    12     6    13    1
    13     7     8   am
    14     7    12    1
    15     8     9    2
    16     8    10    1
    17    10    11    1
    18    11    12    1
    19    13    14    1
    20    13    15    1
    21    15    16    1
    22    16    17    1
    23    18    19    2
    24    18    20    1
    25    20    21    1
    26    21    22    1
