@<TRIPOS>MOLECULE
27033_ChemDiv_C588-0039
 17 20 0 0 0
SMALL
GASTEIGER
Energy = 0

@<TRIPOS>ATOM
      1 N           1.3170   -0.2750    0.0000 N.am    1  LIG1       -0.2795
      2 C           0.9130   -1.2000    0.0000 C.2     1  LIG1        0.2257
      3 O          -0.0630   -1.4130    0.0000 O.2     1  LIG1       -0.2749
      4 C           1.6630   -1.8670    0.0000 C.3     1  LIG1        0.0870
      5 C           2.5380   -1.3630    0.0000 C.3     1  LIG1        0.0311
      6 C           2.3250   -0.3790    0.0000 C.3     1  LIG1        0.0939
      7 C           0.8130    0.5920    0.0000 C.3     1  LIG1        0.0933
      8 C          -0.2000    0.5920    0.0000 C.3     1  LIG1        0.0183
      9 C          -0.9540    0.1710    0.0000 C.3     1  LIG1        0.0016
     10 C          -1.9080    0.5040    0.0000 C.3     1  LIG1        0.0001
     11 C          -2.5420   -0.4080    0.0000 C.3     1  LIG1        0.0000
     12 C          -1.5380   -0.0460    0.0000 C.3     1  LIG1        0.0001
     13 C          -0.5420   -0.4580    0.0000 C.3     1  LIG1        0.0016
     14 C          -1.5380    1.1080    0.0000 C.3     1  LIG1        0.0000
     15 C          -1.0130    1.8710    0.0000 C.3     1  LIG1        0.0001
     16 C          -0.2000    1.3580    0.0000 C.3     1  LIG1        0.0016
     17 C          -1.9080    1.3580    0.0000 C.3     1  LIG1        0.0000
@<TRIPOS>BOND
     1     1     2   am
     2     1     6    1
     3     1     7    1
     4     2     3    2
     5     2     4    1
     6     4     5    1
     7     5     6    1
     8     7     8    1
     9     8     9    1
    10     8    13    1
    11     8    16    1
    12     9    10    1
    13    10    11    1
    14    10    17    1
    15    11    12    1
    16    12    13    1
    17    12    14    1
    18    14    15    1
    19    15    16    1
    20    15    17    1
