@<TRIPOS>MOLECULE
27047_ChemDiv_8008-9942
 30 34 0 0 0
SMALL
GASTEIGER
Energy = 0

@<TRIPOS>ATOM
      1 C          -2.9460   -0.4540    0.0000 C.ar    1  LIG1        0.0696
      2 C          -1.9330   -0.4540    0.0000 C.ar    1  LIG1       -0.0026
      3 C          -1.4670    0.4210    0.0000 C.3     1  LIG1        0.0551
      4 C          -0.4540    0.4330    0.0000 C.ar    1  LIG1       -0.0147
      5 C           0.0500    1.2790    0.0000 C.ar    1  LIG1        0.0361
      6 C           1.0380    1.2960    0.0000 C.ar    1  LIG1        0.1726
      7 C           1.5540    0.4420    0.0000 C.ar    1  LIG1        0.1821
      8 O           2.5580    0.4630    0.0000 O.3     1  LIG1       -0.4210
      9 C           3.0750   -0.4080    0.0000 C.2     1  LIG1        0.3210
     10 C           4.0670   -0.3960    0.0000 C.3     1  LIG1        0.0995
     11 C           4.9420   -0.9000    0.0000 C.3     1  LIG1        0.0117
     12 C           4.9380    0.1250    0.0000 C.3     1  LIG1        0.0117
     13 O           2.5710   -1.2790    0.0000 O.2     1  LIG1       -0.2497
     14 C           1.0540   -0.4290    0.0000 C.ar    1  LIG1        0.0404
     15 C           0.0630   -0.4420    0.0000 C.ar    1  LIG1       -0.0006
     16 O           1.5380    2.1710    0.0000 O.3     1  LIG1       -0.4724
     17 C           2.5380    2.1790    0.0000 C.3     1  LIG1        0.2057
     18 C           3.0290    3.0500    0.0000 C.3     1  LIG1        0.0512
     19 C          -1.9460    1.2670    0.0000 C.3     1  LIG1        0.0959
     20 C          -2.9460    1.2670    0.0000 C.2     1  LIG1        0.2462
     21 N          -3.4420    0.4170    0.0000 N.am    1  LIG1       -0.1795
     22 O          -3.4420    2.1330    0.0000 O.2     1  LIG1       -0.2730
     23 C          -1.4460   -1.3210    0.0000 C.ar    1  LIG1       -0.0027
     24 C          -1.9330   -2.1710    0.0000 C.ar    1  LIG1       -0.0002
     25 C          -2.9460   -2.1960    0.0000 C.ar    1  LIG1        0.0012
     26 C          -3.4420   -1.3210    0.0000 C.ar    1  LIG1        0.0150
     27 C          -4.4420   -1.3210    0.0000 C.ar    1  LIG1        0.0013
     28 C          -4.9460   -2.1710    0.0000 C.ar    1  LIG1        0.0000
     29 C          -4.4420   -3.0460    0.0000 C.ar    1  LIG1        0.0000
     30 C          -3.4420   -3.0460    0.0000 C.ar    1  LIG1        0.0000
@<TRIPOS>BOND
     1     1     2   ar
     2     1    21    1
     3     1    26   ar
     4     2     3    1
     5     2    23   ar
     6     3     4    1
     7     3    19    1
     8     4     5   ar
     9     4    15   ar
    10     5     6   ar
    11     6     7   ar
    12     6    16    1
    13     7     8    1
    14     7    14   ar
    15     8     9    1
    16     9    10    1
    17     9    13    2
    18    10    11    1
    19    10    12    1
    20    11    12    1
    21    14    15   ar
    22    16    17    1
    23    17    18    1
    24    19    20    1
    25    20    21   am
    26    20    22    2
    27    23    24   ar
    28    24    25   ar
    29    25    26   ar
    30    25    30   ar
    31    26    27   ar
    32    27    28   ar
    33    28    29   ar
    34    29    30   ar
