@<TRIPOS>MOLECULE
27043_ChemDiv_3429-0047
 25 28 0 0 0
SMALL
GASTEIGER
Energy = 0

@<TRIPOS>ATOM
      1 C           0.8710    2.0080    0.0000 C.2     1  LIG1        0.2975
      2 N           0.0080    2.5000    0.0000 N.am    1  LIG1       -0.1747
      3 C          -0.8540    2.0080    0.0000 C.ar    1  LIG1        0.0701
      4 C          -0.8540    1.0130    0.0000 C.ar    1  LIG1        0.0035
      5 C           0.0080    0.5080    0.0000 C.3     1  LIG1        0.1070
      6 C           0.8710    1.0130    0.0000 C.3     1  LIG1        0.1742
      7 N           1.7330    0.5080    0.0000 N.4     1  LIG1        0.3801
      8 C           2.5960    1.0130    0.0000 C.3     1  LIG1        0.1390
      9 C           3.4580    0.5080    0.0000 C.3     1  LIG1        0.0629
     10 C           3.4580   -0.5040    0.0000 C.3     1  LIG1        0.0123
     11 C           2.5960   -1.0000    0.0000 C.3     1  LIG1        0.0629
     12 C           1.7330   -0.5040    0.0000 C.3     1  LIG1        0.1390
     13 C           0.0080   -0.5040    0.0000 C.ar    1  LIG1       -0.0017
     14 C          -0.8540   -1.0000    0.0000 C.ar    1  LIG1        0.0542
     15 CL         -1.7170   -0.5040    0.0000 Cl      1  LIG1       -0.0826
     16 C          -0.8540   -2.0040    0.0000 C.ar    1  LIG1        0.0111
     17 C           0.0080   -2.4960    0.0000 C.ar    1  LIG1        0.0008
     18 C           0.8710   -2.0040    0.0000 C.ar    1  LIG1       -0.0003
     19 C           0.8710   -1.0000    0.0000 C.ar    1  LIG1       -0.0029
     20 C          -1.7170    0.5080    0.0000 C.ar    1  LIG1        0.0042
     21 C          -2.5790    1.0130    0.0000 C.ar    1  LIG1        0.0343
     22 C          -2.5790    2.0080    0.0000 C.ar    1  LIG1        0.0080
     23 C          -1.7170    2.5000    0.0000 C.ar    1  LIG1        0.0168
     24 BR         -3.4630    0.4880    0.0000 Br      1  LIG1       -0.0490
     25 O           1.7540    2.5000    0.0000 O.2     1  LIG1       -0.2668
@<TRIPOS>BOND
     1     1     2   am
     2     1     6    1
     3     1    25    2
     4     2     3    1
     5     3     4   ar
     6     3    23   ar
     7     4     5    1
     8     4    20   ar
     9     5     6    1
    10     5    13    1
    11     6     7    1
    12     7     8    1
    13     7    12    1
    14     8     9    1
    15     9    10    1
    16    10    11    1
    17    11    12    1
    18    13    14   ar
    19    13    19   ar
    20    14    15    1
    21    14    16   ar
    22    16    17   ar
    23    17    18   ar
    24    18    19   ar
    25    20    21   ar
    26    21    22   ar
    27    21    24    1
    28    22    23   ar
