@<TRIPOS>MOLECULE
27041_ChemDiv_1670-1764
 23 26 0 0 0
SMALL
GASTEIGER
Energy = 0

@<TRIPOS>ATOM
      1 C          -0.0080   -1.2500    0.0000 C.ar    1  LIG1        0.0696
      2 C          -0.0080   -0.2500    0.0000 C.ar    1  LIG1       -0.0026
      3 C           0.8710    0.2580    0.0000 C.3     1  LIG1        0.0558
      4 C           0.8710    1.2540    0.0000 C.ar    1  LIG1       -0.0065
      5 C           1.7330    1.7420    0.0000 C.ar    1  LIG1        0.0645
      6 C           1.7330    2.7380    0.0000 C.ar    1  LIG1        0.0679
      7 CL          2.5960    3.2290    0.0000 Cl      1  LIG1       -0.0814
      8 C           0.8710    3.2460    0.0000 C.ar    1  LIG1        0.0122
      9 C           0.0080    2.7380    0.0000 C.ar    1  LIG1        0.0006
     10 C           0.0080    1.7420    0.0000 C.ar    1  LIG1       -0.0031
     11 CL          2.5960    1.2380    0.0000 Cl      1  LIG1       -0.0817
     12 C           1.7330   -0.2500    0.0000 C.3     1  LIG1        0.0959
     13 C           1.7330   -1.2500    0.0000 C.2     1  LIG1        0.2462
     14 N           0.8710   -1.7580    0.0000 N.am    1  LIG1       -0.1795
     15 O           2.5960   -1.7500    0.0000 O.2     1  LIG1       -0.2730
     16 C          -0.8710    0.2580    0.0000 C.ar    1  LIG1       -0.0027
     17 C          -1.7380   -0.2500    0.0000 C.ar    1  LIG1       -0.0002
     18 C          -1.7380   -1.2460    0.0000 C.ar    1  LIG1        0.0012
     19 C          -0.8710   -1.7500    0.0000 C.ar    1  LIG1        0.0150
     20 C          -0.8710   -2.7540    0.0000 C.ar    1  LIG1        0.0013
     21 C          -1.7380   -3.2420    0.0000 C.ar    1  LIG1        0.0000
     22 C          -2.6000   -2.7540    0.0000 C.ar    1  LIG1        0.0000
     23 C          -2.6000   -1.7500    0.0000 C.ar    1  LIG1        0.0000
@<TRIPOS>BOND
     1     1     2   ar
     2     1    14    1
     3     1    19   ar
     4     2     3    1
     5     2    16   ar
     6     3     4    1
     7     3    12    1
     8     4     5   ar
     9     4    10   ar
    10     5     6   ar
    11     5    11    1
    12     6     7    1
    13     6     8   ar
    14     8     9   ar
    15     9    10   ar
    16    12    13    1
    17    13    14   am
    18    13    15    2
    19    16    17   ar
    20    17    18   ar
    21    18    19   ar
    22    18    23   ar
    23    19    20   ar
    24    20    21   ar
    25    21    22   ar
    26    22    23   ar
