@<TRIPOS>MOLECULE
27046_ChemDiv_1809-0335
 34 38 0 0 0
SMALL
GASTEIGER
Energy = 0

@<TRIPOS>ATOM
      1 N           1.0000   -1.3920    0.0000 N.ar    1  LIG1       -0.2033
      2 C           0.5130   -2.2500    0.0000 C.ar    1  LIG1        0.2440
      3 C          -0.4710   -2.2500    0.0000 C.ar    1  LIG1        0.2441
      4 N          -0.9830   -1.3920    0.0000 N.ar    1  LIG1       -0.2015
      5 C          -0.4710   -0.5250    0.0000 C.ar    1  LIG1        0.1855
      6 C           0.5130   -0.5420    0.0000 C.ar    1  LIG1        0.1672
      7 N           1.0170    0.3250    0.0000 N.pl3   1  LIG1       -0.2909
      8 C           2.0210    0.3250    0.0000 C.3     1  LIG1        0.0923
      9 C           2.5290    1.1880    0.0000 C.3     1  LIG1        0.0219
     10 C           2.0380    2.0580    0.0000 C.3     1  LIG1        0.0078
     11 C           2.5380    2.9210    0.0000 C.3     1  LIG1        0.0265
     12 C           3.5380    2.9210    0.0000 C.ar    1  LIG1       -0.0222
     13 C           4.0370    2.0540    0.0000 C.ar    1  LIG1       -0.0043
     14 C           5.0380    2.0380    0.0000 C.ar    1  LIG1       -0.0003
     15 C           5.5380    2.9040    0.0000 C.ar    1  LIG1       -0.0000
     16 C           5.0500    3.7710    0.0000 C.ar    1  LIG1       -0.0003
     17 C           4.0500    3.7880    0.0000 C.ar    1  LIG1       -0.0043
     18 C           1.0330    2.0580    0.0000 C.3     1  LIG1        0.0219
     19 C           0.5290    1.1920    0.0000 C.3     1  LIG1        0.0923
     20 N          -1.0500    0.3880    0.0000 N.pl3   1  LIG1       -0.1918
     21 C          -2.0500    0.3920    0.0000 C.ar    1  LIG1        0.0722
     22 C          -2.5580   -0.4670    0.0000 C.ar    1  LIG1        0.0168
     23 C          -3.5580   -0.4580    0.0000 C.ar    1  LIG1        0.0078
     24 C          -4.0370    0.4080    0.0000 C.ar    1  LIG1        0.0757
     25 C          -5.0380    0.4210    0.0000 C.2     1  LIG1        0.3412
     26 O          -5.5420   -0.4500    0.0000 O.2     1  LIG1       -0.2449
     27 O          -5.5210    1.2880    0.0000 O.3     1  LIG1       -0.4454
     28 C          -5.0080    2.1540    0.0000 C.3     1  LIG1        0.2089
     29 C          -5.5040    3.0210    0.0000 C.3     1  LIG1        0.0513
     30 C          -3.5380    1.2750    0.0000 C.ar    1  LIG1        0.0078
     31 C          -2.5330    1.2580    0.0000 C.ar    1  LIG1        0.0168
     32 N          -0.8000   -3.1960    0.0000 N.ar    1  LIG1       -0.0270
     33 O           0.0000   -3.7830    0.0000 O.2     1  LIG1       -0.2385
     34 N           0.8000   -3.1960    0.0000 N.ar    1  LIG1       -0.0270
@<TRIPOS>BOND
     1     1     2   ar
     2     1     6   ar
     3     2     3   ar
     4     2    34   ar
     5     3     4   ar
     6     3    32   ar
     7     4     5   ar
     8     5     6   ar
     9     5    20    1
    10     6     7    1
    11     7     8    1
    12     7    19    1
    13     8     9    1
    14     9    10    1
    15    10    11    1
    16    10    18    1
    17    11    12    1
    18    12    13   ar
    19    12    17   ar
    20    13    14   ar
    21    14    15   ar
    22    15    16   ar
    23    16    17   ar
    24    18    19    1
    25    20    21    1
    26    21    22   ar
    27    21    31   ar
    28    22    23   ar
    29    23    24   ar
    30    24    25    1
    31    24    30   ar
    32    25    26    2
    33    25    27    1
    34    27    28    1
    35    28    29    1
    36    30    31   ar
    37    32    33   ar
    38    33    34   ar
