@<TRIPOS>MOLECULE
27045_ChemDiv_3999-6194
 23 26 0 0 0
SMALL
GASTEIGER
Energy = 0

@<TRIPOS>ATOM
      1 C          -0.8540   -1.0380    0.0000 C.3     1  LIG1        0.0555
      2 C          -0.0080   -1.5210    0.0000 C.ar    1  LIG1       -0.0029
      3 C          -0.0080   -2.5460    0.0000 C.ar    1  LIG1        0.0694
      4 N          -0.8540   -3.0290    0.0000 N.am    1  LIG1       -0.1795
      5 C          -1.7380   -2.5290    0.0000 C.2     1  LIG1        0.2462
      6 C          -1.7210   -1.5210    0.0000 C.3     1  LIG1        0.0959
      7 O          -2.6290   -3.0040    0.0000 O.2     1  LIG1       -0.2730
      8 C           0.8830   -3.0500    0.0000 C.ar    1  LIG1        0.0117
      9 C           1.7500   -2.5500    0.0000 C.ar    1  LIG1       -0.0245
     10 C           1.7500   -1.5210    0.0000 C.ar    1  LIG1       -0.0260
     11 C           0.8830   -1.0290    0.0000 C.ar    1  LIG1       -0.0072
     12 C           2.6250   -1.0290    0.0000 C.3     1  LIG1        0.0307
     13 C           2.6250   -3.0500    0.0000 C.3     1  LIG1        0.0307
     14 C          -0.8540   -0.0380    0.0000 C.ar    1  LIG1       -0.0085
     15 C          -1.7210    0.4630    0.0000 C.ar    1  LIG1        0.0341
     16 C          -1.7210    1.4540    0.0000 C.ar    1  LIG1        0.0466
     17 C          -0.8540    1.9540    0.0000 C.ar    1  LIG1        0.1769
     18 C           0.0170    1.4960    0.0000 C.ar    1  LIG1        0.1761
     19 C           0.0170    0.4630    0.0000 C.ar    1  LIG1        0.0367
     20 O           0.7210    2.1630    0.0000 O.3     1  LIG1       -0.4346
     21 C           0.3130    3.0540    0.0000 C.3     1  LIG1        0.4294
     22 O          -0.6750    2.9250    0.0000 O.3     1  LIG1       -0.4346
     23 BR         -2.5710   -0.0210    0.0000 Br      1  LIG1       -0.0492
@<TRIPOS>BOND
     1     1     2    1
     2     1     6    1
     3     1    14    1
     4     2     3   ar
     5     2    11   ar
     6     3     4    1
     7     3     8   ar
     8     4     5   am
     9     5     6    1
    10     5     7    2
    11     8     9   ar
    12     9    10   ar
    13     9    13    1
    14    10    11   ar
    15    10    12    1
    16    14    15   ar
    17    14    19   ar
    18    15    16   ar
    19    15    23    1
    20    16    17   ar
    21    17    18   ar
    22    17    22    1
    23    18    19   ar
    24    18    20    1
    25    20    21    1
    26    21    22    1
