@<TRIPOS>MOLECULE
27049_ChemDiv_8009-4775
 22 25 0 0 0
SMALL
GASTEIGER
Energy = 0

@<TRIPOS>ATOM
      1 C          -0.0080   -0.9920    0.0000 C.ar    1  LIG1       -0.0026
      2 C           0.8540   -0.4830    0.0000 C.3     1  LIG1        0.0558
      3 C           0.8750    0.5170    0.0000 C.ar    1  LIG1       -0.0073
      4 C           1.7330    0.9960    0.0000 C.ar    1  LIG1        0.0540
      5 CL          2.5790    0.4960    0.0000 Cl      1  LIG1       -0.0826
      6 C           1.7330    1.9960    0.0000 C.ar    1  LIG1        0.0111
      7 C           0.8750    2.5040    0.0000 C.ar    1  LIG1        0.0008
      8 C           0.0080    1.9960    0.0000 C.ar    1  LIG1       -0.0003
      9 C           0.0080    0.9960    0.0000 C.ar    1  LIG1       -0.0031
     10 C           1.7330   -0.9920    0.0000 C.3     1  LIG1        0.0959
     11 C           1.7330   -1.9920    0.0000 C.2     1  LIG1        0.2462
     12 N           0.8540   -2.5000    0.0000 N.am    1  LIG1       -0.1795
     13 C          -0.0080   -1.9920    0.0000 C.ar    1  LIG1        0.0697
     14 C          -0.8790   -2.4920    0.0000 C.ar    1  LIG1        0.0163
     15 C          -1.7380   -1.9880    0.0000 C.ar    1  LIG1        0.0013
     16 C          -1.7380   -0.9920    0.0000 C.ar    1  LIG1       -0.0002
     17 C          -0.8670   -0.4830    0.0000 C.ar    1  LIG1       -0.0024
     18 C          -0.8670    0.5170    0.0000 C.ar    1  LIG1       -0.0003
     19 C          -1.7380    1.0170    0.0000 C.ar    1  LIG1       -0.0000
     20 C          -2.6000    0.5290    0.0000 C.ar    1  LIG1       -0.0000
     21 C          -2.6000   -0.4830    0.0000 C.ar    1  LIG1       -0.0000
     22 O           2.6000   -2.4920    0.0000 O.2     1  LIG1       -0.2730
@<TRIPOS>BOND
     1     1     2    1
     2     1    13   ar
     3     1    17   ar
     4     2     3    1
     5     2    10    1
     6     3     4   ar
     7     3     9   ar
     8     4     5    1
     9     4     6   ar
    10     6     7   ar
    11     7     8   ar
    12     8     9   ar
    13    10    11    1
    14    11    12   am
    15    11    22    2
    16    12    13    1
    17    13    14   ar
    18    14    15   ar
    19    15    16   ar
    20    16    17   ar
    21    16    21   ar
    22    17    18   ar
    23    18    19   ar
    24    19    20   ar
    25    20    21   ar
