@<TRIPOS>MOLECULE
27050_ChemDiv_3277-0056
 32 37 0 0 0
SMALL
GASTEIGER
Energy = 0

@<TRIPOS>ATOM
      1 C          -1.3330   -0.6130    0.0000 C.ar    1  LIG1        0.2441
      2 C          -1.3500    0.3500    0.0000 C.ar    1  LIG1        0.2441
      3 N          -0.5250    0.8380    0.0000 N.ar    1  LIG1       -0.2015
      4 C           0.2960    0.3710    0.0000 C.ar    1  LIG1        0.1869
      5 C           0.3210   -0.5880    0.0000 C.ar    1  LIG1        0.1829
      6 N          -0.5040   -1.0790    0.0000 N.ar    1  LIG1       -0.2018
      7 N           1.1880   -1.0790    0.0000 N.pl3   1  LIG1       -0.2203
      8 C           1.2000   -2.0670    0.0000 C.3     1  LIG1        0.0866
      9 C           2.0250   -2.6250    0.0000 C.3     1  LIG1       -0.0014
     10 C           1.7250   -3.5080    0.0000 C.3     1  LIG1       -0.0063
     11 C           0.9830   -4.0540    0.0000 C.3     1  LIG1       -0.0199
     12 C           0.1750   -3.5290    0.0000 C.3     1  LIG1       -0.0063
     13 C           0.3960   -2.6250    0.0000 C.3     1  LIG1       -0.0014
     14 C           0.6960   -3.6380    0.0000 C.3     1  LIG1       -0.0063
     15 C           1.5500   -4.1790    0.0000 C.3     1  LIG1       -0.0199
     16 C           2.3460   -3.6290    0.0000 C.3     1  LIG1       -0.0063
     17 C           1.2460   -5.1460    0.0000 C.3     1  LIG1       -0.0079
     18 N           1.1790    0.9380    0.0000 N.pl3   1  LIG1       -0.1917
     19 C           1.1670    1.9790    0.0000 C.ar    1  LIG1        0.0722
     20 C           0.2330    2.5080    0.0000 C.ar    1  LIG1        0.0162
     21 C           0.2210    3.5540    0.0000 C.ar    1  LIG1       -0.0029
     22 C           1.1420    4.0750    0.0000 C.ar    1  LIG1       -0.0218
     23 C           2.0630    3.5790    0.0000 C.ar    1  LIG1       -0.0029
     24 C           2.0710    2.5210    0.0000 C.ar    1  LIG1        0.0162
     25 C           1.1250    5.1460    0.0000 C.3     1  LIG1        0.0310
     26 N          -2.2630    0.6380    0.0000 N.ar    1  LIG1       -0.0270
     27 O          -2.8210   -0.1500    0.0000 O.2     1  LIG1       -0.2385
     28 N          -2.2540   -0.9210    0.0000 N.ar    1  LIG1       -0.0270
     29 H           2.8170   -2.0040    0.0000 H       1  LIG1        0.0334
     30 H           0.1750   -4.6170    0.0000 H       1  LIG1        0.0318
     31 H          -0.4290   -2.0670    0.0000 H       1  LIG1        0.0334
     32 H           2.3460   -4.7790    0.0000 H       1  LIG1        0.0318
@<TRIPOS>BOND
     1     1     2   ar
     2     1     6   ar
     3     1    28   ar
     4     2     3   ar
     5     2    26   ar
     6     3     4   ar
     7     4     5   ar
     8     4    18    1
     9     5     6   ar
    10     5     7    1
    11     7     8    1
    12     8     9    1
    13     8    13    1
    14     9    10    1
    15     9    16    1
    16     9    29    1
    17    10    11    1
    18    11    12    1
    19    11    17    1
    20    11    30    1
    21    12    13    1
    22    13    14    1
    23    13    31    1
    24    14    15    1
    25    15    16    1
    26    15    17    1
    27    15    32    1
    28    18    19    1
    29    19    20   ar
    30    19    24   ar
    31    20    21   ar
    32    21    22   ar
    33    22    23   ar
    34    22    25    1
    35    23    24   ar
    36    26    27   ar
    37    27    28   ar
