@<TRIPOS>MOLECULE
27054_ChemDiv_3448-2261
 25 28 0 0 0
SMALL
GASTEIGER
Energy = 0

@<TRIPOS>ATOM
      1 C          -2.2040   -0.4790    0.0000 C.ar    1  LIG1        0.2441
      2 C          -1.7210    0.3790    0.0000 C.ar    1  LIG1        0.2441
      3 N          -0.7250    0.3790    0.0000 N.ar    1  LIG1       -0.2015
      4 C          -0.2170   -0.4000    0.0000 C.ar    1  LIG1        0.1872
      5 C          -0.6540   -1.2960    0.0000 C.ar    1  LIG1        0.1872
      6 N          -1.6750   -1.2960    0.0000 N.ar    1  LIG1       -0.2015
      7 N          -0.1710   -2.1080    0.0000 N.pl3   1  LIG1       -0.1917
      8 C           0.7790   -2.1080    0.0000 C.ar    1  LIG1        0.0724
      9 C           1.2750   -1.2540    0.0000 C.ar    1  LIG1        0.0198
     10 C           2.2580   -1.2540    0.0000 C.ar    1  LIG1        0.0434
     11 C           2.7290   -2.1080    0.0000 C.ar    1  LIG1        0.1958
     12 C           2.2250   -2.9710    0.0000 C.ar    1  LIG1        0.0434
     13 C           1.2540   -2.9710    0.0000 C.ar    1  LIG1        0.0198
     14 O           3.7290   -2.1080    0.0000 O.3     1  LIG1       -0.2866
     15 N           0.6920   -0.4000    0.0000 N.pl3   1  LIG1       -0.1917
     16 C           1.1580    0.4130    0.0000 C.ar    1  LIG1        0.0724
     17 C           0.6580    1.2290    0.0000 C.ar    1  LIG1        0.0198
     18 C           1.1580    2.1000    0.0000 C.ar    1  LIG1        0.0434
     19 C           2.1170    2.1000    0.0000 C.ar    1  LIG1        0.1958
     20 C           2.5750    1.2290    0.0000 C.ar    1  LIG1        0.0434
     21 C           2.1000    0.4130    0.0000 C.ar    1  LIG1        0.0198
     22 O           2.5960    2.9750    0.0000 O.3     1  LIG1       -0.2866
     23 N          -3.2460    1.2040    0.0000 N.ar    1  LIG1       -0.0270
     24 O          -3.7330    0.3330    0.0000 O.2     1  LIG1       -0.2385
     25 N          -3.1500   -0.4790    0.0000 N.ar    1  LIG1       -0.0270
@<TRIPOS>BOND
     1     1     2   ar
     2     1     6   ar
     3     1    25   ar
     4     2     3   ar
     5     2    23   ar
     6     3     4   ar
     7     4     5   ar
     8     4    15    1
     9     5     6   ar
    10     5     7    1
    11     7     8    1
    12     8     9   ar
    13     8    13   ar
    14     9    10   ar
    15    10    11   ar
    16    11    12   ar
    17    11    14    1
    18    12    13   ar
    19    15    16    1
    20    16    17   ar
    21    16    21   ar
    22    17    18   ar
    23    18    19   ar
    24    19    20   ar
    25    19    22    1
    26    20    21   ar
    27    23    24   ar
    28    24    25   ar
