@<TRIPOS>MOLECULE
27059_ChemDiv_8013-8478
 21 23 0 0 0
SMALL
GASTEIGER
Energy = 0

@<TRIPOS>ATOM
      1 C          -0.8420    0.7460    0.0000 C.ar    1  LIG1        0.1028
      2 C          -1.7130    1.2540    0.0000 C.ar    1  LIG1        0.1790
      3 N          -2.5750    0.7540    0.0000 N.ar    1  LIG1       -0.2316
      4 C          -2.5750   -0.2290    0.0000 C.ar    1  LIG1        0.0565
      5 C          -1.7040   -0.7290    0.0000 C.ar    1  LIG1       -0.0078
      6 C          -0.8420   -0.2630    0.0000 C.ar    1  LIG1        0.0096
      7 C           0.0080   -0.7420    0.0000 C.ar    1  LIG1        0.0005
      8 C           0.8710   -0.2500    0.0000 C.ar    1  LIG1        0.0005
      9 C           1.7420   -0.7500    0.0000 C.ar    1  LIG1        0.0061
     10 C           1.7500   -1.7630    0.0000 C.ar    1  LIG1        0.0252
     11 S           2.6000   -2.2630    0.0000 S.3     1  LIG1       -0.1127
     12 C           3.4630   -1.7630    0.0000 C.3     1  LIG1        0.0742
     13 C           0.8710   -2.2500    0.0000 C.ar    1  LIG1        0.0061
     14 C          -0.0040   -1.7380    0.0000 C.ar    1  LIG1        0.0005
     15 C          -1.7130   -1.7380    0.0000 C.3     1  LIG1        0.0276
     16 C          -2.5960   -2.2380    0.0000 C.3     1  LIG1        0.0051
     17 C          -3.4670   -1.7290    0.0000 C.3     1  LIG1        0.0066
     18 C          -3.4460   -0.7290    0.0000 C.3     1  LIG1        0.0455
     19 N          -1.7040    2.2670    0.0000 N.pl3   1  LIG1       -0.1065
     20 C           0.0170    1.2460    0.0000 C.1     1  LIG1        0.1033
     21 N           0.8880    1.7330    0.0000 N.1     1  LIG1       -0.1907
@<TRIPOS>BOND
     1     1     2   ar
     2     1     6   ar
     3     1    20    1
     4     2     3   ar
     5     2    19    1
     6     3     4   ar
     7     4     5   ar
     8     4    18    1
     9     5     6   ar
    10     5    15    1
    11     6     7    1
    12     7     8   ar
    13     7    14   ar
    14     8     9   ar
    15     9    10   ar
    16    10    11    1
    17    10    13   ar
    18    11    12    1
    19    13    14   ar
    20    15    16    1
    21    16    17    1
    22    17    18    1
    23    20    21    3
