@<TRIPOS>MOLECULE
27051_ChemDiv_8009-9561
 25 29 0 0 0
SMALL
GASTEIGER
Energy = 0

@<TRIPOS>ATOM
      1 C          -0.0170   -1.8040    0.0000 C.ar    1  LIG1        0.0696
      2 C          -0.0170   -0.7960    0.0000 C.ar    1  LIG1       -0.0026
      3 C           0.8580   -0.2880    0.0000 C.3     1  LIG1        0.0559
      4 C           0.8580    0.7210    0.0000 C.ar    1  LIG1       -0.0041
      5 C           1.7250    1.2210    0.0000 C.ar    1  LIG1        0.0572
      6 C           1.7250    2.2080    0.0000 C.ar    1  LIG1        0.0513
      7 C           0.8580    2.7040    0.0000 C.ar    1  LIG1        0.1772
      8 C          -0.0170    2.2080    0.0000 C.ar    1  LIG1        0.1762
      9 C          -0.0170    1.2210    0.0000 C.ar    1  LIG1        0.0371
     10 O          -0.7630    2.8750    0.0000 O.3     1  LIG1       -0.4346
     11 C          -0.3540    3.7920    0.0000 C.3     1  LIG1        0.4294
     12 O           0.6500    3.7000    0.0000 O.3     1  LIG1       -0.4346
     13 CL          2.5920    0.7210    0.0000 Cl      1  LIG1       -0.0825
     14 C           1.7210   -0.7960    0.0000 C.3     1  LIG1        0.0959
     15 C           1.7210   -1.8040    0.0000 C.2     1  LIG1        0.2462
     16 N           0.8580   -2.2920    0.0000 N.am    1  LIG1       -0.1795
     17 O           2.5920   -2.2920    0.0000 O.2     1  LIG1       -0.2730
     18 C          -0.8790   -0.2960    0.0000 C.ar    1  LIG1       -0.0027
     19 C          -1.7460   -0.7960    0.0000 C.ar    1  LIG1       -0.0002
     20 C          -1.7290   -1.8040    0.0000 C.ar    1  LIG1        0.0012
     21 C          -0.8790   -2.2920    0.0000 C.ar    1  LIG1        0.0150
     22 C          -0.8790   -3.2790    0.0000 C.ar    1  LIG1        0.0013
     23 C          -1.7290   -3.7880    0.0000 C.ar    1  LIG1        0.0000
     24 C          -2.5960   -3.2920    0.0000 C.ar    1  LIG1        0.0000
     25 C          -2.5960   -2.2920    0.0000 C.ar    1  LIG1        0.0000
@<TRIPOS>BOND
     1     1     2   ar
     2     1    16    1
     3     1    21   ar
     4     2     3    1
     5     2    18   ar
     6     3     4    1
     7     3    14    1
     8     4     5   ar
     9     4     9   ar
    10     5     6   ar
    11     5    13    1
    12     6     7   ar
    13     7     8   ar
    14     7    12    1
    15     8     9   ar
    16     8    10    1
    17    10    11    1
    18    11    12    1
    19    14    15    1
    20    15    16   am
    21    15    17    2
    22    18    19   ar
    23    19    20   ar
    24    20    21   ar
    25    20    25   ar
    26    21    22   ar
    27    22    23   ar
    28    23    24   ar
    29    24    25   ar
