@<TRIPOS>MOLECULE
27055_ChemDiv_8013-2758
 24 28 0 0 0
SMALL
GASTEIGER
Energy = 0

@<TRIPOS>ATOM
      1 C           1.1790   -1.0330    0.0000 C.3     1  LIG1        0.0555
      2 C           0.3250   -1.5420    0.0000 C.ar    1  LIG1       -0.0029
      3 C           0.3250   -2.5420    0.0000 C.ar    1  LIG1        0.0694
      4 N           1.1790   -3.0380    0.0000 N.am    1  LIG1       -0.1795
      5 C           2.0580   -2.5420    0.0000 C.2     1  LIG1        0.2462
      6 C           2.0580   -1.5420    0.0000 C.3     1  LIG1        0.0959
      7 O           2.9210   -3.0380    0.0000 O.2     1  LIG1       -0.2730
      8 C          -0.5380   -3.0380    0.0000 C.ar    1  LIG1        0.0117
      9 C          -1.4040   -2.5460    0.0000 C.ar    1  LIG1       -0.0249
     10 C          -1.4000   -1.5420    0.0000 C.ar    1  LIG1       -0.0263
     11 C          -0.5380   -1.0460    0.0000 C.ar    1  LIG1       -0.0072
     12 C          -2.3460   -1.2330    0.0000 C.3     1  LIG1        0.0264
     13 C          -2.9330   -2.0380    0.0000 C.3     1  LIG1        0.0093
     14 C          -2.3460   -2.8460    0.0000 C.3     1  LIG1        0.0264
     15 C           1.1790   -0.0330    0.0000 C.ar    1  LIG1       -0.0085
     16 C           2.0580    0.4630    0.0000 C.ar    1  LIG1        0.0341
     17 C           2.0580    1.4630    0.0000 C.ar    1  LIG1        0.0466
     18 C           1.1790    1.9670    0.0000 C.ar    1  LIG1        0.1769
     19 C           0.3250    1.4630    0.0000 C.ar    1  LIG1        0.1761
     20 C           0.3250    0.4630    0.0000 C.ar    1  LIG1        0.0367
     21 O          -0.4380    2.1210    0.0000 O.3     1  LIG1       -0.4346
     22 C          -0.0330    3.0420    0.0000 C.3     1  LIG1        0.4294
     23 O           0.9710    2.9500    0.0000 O.3     1  LIG1       -0.4346
     24 BR          2.9290   -0.0420    0.0000 Br      1  LIG1       -0.0492
@<TRIPOS>BOND
     1     1     2    1
     2     1     6    1
     3     1    15    1
     4     2     3   ar
     5     2    11   ar
     6     3     4    1
     7     3     8   ar
     8     4     5   am
     9     5     6    1
    10     5     7    2
    11     8     9   ar
    12     9    10   ar
    13     9    14    1
    14    10    11   ar
    15    10    12    1
    16    12    13    1
    17    13    14    1
    18    15    16   ar
    19    15    20   ar
    20    16    17   ar
    21    16    24    1
    22    17    18   ar
    23    18    19   ar
    24    18    23    1
    25    19    20   ar
    26    19    21    1
    27    21    22    1
    28    22    23    1
