@<TRIPOS>MOLECULE
27069_ChemDiv_8017-3407
 22 23 0 0 0
SMALL
GASTEIGER
Energy = 0

@<TRIPOS>ATOM
      1 C           0.4380   -2.2500    0.0000 C.ar    1  LIG1        0.1028
      2 C           0.4380   -3.2540    0.0000 C.ar    1  LIG1        0.1790
      3 N          -0.4330   -3.7540    0.0000 N.ar    1  LIG1       -0.2316
      4 C          -1.2960   -3.2500    0.0000 C.ar    1  LIG1        0.0569
      5 C          -1.2960   -2.2540    0.0000 C.ar    1  LIG1       -0.0075
      6 C          -0.4330   -1.7500    0.0000 C.ar    1  LIG1        0.0096
      7 C          -0.4330   -0.7540    0.0000 C.ar    1  LIG1        0.0006
      8 C          -1.3080   -0.2540    0.0000 C.ar    1  LIG1        0.0013
      9 C          -1.3080    0.7460    0.0000 C.ar    1  LIG1        0.0145
     10 C          -0.4580    1.2460    0.0000 C.ar    1  LIG1        0.0478
     11 N          -0.4630    2.2460    0.0000 N.pl3   1  LIG1       -0.3075
     12 C           0.3920    2.7580    0.0000 C.3     1  LIG1        0.0908
     13 C           0.3880    3.7580    0.0000 C.3     1  LIG1        0.0232
     14 C          -1.3380    2.7460    0.0000 C.3     1  LIG1        0.0908
     15 C          -1.3460    3.7330    0.0000 C.3     1  LIG1        0.0232
     16 C           0.4170    0.7500    0.0000 C.ar    1  LIG1        0.0145
     17 C           0.4170   -0.2500    0.0000 C.ar    1  LIG1        0.0013
     18 C          -2.1710   -1.7540    0.0000 C.3     1  LIG1        0.0323
     19 C          -2.1710   -3.7420    0.0000 C.3     1  LIG1        0.0518
     20 N           1.3000   -3.7540    0.0000 N.pl3   1  LIG1       -0.1065
     21 C           1.3000   -1.7500    0.0000 C.1     1  LIG1        0.1033
     22 N           2.1670   -1.2420    0.0000 N.1     1  LIG1       -0.1907
@<TRIPOS>BOND
     1     1     2   ar
     2     1     6   ar
     3     1    21    1
     4     2     3   ar
     5     2    20    1
     6     3     4   ar
     7     4     5   ar
     8     4    19    1
     9     5     6   ar
    10     5    18    1
    11     6     7    1
    12     7     8   ar
    13     7    17   ar
    14     8     9   ar
    15     9    10   ar
    16    10    11    1
    17    10    16   ar
    18    11    12    1
    19    11    14    1
    20    12    13    1
    21    14    15    1
    22    16    17   ar
    23    21    22    3
