@<TRIPOS>MOLECULE
27068_ChemDiv_3002-0695
 27 28 0 0 0
SMALL
GASTEIGER
Energy = 0

@<TRIPOS>ATOM
      1 C           3.0170    0.2500    0.0000 C.2     1  LIG1        0.2749
      2 C           3.0170    1.2420    0.0000 C.ar    1  LIG1        0.1231
      3 C           2.1420    1.7420    0.0000 C.ar    1  LIG1        0.1461
      4 O           1.2790    1.2290    0.0000 O.3     1  LIG1       -0.4712
      5 C           1.2790    0.2330    0.0000 C.3     1  LIG1        0.2525
      6 C           2.1290    2.7420    0.0000 C.ar    1  LIG1        0.0373
      7 C           3.0000    3.2580    0.0000 C.ar    1  LIG1        0.0062
      8 C           3.8710    2.7580    0.0000 C.ar    1  LIG1        0.0373
      9 C           3.8710    1.7500    0.0000 C.ar    1  LIG1        0.1461
     10 O           4.7330    1.2580    0.0000 O.3     1  LIG1       -0.4712
     11 C           5.6040    1.7630    0.0000 C.3     1  LIG1        0.2525
     12 N           2.1670   -0.2500    0.0000 N.am    1  LIG1       -0.1753
     13 C           1.3040   -0.7420    0.0000 C.ar    1  LIG1        0.0737
     14 C           0.4330   -0.2540    0.0000 C.ar    1  LIG1        0.0168
     15 C          -0.4290   -0.7420    0.0000 C.ar    1  LIG1        0.0078
     16 C          -0.4290   -1.7500    0.0000 C.ar    1  LIG1        0.0757
     17 C          -1.3000   -2.2500    0.0000 C.2     1  LIG1        0.3413
     18 O          -1.3000   -3.2540    0.0000 O.2     1  LIG1       -0.2449
     19 O          -2.1580   -1.7500    0.0000 O.3     1  LIG1       -0.4427
     20 C          -3.0330   -2.2500    0.0000 C.3     1  LIG1        0.2407
     21 C          -3.8880   -1.7500    0.0000 C.3     1  LIG1        0.1894
     22 O          -4.7630   -2.2500    0.0000 O.3     1  LIG1       -0.3498
     23 C          -5.6080   -1.7500    0.0000 C.3     1  LIG1        0.1424
     24 C          -5.6080   -0.7420    0.0000 C.3     1  LIG1        0.0346
     25 C           0.4330   -2.2500    0.0000 C.ar    1  LIG1        0.0078
     26 C           1.3040   -1.7500    0.0000 C.ar    1  LIG1        0.0168
     27 O           3.8830   -0.2500    0.0000 O.2     1  LIG1       -0.2678
@<TRIPOS>BOND
     1     1     2    1
     2     1    12   am
     3     1    27    2
     4     2     3   ar
     5     2     9   ar
     6     3     4    1
     7     3     6   ar
     8     4     5    1
     9     6     7   ar
    10     7     8   ar
    11     8     9   ar
    12     9    10    1
    13    10    11    1
    14    12    13    1
    15    13    14   ar
    16    13    26   ar
    17    14    15   ar
    18    15    16   ar
    19    16    17    1
    20    16    25   ar
    21    17    18    2
    22    17    19    1
    23    19    20    1
    24    20    21    1
    25    21    22    1
    26    22    23    1
    27    23    24    1
    28    25    26   ar
