@<TRIPOS>MOLECULE
27064_ChemDiv_1763-0006
 24 26 0 0 0
SMALL
GASTEIGER
Energy = 0

@<TRIPOS>ATOM
      1 C          -0.4960    0.8830    0.0000 C.2     1  LIG1        0.2690
      2 N          -1.0040    1.7290    0.0000 N.am    1  LIG1       -0.1754
      3 C          -2.0000    1.7290    0.0000 C.ar    1  LIG1        0.0737
      4 C          -2.5080    2.6040    0.0000 C.ar    1  LIG1        0.0166
      5 C          -3.5080    2.6040    0.0000 C.ar    1  LIG1        0.0013
      6 C          -4.0170    1.7290    0.0000 C.ar    1  LIG1        0.0001
      7 C          -3.5080    0.8830    0.0000 C.ar    1  LIG1        0.0013
      8 C          -2.5080    0.8830    0.0000 C.ar    1  LIG1        0.0166
      9 C           0.5250    0.8830    0.0000 C.ar    1  LIG1        0.0554
     10 C           1.0000    0.0080    0.0000 C.ar    1  LIG1        0.0047
     11 C           2.0210    0.0080    0.0000 C.ar    1  LIG1        0.0047
     12 C           2.5130    0.8830    0.0000 C.ar    1  LIG1        0.0554
     13 C           3.5290    0.8830    0.0000 C.2     1  LIG1        0.2690
     14 N           4.0130    0.0080    0.0000 N.am    1  LIG1       -0.1754
     15 C           3.5290   -0.8790    0.0000 C.ar    1  LIG1        0.0737
     16 C           2.5130   -0.8790    0.0000 C.ar    1  LIG1        0.0166
     17 C           2.0210   -1.7130    0.0000 C.ar    1  LIG1        0.0013
     18 C           2.5130   -2.6000    0.0000 C.ar    1  LIG1        0.0001
     19 C           3.5290   -2.6000    0.0000 C.ar    1  LIG1        0.0013
     20 C           4.0130   -1.7130    0.0000 C.ar    1  LIG1        0.0166
     21 O           4.0130    1.7290    0.0000 O.2     1  LIG1       -0.2680
     22 C           2.0210    1.7290    0.0000 C.ar    1  LIG1        0.0047
     23 C           1.0000    1.7290    0.0000 C.ar    1  LIG1        0.0047
     24 O          -1.0040    0.0080    0.0000 O.2     1  LIG1       -0.2680
@<TRIPOS>BOND
     1     1     2   am
     2     1     9    1
     3     1    24    2
     4     2     3    1
     5     3     4   ar
     6     3     8   ar
     7     4     5   ar
     8     5     6   ar
     9     6     7   ar
    10     7     8   ar
    11     9    10   ar
    12     9    23   ar
    13    10    11   ar
    14    11    12   ar
    15    12    13    1
    16    12    22   ar
    17    13    14   am
    18    13    21    2
    19    14    15    1
    20    15    16   ar
    21    15    20   ar
    22    16    17   ar
    23    17    18   ar
    24    18    19   ar
    25    19    20   ar
    26    22    23   ar
