@<TRIPOS>MOLECULE
27060_ChemDiv_K784-4051
 21 23 0 0 0
SMALL
GASTEIGER
Energy = 0

@<TRIPOS>ATOM
      1 C          -0.1750   -0.9710    0.0000 C.ar    1  LIG1        0.1726
      2 N          -0.1630   -1.9790    0.0000 N.ar    1  LIG1       -0.1757
      3 C           0.6880   -2.4670    0.0000 C.ar    1  LIG1        0.2934
      4 C           1.5500   -1.9790    0.0000 C.ar    1  LIG1        0.1289
      5 C           1.5630   -0.9710    0.0000 C.ar    1  LIG1        0.0763
      6 N           0.6880   -0.4630    0.0000 N.ar    1  LIG1       -0.2296
      7 C           2.4290   -0.4710    0.0000 C.3     1  LIG1        0.0532
      8 CL          2.4170   -2.4670    0.0000 Cl      1  LIG1       -0.0760
      9 O           0.6880   -3.4750    0.0000 O.3     1  LIG1       -0.2641
     10 N          -1.1170   -2.2880    0.0000 N.ar    1  LIG1       -0.1593
     11 C          -1.7170   -1.4790    0.0000 C.ar    1  LIG1        0.1283
     12 C          -1.1290   -0.6630    0.0000 C.ar    1  LIG1        0.1117
     13 C          -1.4500    0.2920    0.0000 C.2     1  LIG1        0.2698
     14 N          -0.7790    1.0460    0.0000 N.am    1  LIG1       -0.1933
     15 C           0.2170    1.0460    0.0000 C.3     1  LIG1        0.1794
     16 C           0.7040    1.9080    0.0000 C.ar    1  LIG1        0.1449
     17 O           0.2960    2.8170    0.0000 O.2     1  LIG1       -0.4529
     18 C           1.0380    3.4790    0.0000 C.ar    1  LIG1        0.1792
     19 C           1.9000    2.9880    0.0000 C.ar    1  LIG1        0.0435
     20 C           1.6880    2.0130    0.0000 C.ar    1  LIG1        0.0380
     21 O          -2.4330    0.5000    0.0000 O.2     1  LIG1       -0.2682
@<TRIPOS>BOND
     1     1     2   ar
     2     1     6   ar
     3     1    12   ar
     4     2     3   ar
     5     2    10   ar
     6     3     4   ar
     7     3     9    1
     8     4     5   ar
     9     4     8    1
    10     5     6   ar
    11     5     7    1
    12    10    11   ar
    13    11    12   ar
    14    12    13    1
    15    13    14   am
    16    13    21    2
    17    14    15    1
    18    15    16    1
    19    16    17   ar
    20    16    20   ar
    21    17    18   ar
    22    18    19   ar
    23    19    20   ar
