@<TRIPOS>MOLECULE
27067_ChemDiv_8017-3406
 21 22 0 0 0
SMALL
GASTEIGER
Energy = 0

@<TRIPOS>ATOM
      1 C           0.4290   -1.7540    0.0000 C.ar    1  LIG1        0.1028
      2 C           0.4290   -2.7540    0.0000 C.ar    1  LIG1        0.1790
      3 N          -0.4380   -3.2540    0.0000 N.ar    1  LIG1       -0.2316
      4 C          -1.3000   -2.7540    0.0000 C.ar    1  LIG1        0.0569
      5 C          -1.3000   -1.7540    0.0000 C.ar    1  LIG1       -0.0075
      6 C          -0.4380   -1.2540    0.0000 C.ar    1  LIG1        0.0096
      7 C          -0.4420   -0.2540    0.0000 C.ar    1  LIG1        0.0005
      8 C           0.4290    0.2500    0.0000 C.ar    1  LIG1        0.0002
      9 C           0.4170    1.2580    0.0000 C.ar    1  LIG1        0.0064
     10 C          -0.4500    1.7500    0.0000 C.ar    1  LIG1        0.0756
     11 C          -0.4670    2.7500    0.0000 C.2     1  LIG1        0.3413
     12 O          -1.3290    3.2460    0.0000 O.2     1  LIG1       -0.2449
     13 O           0.4000    3.2580    0.0000 O.3     1  LIG1       -0.4413
     14 C           1.2750    2.7710    0.0000 C.3     1  LIG1        0.2560
     15 C          -1.3170    1.2460    0.0000 C.ar    1  LIG1        0.0064
     16 C          -1.3040    0.2380    0.0000 C.ar    1  LIG1        0.0002
     17 C          -2.1670   -1.2670    0.0000 C.3     1  LIG1        0.0323
     18 C          -2.1670   -3.2460    0.0000 C.3     1  LIG1        0.0518
     19 N           1.3040   -3.2540    0.0000 N.pl3   1  LIG1       -0.1065
     20 C           1.2920   -1.2540    0.0000 C.1     1  LIG1        0.1033
     21 N           2.1630   -0.7460    0.0000 N.1     1  LIG1       -0.1907
@<TRIPOS>BOND
     1     1     2   ar
     2     1     6   ar
     3     1    20    1
     4     2     3   ar
     5     2    19    1
     6     3     4   ar
     7     4     5   ar
     8     4    18    1
     9     5     6   ar
    10     5    17    1
    11     6     7    1
    12     7     8   ar
    13     7    16   ar
    14     8     9   ar
    15     9    10   ar
    16    10    11    1
    17    10    15   ar
    18    11    12    2
    19    11    13    1
    20    13    14    1
    21    15    16   ar
    22    20    21    3
