@<TRIPOS>MOLECULE
27061_ChemDiv_8015-6904
 26 28 0 0 0
SMALL
GASTEIGER
Energy = 0

@<TRIPOS>ATOM
      1 C           0.2790   -1.1750    0.0000 C.ar    1  LIG1        0.0127
      2 C           1.1920   -1.6000    0.0000 C.ar    1  LIG1        0.1029
      3 C           1.1920   -2.6670    0.0000 C.ar    1  LIG1        0.1790
      4 N           0.2920   -3.1880    0.0000 N.ar    1  LIG1       -0.2316
      5 C          -0.6080   -2.6670    0.0000 C.ar    1  LIG1        0.0565
      6 C          -0.6080   -1.6420    0.0000 C.ar    1  LIG1       -0.0077
      7 C          -1.4170   -1.0130    0.0000 C.3     1  LIG1        0.0276
      8 C          -2.4080   -1.2420    0.0000 C.3     1  LIG1        0.0047
      9 C          -2.8540   -2.1670    0.0000 C.3     1  LIG1        0.0007
     10 C          -2.4040   -3.0880    0.0000 C.3     1  LIG1        0.0063
     11 C          -1.4080   -3.3040    0.0000 C.3     1  LIG1        0.0455
     12 N           2.1000   -3.1880    0.0000 N.pl3   1  LIG1       -0.1065
     13 C           2.0000   -1.3880    0.0000 C.1     1  LIG1        0.1033
     14 N           2.7630   -1.2540    0.0000 N.1     1  LIG1       -0.1907
     15 C           0.2540   -0.1790    0.0000 C.ar    1  LIG1        0.0377
     16 C           1.1130    0.3500    0.0000 C.ar    1  LIG1        0.1754
     17 C           1.0790    1.3500    0.0000 C.ar    1  LIG1        0.2061
     18 C           0.2040    1.8250    0.0000 C.ar    1  LIG1        0.1754
     19 C          -0.6460    1.3080    0.0000 C.ar    1  LIG1        0.0403
     20 C          -0.6290    0.3080    0.0000 C.ar    1  LIG1        0.0063
     21 O           0.1790    2.8330    0.0000 O.3     1  LIG1       -0.4683
     22 C          -0.6920    3.3080    0.0000 C.3     1  LIG1        0.2526
     23 O           1.9290    1.8710    0.0000 O.3     1  LIG1       -0.4654
     24 C           1.9040    2.8710    0.0000 C.3     1  LIG1        0.2528
     25 O           2.0000   -0.1290    0.0000 O.3     1  LIG1       -0.4683
     26 C           2.8500    0.4000    0.0000 C.3     1  LIG1        0.2526
@<TRIPOS>BOND
     1     1     2   ar
     2     1     6   ar
     3     1    15    1
     4     2     3   ar
     5     2    13    1
     6     3     4   ar
     7     3    12    1
     8     4     5   ar
     9     5     6   ar
    10     5    11    1
    11     6     7    1
    12     7     8    1
    13     8     9    1
    14     9    10    1
    15    10    11    1
    16    13    14    3
    17    15    16   ar
    18    15    20   ar
    19    16    17   ar
    20    16    25    1
    21    17    18   ar
    22    17    23    1
    23    18    19   ar
    24    18    21    1
    25    19    20   ar
    26    21    22    1
    27    23    24    1
    28    25    26    1
