@<TRIPOS>MOLECULE
27075_ChemDiv_8013-5993
 22 25 0 0 0
SMALL
GASTEIGER
Energy = 0

@<TRIPOS>ATOM
      1 C           0.3330   -1.5000    0.0000 C.ar    1  LIG1       -0.0029
      2 C           0.3330   -2.5000    0.0000 C.ar    1  LIG1        0.0694
      3 N           1.1920   -3.0000    0.0000 N.am    1  LIG1       -0.1795
      4 C           2.0580   -2.5000    0.0000 C.2     1  LIG1        0.2462
      5 C           2.0580   -1.5000    0.0000 C.3     1  LIG1        0.0959
      6 C           1.1920   -0.9920    0.0000 C.3     1  LIG1        0.0550
      7 C           1.1920    0.0080    0.0000 C.ar    1  LIG1       -0.0170
      8 C           2.0670    0.5040    0.0000 C.ar    1  LIG1        0.0083
      9 C           2.0670    1.5080    0.0000 C.ar    1  LIG1        0.0679
     10 C           1.1920    2.0130    0.0000 C.ar    1  LIG1        0.0682
     11 C           0.3210    1.5000    0.0000 C.ar    1  LIG1        0.0119
     12 C           0.3330    0.5040    0.0000 C.ar    1  LIG1       -0.0030
     13 CL          1.1790    3.0000    0.0000 Cl      1  LIG1       -0.0814
     14 CL          2.9290    2.0130    0.0000 Cl      1  LIG1       -0.0814
     15 O           2.9290   -3.0000    0.0000 O.2     1  LIG1       -0.2730
     16 C          -0.5290   -3.0000    0.0000 C.ar    1  LIG1        0.0117
     17 C          -1.4130   -2.5000    0.0000 C.ar    1  LIG1       -0.0249
     18 C          -1.4000   -1.5000    0.0000 C.ar    1  LIG1       -0.0263
     19 C          -0.5290   -1.0000    0.0000 C.ar    1  LIG1       -0.0072
     20 C          -2.3420   -1.1830    0.0000 C.3     1  LIG1        0.0264
     21 C          -2.9330   -1.9830    0.0000 C.3     1  LIG1        0.0093
     22 C          -2.3580   -2.8000    0.0000 C.3     1  LIG1        0.0264
@<TRIPOS>BOND
     1     1     2   ar
     2     1     6    1
     3     1    19   ar
     4     2     3    1
     5     2    16   ar
     6     3     4   am
     7     4     5    1
     8     4    15    2
     9     5     6    1
    10     6     7    1
    11     7     8   ar
    12     7    12   ar
    13     8     9   ar
    14     9    10   ar
    15     9    14    1
    16    10    11   ar
    17    10    13    1
    18    11    12   ar
    19    16    17   ar
    20    17    18   ar
    21    17    22    1
    22    18    19   ar
    23    18    20    1
    24    20    21    1
    25    21    22    1
