@<TRIPOS>MOLECULE
27070_ChemDiv_3814-0202
 34 36 0 0 0
SMALL
GASTEIGER
Energy = 0

@<TRIPOS>ATOM
      1 C           1.9920   -0.2750    0.0000 C.2     1  LIG1        0.2690
      2 N           2.6460    0.4630    0.0000 N.am    1  LIG1       -0.1754
      3 C           3.6290    0.3040    0.0000 C.ar    1  LIG1        0.0738
      4 C           3.9960   -0.5920    0.0000 C.ar    1  LIG1        0.0179
      5 C           5.0080   -0.7540    0.0000 C.ar    1  LIG1        0.0162
      6 C           5.6630    0.0130    0.0000 C.ar    1  LIG1        0.0540
      7 N           6.6380   -0.1040    0.0000 N.am    1  LIG1       -0.2569
      8 C           7.2920    0.6500    0.0000 C.2     1  LIG1        0.2299
      9 O           6.8830    1.5830    0.0000 O.2     1  LIG1       -0.2745
     10 C           8.2710    0.5000    0.0000 C.3     1  LIG1        0.0952
     11 C           7.0460   -1.0290    0.0000 C.3     1  LIG1        0.1200
     12 C           5.2540    0.9500    0.0000 C.ar    1  LIG1        0.0162
     13 C           4.2750    1.0920    0.0000 C.ar    1  LIG1        0.0179
     14 C           0.9580   -0.1290    0.0000 C.ar    1  LIG1        0.0554
     15 C           0.3630   -0.9170    0.0000 C.ar    1  LIG1        0.0047
     16 C          -0.6080   -0.7630    0.0000 C.ar    1  LIG1        0.0047
     17 C          -0.9630    0.0960    0.0000 C.ar    1  LIG1        0.0554
     18 C          -1.9750    0.2420    0.0000 C.2     1  LIG1        0.2690
     19 N          -2.6080   -0.5130    0.0000 N.am    1  LIG1       -0.1754
     20 C          -3.6330   -0.3460    0.0000 C.ar    1  LIG1        0.0738
     21 C          -3.9920    0.5830    0.0000 C.ar    1  LIG1        0.0179
     22 C          -5.0130    0.7130    0.0000 C.ar    1  LIG1        0.0162
     23 C          -5.6460   -0.0210    0.0000 C.ar    1  LIG1        0.0540
     24 N          -6.6380    0.0790    0.0000 N.am    1  LIG1       -0.2569
     25 C          -7.2710   -0.6750    0.0000 C.2     1  LIG1        0.2299
     26 O          -6.8830   -1.5790    0.0000 O.2     1  LIG1       -0.2745
     27 C          -8.2710   -0.5130    0.0000 C.3     1  LIG1        0.0952
     28 C          -7.0040    1.0290    0.0000 C.3     1  LIG1        0.1200
     29 C          -5.2580   -0.9460    0.0000 C.ar    1  LIG1        0.0162
     30 C          -4.2580   -1.0880    0.0000 C.ar    1  LIG1        0.0179
     31 O          -2.3500    1.2210    0.0000 O.2     1  LIG1       -0.2680
     32 C          -0.3460    0.9080    0.0000 C.ar    1  LIG1        0.0047
     33 C           0.6040    0.7670    0.0000 C.ar    1  LIG1        0.0047
     34 O           2.3460   -1.2460    0.0000 O.2     1  LIG1       -0.2680
@<TRIPOS>BOND
     1     1     2   am
     2     1    14    1
     3     1    34    2
     4     2     3    1
     5     3     4   ar
     6     3    13   ar
     7     4     5   ar
     8     5     6   ar
     9     6     7    1
    10     6    12   ar
    11     7     8   am
    12     7    11    1
    13     8     9    2
    14     8    10    1
    15    12    13   ar
    16    14    15   ar
    17    14    33   ar
    18    15    16   ar
    19    16    17   ar
    20    17    18    1
    21    17    32   ar
    22    18    19   am
    23    18    31    2
    24    19    20    1
    25    20    21   ar
    26    20    30   ar
    27    21    22   ar
    28    22    23   ar
    29    23    24    1
    30    23    29   ar
    31    24    25   am
    32    24    28    1
    33    25    26    2
    34    25    27    1
    35    29    30   ar
    36    32    33   ar
