@<TRIPOS>MOLECULE
27076_ChemDiv_5386-0664
 20 24 0 0 0
SMALL
GASTEIGER
Energy = 0

@<TRIPOS>ATOM
      1 C           0.4580    1.0290    0.0000 C.ar    1  LIG1        0.1204
      2 C           1.3290    1.5290    0.0000 C.ar    1  LIG1        0.1279
      3 C           1.3290    2.5330    0.0000 C.ar    1  LIG1        0.1104
      4 N           2.2830    2.8420    0.0000 N.ar    1  LIG1       -0.1901
      5 S           2.8750    2.0290    0.0000 S.2     1  LIG1        0.1166
      6 N           2.2830    1.2130    0.0000 N.ar    1  LIG1       -0.1885
      7 C           0.4670    3.0330    0.0000 C.ar    1  LIG1        0.0230
      8 C          -0.4130    2.5380    0.0000 C.ar    1  LIG1        0.0224
      9 C          -0.4130    1.5290    0.0000 C.ar    1  LIG1        0.1023
     10 N          -1.2750    1.0460    0.0000 N.ar    1  LIG1       -0.2224
     11 C          -1.2750    0.0380    0.0000 C.ar    1  LIG1        0.2005
     12 N          -2.1460   -0.4580    0.0000 N.ar    1  LIG1       -0.1991
     13 C          -2.1460   -1.4500    0.0000 C.ar    1  LIG1        0.2442
     14 C          -1.2750   -1.9540    0.0000 C.ar    1  LIG1        0.2442
     15 N          -0.4130   -1.4500    0.0000 N.ar    1  LIG1       -0.1991
     16 C          -0.4130   -0.4630    0.0000 C.ar    1  LIG1        0.2005
     17 N           0.4500    0.0380    0.0000 N.ar    1  LIG1       -0.2208
     18 N          -1.4830   -2.9290    0.0000 N.ar    1  LIG1       -0.0269
     19 O          -2.4710   -3.0290    0.0000 O.2     1  LIG1       -0.2385
     20 N          -2.8790   -2.1210    0.0000 N.ar    1  LIG1       -0.0269
@<TRIPOS>BOND
     1     1     2   ar
     2     1     9   ar
     3     1    17   ar
     4     2     3   ar
     5     2     6   ar
     6     3     4   ar
     7     3     7   ar
     8     4     5   ar
     9     5     6   ar
    10     7     8   ar
    11     8     9   ar
    12     9    10   ar
    13    10    11   ar
    14    11    12   ar
    15    11    16   ar
    16    12    13   ar
    17    13    14   ar
    18    13    20   ar
    19    14    15   ar
    20    14    18   ar
    21    15    16   ar
    22    16    17   ar
    23    18    19   ar
    24    19    20   ar
