@<TRIPOS>MOLECULE
27077_ChemDiv_8016-5507
 18 19 0 0 0
SMALL
GASTEIGER
Energy = 0

@<TRIPOS>ATOM
      1 C           0.4330   -0.7460    0.0000 C.ar    1  LIG1        0.0729
      2 C           0.4330    0.2580    0.0000 C.ar    1  LIG1        0.0018
      3 C           1.2960    0.7580    0.0000 C.3     1  LIG1        0.0693
      4 C           1.2960    1.7580    0.0000 C.2     1  LIG1        0.0546
      5 O           0.4330    2.2580    0.0000 O.co2   1  LIG1       -0.5488
      6 O           2.1580    2.2580    0.0000 O.co2   1  LIG1       -0.5488
      7 C           2.1670    0.2580    0.0000 C.3     1  LIG1        0.0971
      8 C           2.1580   -0.7580    0.0000 C.2     1  LIG1        0.2463
      9 N           1.2960   -1.2460    0.0000 N.am    1  LIG1       -0.1794
     10 O           3.0290   -1.2540    0.0000 O.2     1  LIG1       -0.2730
     11 C          -0.4330    0.7460    0.0000 C.ar    1  LIG1        0.0374
     12 C          -1.2960    0.2580    0.0000 C.ar    1  LIG1        0.1722
     13 C          -1.2960   -0.7580    0.0000 C.ar    1  LIG1        0.1737
     14 C          -0.4330   -1.2540    0.0000 C.ar    1  LIG1        0.0563
     15 O          -2.1710   -1.2540    0.0000 O.3     1  LIG1       -0.4683
     16 C          -2.1710   -2.2540    0.0000 C.3     1  LIG1        0.2526
     17 O          -2.1710    0.7500    0.0000 O.3     1  LIG1       -0.4684
     18 C          -3.0330    0.2460    0.0000 C.3     1  LIG1        0.2526
@<TRIPOS>BOND
     1     1     2   ar
     2     1     9    1
     3     1    14   ar
     4     2     3    1
     5     2    11   ar
     6     3     4    1
     7     3     7    1
     8     4     5   ar
     9     4     6   ar
    10     7     8    1
    11     8     9   am
    12     8    10    2
    13    11    12   ar
    14    12    13   ar
    15    12    17    1
    16    13    14   ar
    17    13    15    1
    18    15    16    1
    19    17    18    1
