@<TRIPOS>MOLECULE
27088_ChemDiv_C151-0412
 24 26 0 0 0
SMALL
GASTEIGER
Energy = 0

@<TRIPOS>ATOM
      1 C          -1.2750    1.2290    0.0000 C.2     1  LIG1        0.0211
      2 C          -2.1170    1.7250    0.0000 C.2     1  LIG1        0.1916
      3 C          -2.9580    1.2290    0.0000 C.ar    1  LIG1        0.0350
      4 C          -2.9580    0.2630    0.0000 C.ar    1  LIG1       -0.0146
      5 C          -1.2750    0.2540    0.0000 C.3     1  LIG1        0.0560
      6 C          -3.8000   -0.2290    0.0000 C.ar    1  LIG1       -0.0038
      7 C          -4.6330    0.2540    0.0000 C.ar    1  LIG1       -0.0003
      8 C          -4.6330    1.2290    0.0000 C.ar    1  LIG1        0.0001
      9 C          -3.8000    1.7170    0.0000 C.ar    1  LIG1        0.0029
     10 O          -2.1170    2.6920    0.0000 O.2     1  LIG1       -0.2869
     11 C          -0.4290    1.7130    0.0000 C.2     1  LIG1       -0.0007
     12 C           0.4080    1.2290    0.0000 C.ar    1  LIG1        0.0030
     13 C           1.2500    1.7130    0.0000 C.ar    1  LIG1        0.0400
     14 C           2.0790    1.2290    0.0000 C.ar    1  LIG1        0.1724
     15 C           2.0790    0.2460    0.0000 C.ar    1  LIG1        0.1722
     16 O           2.9250   -0.2330    0.0000 O.3     1  LIG1       -0.4724
     17 C           2.9250   -1.1960    0.0000 C.3     1  LIG1        0.2054
     18 C           3.7670   -1.6920    0.0000 C.3     1  LIG1        0.0438
     19 C           3.7630   -2.6880    0.0000 C.3     1  LIG1        0.0038
     20 C           4.6290   -1.1960    0.0000 C.3     1  LIG1        0.0038
     21 C           1.2420   -0.2290    0.0000 C.ar    1  LIG1        0.0400
     22 C           0.4080    0.2540    0.0000 C.ar    1  LIG1        0.0033
     23 O           2.9250    1.7170    0.0000 O.3     1  LIG1       -0.4684
     24 C           3.7670    1.2290    0.0000 C.3     1  LIG1        0.2526
@<TRIPOS>BOND
     1     1     2    1
     2     1     5    1
     3     1    11    2
     4     2     3    1
     5     2    10    2
     6     3     4   ar
     7     3     9   ar
     8     4     5    1
     9     4     6   ar
    10     6     7   ar
    11     7     8   ar
    12     8     9   ar
    13    11    12    1
    14    12    13   ar
    15    12    22   ar
    16    13    14   ar
    17    14    15   ar
    18    14    23    1
    19    15    16    1
    20    15    21   ar
    21    16    17    1
    22    17    18    1
    23    18    19    1
    24    18    20    1
    25    21    22   ar
    26    23    24    1
