@<TRIPOS>MOLECULE
27083_ChemDiv_C276-0505
 20 23 0 0 0
SMALL
GASTEIGER
Energy = 0

@<TRIPOS>ATOM
      1 C           0.3500   -1.9880    0.0000 C.ar    1  LIG1        0.0729
      2 C           0.3500   -1.0000    0.0000 C.ar    1  LIG1        0.0006
      3 C           1.2040   -0.4830    0.0000 C.3     1  LIG1        0.0552
      4 C           2.0830   -1.0000    0.0000 C.3     1  LIG1        0.0959
      5 C           2.0830   -1.9880    0.0000 C.2     1  LIG1        0.2462
      6 N           1.2040   -2.4920    0.0000 N.am    1  LIG1       -0.1794
      7 O           2.9380   -2.4920    0.0000 O.2     1  LIG1       -0.2730
      8 C           1.2040    0.5080    0.0000 C.ar    1  LIG1       -0.0148
      9 C           2.0750    1.0040    0.0000 C.ar    1  LIG1        0.0167
     10 C           2.0750    1.9920    0.0000 C.ar    1  LIG1        0.0986
     11 N           1.2130    2.4960    0.0000 N.ar    1  LIG1       -0.2423
     12 C           0.3500    1.9920    0.0000 C.ar    1  LIG1        0.0986
     13 C           0.3500    1.0040    0.0000 C.ar    1  LIG1        0.0167
     14 C          -0.5130   -0.4960    0.0000 C.ar    1  LIG1        0.0375
     15 C          -1.3670   -1.0000    0.0000 C.ar    1  LIG1        0.1762
     16 C          -1.3880   -2.0130    0.0000 C.ar    1  LIG1        0.1777
     17 C          -0.5130   -2.4920    0.0000 C.ar    1  LIG1        0.0564
     18 O          -2.3580   -2.3040    0.0000 O.3     1  LIG1       -0.4346
     19 C          -2.9420   -1.4790    0.0000 C.3     1  LIG1        0.4294
     20 O          -2.3250   -0.6710    0.0000 O.3     1  LIG1       -0.4346
@<TRIPOS>BOND
     1     1     2   ar
     2     1     6    1
     3     1    17   ar
     4     2     3    1
     5     2    14   ar
     6     3     4    1
     7     3     8    1
     8     4     5    1
     9     5     6   am
    10     5     7    2
    11     8     9   ar
    12     8    13   ar
    13     9    10   ar
    14    10    11   ar
    15    11    12   ar
    16    12    13   ar
    17    14    15   ar
    18    15    16   ar
    19    15    20    1
    20    16    17   ar
    21    16    18    1
    22    18    19    1
    23    19    20    1
