@<TRIPOS>MOLECULE
27084_ChemDiv_1809-0366
 25 27 0 0 0
SMALL
GASTEIGER
Energy = 0

@<TRIPOS>ATOM
      1 C          -1.9210    0.5250    0.0000 C.2     1  LIG1        0.0778
      2 C          -1.7630   -0.4750    0.0000 C.2     1  LIG1        0.1987
      3 C          -2.6330   -0.9250    0.0000 C.ar    1  LIG1        0.0421
      4 C          -3.3630   -0.2290    0.0000 C.ar    1  LIG1        0.0421
      5 C          -2.9170    0.6750    0.0000 C.2     1  LIG1        0.1987
      6 O          -3.3670    1.5500    0.0000 O.2     1  LIG1       -0.2865
      7 C          -4.3290   -0.4960    0.0000 C.ar    1  LIG1        0.0033
      8 C          -4.5830   -1.4750    0.0000 C.ar    1  LIG1        0.0001
      9 C          -3.8630   -2.1630    0.0000 C.ar    1  LIG1        0.0001
     10 C          -2.9000   -1.8960    0.0000 C.ar    1  LIG1        0.0033
     11 O          -0.8540   -0.9130    0.0000 O.2     1  LIG1       -0.2865
     12 C          -1.2290    1.2330    0.0000 C.2     1  LIG1        0.0065
     13 C          -0.2540    0.9880    0.0000 C.ar    1  LIG1        0.0034
     14 C           0.4500    1.7000    0.0000 C.ar    1  LIG1        0.0400
     15 C           1.4250    1.4500    0.0000 C.ar    1  LIG1        0.1724
     16 C           1.6920    0.4830    0.0000 C.ar    1  LIG1        0.1728
     17 O           2.6460    0.2330    0.0000 O.3     1  LIG1       -0.4663
     18 C           2.9130   -0.7250    0.0000 C.3     1  LIG1        0.2470
     19 C           3.8750   -0.9790    0.0000 C.2     1  LIG1        0.0940
     20 O           4.5790   -0.2750    0.0000 O.co2   1  LIG1       -0.5454
     21 O           4.1420   -1.9460    0.0000 O.co2   1  LIG1       -0.5454
     22 C           0.9830   -0.2130    0.0000 C.ar    1  LIG1        0.0401
     23 C           0.0130    0.0210    0.0000 C.ar    1  LIG1        0.0033
     24 O           2.1170    2.1670    0.0000 O.3     1  LIG1       -0.4684
     25 C           3.0920    1.9170    0.0000 C.3     1  LIG1        0.2526
@<TRIPOS>BOND
     1     1     2    1
     2     1     5    1
     3     1    12    2
     4     2     3    1
     5     2    11    2
     6     3     4   ar
     7     3    10   ar
     8     4     5    1
     9     4     7   ar
    10     5     6    2
    11     7     8   ar
    12     8     9   ar
    13     9    10   ar
    14    12    13    1
    15    13    14   ar
    16    13    23   ar
    17    14    15   ar
    18    15    16   ar
    19    15    24    1
    20    16    17    1
    21    16    22   ar
    22    17    18    1
    23    18    19    1
    24    19    20   ar
    25    19    21   ar
    26    22    23   ar
    27    24    25    1
