@<TRIPOS>MOLECULE
27082_ChemDiv_D268-0414
 30 33 0 0 0
SMALL
GASTEIGER
Energy = 0

@<TRIPOS>ATOM
      1 C          -2.8330    0.8710    0.0000 C.ar    1  LIG1        0.2441
      2 C          -2.8080   -0.1460    0.0000 C.ar    1  LIG1        0.2441
      3 N          -1.9330   -0.6210    0.0000 N.ar    1  LIG1       -0.2015
      4 C          -1.0710   -0.1080    0.0000 C.ar    1  LIG1        0.1872
      5 C          -1.0960    0.9080    0.0000 C.ar    1  LIG1        0.1872
      6 N          -1.9750    1.3920    0.0000 N.ar    1  LIG1       -0.2015
      7 N          -0.2460    1.4330    0.0000 N.pl3   1  LIG1       -0.1921
      8 C           0.7540    1.5630    0.0000 C.ar    1  LIG1        0.0679
      9 C           1.1170    2.4880    0.0000 C.ar    1  LIG1       -0.0105
     10 C           2.1000    2.6210    0.0000 C.ar    1  LIG1       -0.0245
     11 C           2.7170    1.8380    0.0000 C.ar    1  LIG1       -0.0045
     12 C           2.3420    0.9040    0.0000 C.ar    1  LIG1        0.0010
     13 C           1.3540    0.7710    0.0000 C.ar    1  LIG1        0.0162
     14 C           2.4790    3.5500    0.0000 C.3     1  LIG1        0.0307
     15 C           0.4920    3.2750    0.0000 C.3     1  LIG1        0.0321
     16 N          -0.1960   -0.5710    0.0000 N.pl3   1  LIG1       -0.1917
     17 C           0.7920   -0.6540    0.0000 C.ar    1  LIG1        0.0722
     18 C           1.3540    0.1580    0.0000 C.ar    1  LIG1        0.0168
     19 C           2.3540    0.0790    0.0000 C.ar    1  LIG1        0.0078
     20 C           2.7790   -0.8290    0.0000 C.ar    1  LIG1        0.0757
     21 C           3.7790   -0.9210    0.0000 C.2     1  LIG1        0.3412
     22 O           4.3540   -0.0920    0.0000 O.2     1  LIG1       -0.2449
     23 O           4.2040   -1.8170    0.0000 O.3     1  LIG1       -0.4454
     24 C           3.6420   -2.6330    0.0000 C.3     1  LIG1        0.2089
     25 C           4.0670   -3.5460    0.0000 C.3     1  LIG1        0.0513
     26 C           2.2170   -1.6460    0.0000 C.ar    1  LIG1        0.0078
     27 C           1.2170   -1.5710    0.0000 C.ar    1  LIG1        0.0168
     28 N          -3.7380   -0.4670    0.0000 N.ar    1  LIG1       -0.0270
     29 O          -4.3580    0.3210    0.0000 O.2     1  LIG1       -0.2385
     30 N          -3.7960    1.1460    0.0000 N.ar    1  LIG1       -0.0270
@<TRIPOS>BOND
     1     1     2   ar
     2     1     6   ar
     3     1    30   ar
     4     2     3   ar
     5     2    28   ar
     6     3     4   ar
     7     4     5   ar
     8     4    16    1
     9     5     6   ar
    10     5     7    1
    11     7     8    1
    12     8     9   ar
    13     8    13   ar
    14     9    10   ar
    15     9    15    1
    16    10    11   ar
    17    10    14    1
    18    11    12   ar
    19    12    13   ar
    20    16    17    1
    21    17    18   ar
    22    17    27   ar
    23    18    19   ar
    24    19    20   ar
    25    20    21    1
    26    20    26   ar
    27    21    22    2
    28    21    23    1
    29    23    24    1
    30    24    25    1
    31    26    27   ar
    32    28    29   ar
    33    29    30   ar
