@<TRIPOS>MOLECULE
27080_ChemDiv_D268-0037
 27 30 0 0 0
SMALL
GASTEIGER
Energy = 0

@<TRIPOS>ATOM
      1 C          -0.6210    1.4460    0.0000 C.ar    1  LIG1        0.2441
      2 C           0.3420    1.4540    0.0000 C.ar    1  LIG1        0.2441
      3 N           0.8210    0.6290    0.0000 N.ar    1  LIG1       -0.2015
      4 C           0.3460   -0.2040    0.0000 C.ar    1  LIG1        0.1872
      5 C          -0.6130   -0.2080    0.0000 C.ar    1  LIG1        0.1872
      6 N          -1.0960    0.6170    0.0000 N.ar    1  LIG1       -0.2015
      7 N          -1.0960   -1.0460    0.0000 N.pl3   1  LIG1       -0.1921
      8 C          -2.0880   -1.0290    0.0000 C.ar    1  LIG1        0.0679
      9 C          -2.5880   -1.8710    0.0000 C.ar    1  LIG1       -0.0066
     10 C          -3.5830   -1.8460    0.0000 C.ar    1  LIG1       -0.0033
     11 C          -4.0630   -0.9830    0.0000 C.ar    1  LIG1       -0.0045
     12 C          -3.5500   -0.1290    0.0000 C.ar    1  LIG1       -0.0206
     13 C          -2.5580   -0.1540    0.0000 C.ar    1  LIG1        0.0120
     14 C          -4.0330    0.7460    0.0000 C.3     1  LIG1        0.0311
     15 C          -2.1080   -2.7330    0.0000 C.3     1  LIG1        0.0324
     16 N           0.9040   -1.0790    0.0000 N.pl3   1  LIG1       -0.1921
     17 C           1.9460   -1.0790    0.0000 C.ar    1  LIG1        0.0679
     18 C           2.4710   -1.9960    0.0000 C.ar    1  LIG1       -0.0105
     19 C           3.5290   -1.9960    0.0000 C.ar    1  LIG1       -0.0245
     20 C           4.0580   -1.0790    0.0000 C.ar    1  LIG1       -0.0045
     21 C           3.5290   -0.1710    0.0000 C.ar    1  LIG1        0.0010
     22 C           2.4710   -0.1710    0.0000 C.ar    1  LIG1        0.0162
     23 C           4.0580   -2.9170    0.0000 C.3     1  LIG1        0.0307
     24 C           1.9460   -2.9040    0.0000 C.3     1  LIG1        0.0321
     25 N           0.6330    2.3670    0.0000 N.ar    1  LIG1       -0.0270
     26 O          -0.1420    2.9210    0.0000 O.2     1  LIG1       -0.2385
     27 N          -0.9250    2.3670    0.0000 N.ar    1  LIG1       -0.0270
@<TRIPOS>BOND
     1     1     2   ar
     2     1     6   ar
     3     1    27   ar
     4     2     3   ar
     5     2    25   ar
     6     3     4   ar
     7     4     5   ar
     8     4    16    1
     9     5     6   ar
    10     5     7    1
    11     7     8    1
    12     8     9   ar
    13     8    13   ar
    14     9    10   ar
    15     9    15    1
    16    10    11   ar
    17    11    12   ar
    18    12    13   ar
    19    12    14    1
    20    16    17    1
    21    17    18   ar
    22    17    22   ar
    23    18    19   ar
    24    18    24    1
    25    19    20   ar
    26    19    23    1
    27    20    21   ar
    28    21    22   ar
    29    25    26   ar
    30    26    27   ar
