@<TRIPOS>MOLECULE
27087_ChemDiv_C276-0703
 20 23 0 0 0
SMALL
GASTEIGER
Energy = 0

@<TRIPOS>ATOM
      1 C           0.3330   -2.0040    0.0000 C.ar    1  LIG1        0.0729
      2 C           0.3330   -1.0080    0.0000 C.ar    1  LIG1        0.0007
      3 C           1.1920   -0.4960    0.0000 C.3     1  LIG1        0.0566
      4 C           2.0580   -1.0080    0.0000 C.3     1  LIG1        0.0960
      5 C           2.0580   -2.0040    0.0000 C.2     1  LIG1        0.2462
      6 N           1.1920   -2.5000    0.0000 N.am    1  LIG1       -0.1794
      7 O           2.9290   -2.5000    0.0000 O.2     1  LIG1       -0.2730
      8 C           1.1920    0.5000    0.0000 C.ar    1  LIG1        0.0013
      9 C           2.0670    0.9960    0.0000 C.ar    1  LIG1        0.0949
     10 N           2.0670    2.0080    0.0000 N.ar    1  LIG1       -0.2426
     11 C           1.1920    2.5040    0.0000 C.ar    1  LIG1        0.0989
     12 C           0.3210    1.9960    0.0000 C.ar    1  LIG1        0.0204
     13 C           0.3330    0.9960    0.0000 C.ar    1  LIG1       -0.0008
     14 C          -0.5250   -0.4960    0.0000 C.ar    1  LIG1        0.0375
     15 C          -1.3960   -1.0080    0.0000 C.ar    1  LIG1        0.1762
     16 C          -1.4080   -1.9960    0.0000 C.ar    1  LIG1        0.1777
     17 C          -0.5250   -2.5000    0.0000 C.ar    1  LIG1        0.0564
     18 O          -2.3580   -2.2960    0.0000 O.3     1  LIG1       -0.4346
     19 C          -2.9330   -1.4790    0.0000 C.3     1  LIG1        0.4294
     20 O          -2.3380   -0.6830    0.0000 O.3     1  LIG1       -0.4346
@<TRIPOS>BOND
     1     1     2   ar
     2     1     6    1
     3     1    17   ar
     4     2     3    1
     5     2    14   ar
     6     3     4    1
     7     3     8    1
     8     4     5    1
     9     5     6   am
    10     5     7    2
    11     8     9   ar
    12     8    13   ar
    13     9    10   ar
    14    10    11   ar
    15    11    12   ar
    16    12    13   ar
    17    14    15   ar
    18    15    16   ar
    19    15    20    1
    20    16    17   ar
    21    16    18    1
    22    18    19    1
    23    19    20    1
