@<TRIPOS>MOLECULE
27086_ChemDiv_4057-0010
 26 28 0 0 0
SMALL
GASTEIGER
Energy = 0

@<TRIPOS>ATOM
      1 C           0.2420   -1.7130    0.0000 C.2     1  LIG1        0.0778
      2 C          -0.3210   -0.8710    0.0000 C.2     1  LIG1        0.1987
      3 C          -1.2830   -1.2130    0.0000 C.ar    1  LIG1        0.0422
      4 C          -1.2830   -2.2130    0.0000 C.ar    1  LIG1        0.0421
      5 C          -0.3210   -2.5130    0.0000 C.2     1  LIG1        0.1987
      6 O          -0.0210   -3.4790    0.0000 O.2     1  LIG1       -0.2865
      7 C          -2.1580   -2.7130    0.0000 C.ar    1  LIG1        0.0033
      8 C          -3.0250   -2.2130    0.0000 C.ar    1  LIG1        0.0012
      9 C          -3.0250   -1.2130    0.0000 C.ar    1  LIG1        0.0141
     10 C          -2.1580   -0.7130    0.0000 C.ar    1  LIG1        0.0044
     11 C          -3.8920   -0.7130    0.0000 C.2     1  LIG1        0.0729
     12 O          -4.7500   -1.2130    0.0000 O.co2   1  LIG1       -0.5446
     13 O          -3.8920    0.2790    0.0000 O.co2   1  LIG1       -0.5446
     14 O          -0.0210    0.0500    0.0000 O.2     1  LIG1       -0.2865
     15 C           1.2460   -1.7130    0.0000 C.2     1  LIG1        0.0064
     16 C           1.7460   -0.8460    0.0000 C.ar    1  LIG1        0.0003
     17 C           1.2460    0.0170    0.0000 C.ar    1  LIG1        0.0013
     18 C           1.7460    0.8750    0.0000 C.ar    1  LIG1        0.0145
     19 C           2.7460    0.8750    0.0000 C.ar    1  LIG1        0.0478
     20 N           3.2460    1.7500    0.0000 N.pl3   1  LIG1       -0.3075
     21 C           2.7460    2.6170    0.0000 C.3     1  LIG1        0.0908
     22 C           3.2460    3.4830    0.0000 C.3     1  LIG1        0.0232
     23 C           4.2460    1.7500    0.0000 C.3     1  LIG1        0.0908
     24 C           4.7460    2.6170    0.0000 C.3     1  LIG1        0.0232
     25 C           3.2460    0.0170    0.0000 C.ar    1  LIG1        0.0145
     26 C           2.7460   -0.8460    0.0000 C.ar    1  LIG1        0.0013
@<TRIPOS>BOND
     1     1     2    1
     2     1     5    1
     3     1    15    2
     4     2     3    1
     5     2    14    2
     6     3     4   ar
     7     3    10   ar
     8     4     5    1
     9     4     7   ar
    10     5     6    2
    11     7     8   ar
    12     8     9   ar
    13     9    10   ar
    14     9    11    1
    15    11    12   ar
    16    11    13   ar
    17    15    16    1
    18    16    17   ar
    19    16    26   ar
    20    17    18   ar
    21    18    19   ar
    22    19    20    1
    23    19    25   ar
    24    20    21    1
    25    20    23    1
    26    21    22    1
    27    23    24    1
    28    25    26   ar
