@<TRIPOS>MOLECULE
27085_ChemDiv_C276-0517
 26 30 0 0 0
SMALL
GASTEIGER
Energy = 0

@<TRIPOS>ATOM
      1 C           0.0000   -0.7880    0.0000 C.ar    1  LIG1       -0.0021
      2 C           0.0000   -1.7830    0.0000 C.ar    1  LIG1        0.0697
      3 N           0.8630   -2.2830    0.0000 N.am    1  LIG1       -0.1795
      4 C           1.7210   -1.7830    0.0000 C.2     1  LIG1        0.2462
      5 C           1.7210   -0.7880    0.0000 C.3     1  LIG1        0.0959
      6 C           0.8630   -0.2750    0.0000 C.3     1  LIG1        0.0556
      7 C           0.8630    0.7250    0.0000 C.ar    1  LIG1       -0.0085
      8 C           1.7210    1.2250    0.0000 C.ar    1  LIG1        0.0341
      9 C           1.7210    2.2250    0.0000 C.ar    1  LIG1        0.0466
     10 C           0.8630    2.7170    0.0000 C.ar    1  LIG1        0.1769
     11 C           0.0000    2.2170    0.0000 C.ar    1  LIG1        0.1761
     12 C           0.0000    1.2210    0.0000 C.ar    1  LIG1        0.0367
     13 O          -0.7460    2.8920    0.0000 O.3     1  LIG1       -0.4346
     14 C          -0.3420    3.8000    0.0000 C.3     1  LIG1        0.4294
     15 O           0.6580    3.7000    0.0000 O.3     1  LIG1       -0.4346
     16 BR          2.5880    0.7250    0.0000 Br      1  LIG1       -0.0492
     17 O           2.6000   -2.2830    0.0000 O.2     1  LIG1       -0.2730
     18 C          -0.8630   -2.2790    0.0000 C.ar    1  LIG1        0.0155
     19 C          -1.7380   -1.8040    0.0000 C.ar    1  LIG1        0.0075
     20 C          -1.7250   -0.7880    0.0000 C.ar    1  LIG1        0.0343
     21 C          -0.8630   -0.2750    0.0000 C.ar    1  LIG1        0.0040
     22 BR         -2.6040   -0.2750    0.0000 Br      1  LIG1       -0.0490
     23 C          -2.5920   -2.3250    0.0000 C.ar    1  LIG1        0.0005
     24 C          -2.5630   -3.3210    0.0000 C.ar    1  LIG1        0.0000
     25 C          -1.6790   -3.7960    0.0000 C.ar    1  LIG1        0.0000
     26 C          -0.8330   -3.2710    0.0000 C.ar    1  LIG1        0.0013
@<TRIPOS>BOND
     1     1     2   ar
     2     1     6    1
     3     1    21   ar
     4     2     3    1
     5     2    18   ar
     6     3     4   am
     7     4     5    1
     8     4    17    2
     9     5     6    1
    10     6     7    1
    11     7     8   ar
    12     7    12   ar
    13     8     9   ar
    14     8    16    1
    15     9    10   ar
    16    10    11   ar
    17    10    15    1
    18    11    12   ar
    19    11    13    1
    20    13    14    1
    21    14    15    1
    22    18    19   ar
    23    18    26   ar
    24    19    20   ar
    25    19    23   ar
    26    20    21   ar
    27    20    22    1
    28    23    24   ar
    29    24    25   ar
    30    25    26   ar
