@<TRIPOS>MOLECULE
27089_ChemDiv_8017-7602
 22 23 0 0 0
SMALL
GASTEIGER
Energy = 0

@<TRIPOS>ATOM
      1 C           0.8750   -1.7380    0.0000 C.ar    1  LIG1        0.1028
      2 C           0.0000   -1.2380    0.0000 C.ar    1  LIG1        0.0097
      3 C           0.0000   -0.2420    0.0000 C.ar    1  LIG1        0.0037
      4 C          -0.8670    0.2420    0.0000 C.ar    1  LIG1        0.0401
      5 C          -0.8790    1.2540    0.0000 C.ar    1  LIG1        0.1724
      6 C          -0.0080    1.7540    0.0000 C.ar    1  LIG1        0.1724
      7 C           0.8630    1.2540    0.0000 C.ar    1  LIG1        0.0400
      8 C           0.8630    0.2540    0.0000 C.ar    1  LIG1        0.0033
      9 O          -0.0080    2.7540    0.0000 O.3     1  LIG1       -0.4684
     10 C          -0.8670    3.2540    0.0000 C.3     1  LIG1        0.2526
     11 O          -1.7420    1.7460    0.0000 O.3     1  LIG1       -0.4684
     12 C          -2.6040    1.2460    0.0000 C.3     1  LIG1        0.2526
     13 C          -0.8580   -1.7500    0.0000 C.ar    1  LIG1       -0.0075
     14 C          -0.8580   -2.7380    0.0000 C.ar    1  LIG1        0.0566
     15 N           0.0000   -3.2500    0.0000 N.ar    1  LIG1       -0.2316
     16 C           0.8750   -2.7500    0.0000 C.ar    1  LIG1        0.1790
     17 N           1.7420   -3.2500    0.0000 N.pl3   1  LIG1       -0.1065
     18 C          -1.7210   -3.2380    0.0000 C.3     1  LIG1        0.0455
     19 C          -2.5920   -2.7420    0.0000 C.3     1  LIG1        0.0067
     20 C          -1.7290   -1.2420    0.0000 C.3     1  LIG1        0.0323
     21 C           1.7380   -1.2380    0.0000 C.1     1  LIG1        0.1033
     22 N           2.6000   -0.7420    0.0000 N.1     1  LIG1       -0.1907
@<TRIPOS>BOND
     1     1     2   ar
     2     1    16   ar
     3     1    21    1
     4     2     3    1
     5     2    13   ar
     6     3     4   ar
     7     3     8   ar
     8     4     5   ar
     9     5     6   ar
    10     5    11    1
    11     6     7   ar
    12     6     9    1
    13     7     8   ar
    14     9    10    1
    15    11    12    1
    16    13    14   ar
    17    13    20    1
    18    14    15   ar
    19    14    18    1
    20    15    16   ar
    21    16    17    1
    22    18    19    1
    23    21    22    3
