@<TRIPOS>MOLECULE
27090_ChemDiv_3814-0453
 36 38 0 0 0
SMALL
GASTEIGER
Energy = 0

@<TRIPOS>ATOM
      1 C           1.9460   -0.8920    0.0000 C.2     1  LIG1        0.2690
      2 N           2.4750   -0.0080    0.0000 N.am    1  LIG1       -0.1754
      3 C           3.4880   -0.0170    0.0000 C.ar    1  LIG1        0.0737
      4 C           3.9750    0.8380    0.0000 C.ar    1  LIG1        0.0168
      5 C           4.9790    0.8130    0.0000 C.ar    1  LIG1        0.0078
      6 C           5.4710   -0.0170    0.0000 C.ar    1  LIG1        0.0757
      7 C           6.5210   -0.0170    0.0000 C.2     1  LIG1        0.3412
      8 O           7.0080   -0.9000    0.0000 O.2     1  LIG1       -0.2449
      9 O           7.0080    0.8130    0.0000 O.3     1  LIG1       -0.4454
     10 C           8.0120    0.8130    0.0000 C.3     1  LIG1        0.2088
     11 C           8.5420    1.6540    0.0000 C.3     1  LIG1        0.0475
     12 C           9.5210    1.6460    0.0000 C.3     1  LIG1        0.0040
     13 C           4.9790   -0.8920    0.0000 C.ar    1  LIG1        0.0078
     14 C           3.9540   -0.8920    0.0000 C.ar    1  LIG1        0.0168
     15 C           0.9420   -0.8920    0.0000 C.ar    1  LIG1        0.0554
     16 C           0.4540   -0.0170    0.0000 C.ar    1  LIG1        0.0047
     17 C          -0.4830   -0.0170    0.0000 C.ar    1  LIG1        0.0047
     18 C          -1.0130   -0.8920    0.0000 C.ar    1  LIG1        0.0554
     19 C          -2.0250   -0.8500    0.0000 C.2     1  LIG1        0.2690
     20 N          -2.5040   -0.0080    0.0000 N.am    1  LIG1       -0.1754
     21 C          -3.5580   -0.0080    0.0000 C.ar    1  LIG1        0.0737
     22 C          -4.0460    0.8630    0.0000 C.ar    1  LIG1        0.0168
     23 C          -5.0500    0.8380    0.0000 C.ar    1  LIG1        0.0078
     24 C          -5.5380   -0.0080    0.0000 C.ar    1  LIG1        0.0757
     25 C          -6.5630    0.0290    0.0000 C.2     1  LIG1        0.3412
     26 O          -7.1000   -0.8250    0.0000 O.2     1  LIG1       -0.2449
     27 O          -7.0330    0.8710    0.0000 O.3     1  LIG1       -0.4454
     28 C          -8.0790    0.8710    0.0000 C.3     1  LIG1        0.2088
     29 C          -8.5210    1.7500    0.0000 C.3     1  LIG1        0.0475
     30 C          -9.5210    1.7750    0.0000 C.3     1  LIG1        0.0040
     31 C          -5.0500   -0.8920    0.0000 C.ar    1  LIG1        0.0078
     32 C          -4.0460   -0.8500    0.0000 C.ar    1  LIG1        0.0168
     33 O          -2.5540   -1.7040    0.0000 O.2     1  LIG1       -0.2680
     34 C          -0.5250   -1.7710    0.0000 C.ar    1  LIG1        0.0047
     35 C           0.4540   -1.7290    0.0000 C.ar    1  LIG1        0.0047
     36 O           2.4830   -1.7710    0.0000 O.2     1  LIG1       -0.2680
@<TRIPOS>BOND
     1     1     2   am
     2     1    15    1
     3     1    36    2
     4     2     3    1
     5     3     4   ar
     6     3    14   ar
     7     4     5   ar
     8     5     6   ar
     9     6     7    1
    10     6    13   ar
    11     7     8    2
    12     7     9    1
    13     9    10    1
    14    10    11    1
    15    11    12    1
    16    13    14   ar
    17    15    16   ar
    18    15    35   ar
    19    16    17   ar
    20    17    18   ar
    21    18    19    1
    22    18    34   ar
    23    19    20   am
    24    19    33    2
    25    20    21    1
    26    21    22   ar
    27    21    32   ar
    28    22    23   ar
    29    23    24   ar
    30    24    25    1
    31    24    31   ar
    32    25    26    2
    33    25    27    1
    34    27    28    1
    35    28    29    1
    36    29    30    1
    37    31    32   ar
    38    34    35   ar
