@<TRIPOS>MOLECULE
27091_ChemDiv_1748-0253
 19 19 0 0 0
SMALL
GASTEIGER
Energy = 0

@<TRIPOS>ATOM
      1 C1         -0.8500    0.2540    0.0000 C.2     1  <1>         0.2667
      2 C2         -1.7170   -0.2670    0.0000 C.ar    1  <1>         0.0774
      3 C3         -2.5830    0.2420    0.0000 C.ar    1  <1>         0.0498
      4 C4         -3.4460   -0.2670    0.0000 C.ar    1  <1>         0.2149
      5 C5         -3.4460   -1.2540    0.0000 C.ar    1  <1>         0.1408
      6 N1         -2.5830   -1.7580    0.0000 N.ar    1  <1>        -0.2388
      7 C6         -1.7170   -1.2540    0.0000 C.ar    1  <1>         0.1036
      8 O1         -4.3290    0.2250    0.0000 O.3     1  <1>        -0.2849
      9 N2          0.0130   -0.2460    0.0000 N.am    1  <1>        -0.1977
     10 C7          0.8790    0.2710    0.0000 C.3     1  <1>         0.1320
     11 C8          0.8790    1.2630    0.0000 C.2     1  <1>         0.0702
     12 O2          0.0130    1.7630    0.0000 O.co2   1  <1>        -0.5474
     13 O3          1.7460    1.7630    0.0000 O.co2   1  <1>        -0.5474
     14 C9          1.7290   -0.2330    0.0000 C.3     1  <1>         0.0333
     15 C10         2.5920    0.2710    0.0000 C.3     1  <1>         0.0439
     16 C11         3.4580   -0.2330    0.0000 C.2     1  <1>         0.0504
     17 O4          4.3250    0.2880    0.0000 O.co2   1  <1>        -0.5492
     18 O5          3.4580   -1.2250    0.0000 O.co2   1  <1>        -0.5492
     19 O6         -0.8670    1.2630    0.0000 O.2     1  <1>        -0.2683
@<TRIPOS>BOND
     1     1     2    1
     2     1     9   am
     3     1    19    2
     4     2     3   ar
     5     2     7   ar
     6     3     4   ar
     7     4     5   ar
     8     4     8    1
     9     5     6   ar
    10     6     7   ar
    11     9    10    1
    12    10    11    1
    13    10    14    1
    14    11    12   ar
    15    11    13   ar
    16    14    15    1
    17    15    16    1
    18    16    17   ar
    19    16    18   ar
