@<TRIPOS>MOLECULE
27099_ChemDiv_2616-1329
 25 26 0 0 0
SMALL
GASTEIGER
Energy = 0

@<TRIPOS>ATOM
      1 C           0.0130    1.4830    0.0000 C.2     1  LIG1        0.2492
      2 N           0.8380    1.0250    0.0000 N.am    1  LIG1       -0.2726
      3 C           1.7500    1.4830    0.0000 C.3     1  LIG1        0.1153
      4 C           2.5710    1.0250    0.0000 C.3     1  LIG1        0.1182
      5 N           2.5710    0.0130    0.0000 N.am    1  LIG1       -0.2425
      6 C           3.4420   -0.4750    0.0000 C.2     1  LIG1        0.4050
      7 O           4.3080    0.0130    0.0000 O.2     1  LIG1       -0.2262
      8 O           3.4420   -1.4790    0.0000 O.3     1  LIG1       -0.4345
      9 C           4.3080   -1.9920    0.0000 C.3     1  LIG1        0.2102
     10 C           4.3540   -2.9920    0.0000 C.3     1  LIG1        0.0513
     11 C           1.7500   -0.5210    0.0000 C.3     1  LIG1        0.1182
     12 C           0.8790    0.0130    0.0000 C.3     1  LIG1        0.1153
     13 C          -0.8580    1.0250    0.0000 C.ar    1  LIG1        0.0568
     14 C          -1.7710    1.4830    0.0000 C.ar    1  LIG1        0.0446
     15 C          -2.5920    1.0250    0.0000 C.ar    1  LIG1        0.1723
     16 C          -2.5920    0.0130    0.0000 C.ar    1  LIG1        0.1722
     17 C          -1.7710   -0.5210    0.0000 C.ar    1  LIG1        0.0402
     18 C          -0.8580    0.0130    0.0000 C.ar    1  LIG1        0.0078
     19 O          -3.4630   -0.5210    0.0000 O.3     1  LIG1       -0.4724
     20 C          -3.4630   -1.5250    0.0000 C.3     1  LIG1        0.2057
     21 C          -4.3580   -1.9920    0.0000 C.3     1  LIG1        0.0512
     22 O          -3.5040    1.4750    0.0000 O.3     1  LIG1       -0.4724
     23 C          -3.5040    2.4830    0.0000 C.3     1  LIG1        0.2057
     24 C          -2.6540    2.9960    0.0000 C.3     1  LIG1        0.0512
     25 O           0.0130    2.4830    0.0000 O.2     1  LIG1       -0.2699
@<TRIPOS>BOND
     1     1     2   am
     2     1    13    1
     3     1    25    2
     4     2     3    1
     5     2    12    1
     6     3     4    1
     7     4     5    1
     8     5     6   am
     9     5    11    1
    10     6     7    2
    11     6     8    1
    12     8     9    1
    13     9    10    1
    14    11    12    1
    15    13    14   ar
    16    13    18   ar
    17    14    15   ar
    18    15    16   ar
    19    15    22    1
    20    16    17   ar
    21    16    19    1
    22    17    18   ar
    23    19    20    1
    24    20    21    1
    25    22    23    1
    26    23    24    1
