@<TRIPOS>MOLECULE
27096_ChemDiv_4130-1499
 32 34 0 0 0
SMALL
GASTEIGER
Energy = 0

@<TRIPOS>ATOM
      1 C          -1.9920    0.0040    0.0000 C.2     1  LIG1        0.2691
      2 N          -2.5040    0.8710    0.0000 N.am    1  LIG1       -0.1723
      3 C          -3.5040    0.8540    0.0000 C.ar    1  LIG1        0.1105
      4 C          -3.9920   -0.0130    0.0000 C.ar    1  LIG1        0.0566
      5 C          -4.9920   -0.0130    0.0000 C.ar    1  LIG1        0.1402
      6 C          -5.5040    0.8540    0.0000 C.ar    1  LIG1        0.0401
      7 C          -5.0040    1.7210    0.0000 C.ar    1  LIG1        0.0414
      8 C          -4.0040    1.7210    0.0000 C.ar    1  LIG1        0.1541
      9 O          -3.5040    2.5920    0.0000 O.3     1  LIG1       -0.4701
     10 C          -2.5040    2.5920    0.0000 C.3     1  LIG1        0.2525
     11 O          -5.5040   -0.8790    0.0000 O.3     1  LIG1       -0.4714
     12 C          -6.5000   -0.8790    0.0000 C.3     1  LIG1        0.2525
     13 C          -1.0040    0.0040    0.0000 C.ar    1  LIG1        0.0554
     14 C          -0.5040    0.8710    0.0000 C.ar    1  LIG1        0.0047
     15 C           0.5000    0.8710    0.0000 C.ar    1  LIG1        0.0047
     16 C           1.0000    0.0040    0.0000 C.ar    1  LIG1        0.0554
     17 C           2.0000    0.0040    0.0000 C.2     1  LIG1        0.2691
     18 N           2.5000   -0.8500    0.0000 N.am    1  LIG1       -0.1723
     19 C           3.5000   -0.8500    0.0000 C.ar    1  LIG1        0.1105
     20 C           4.0000    0.0170    0.0000 C.ar    1  LIG1        0.0566
     21 C           5.0000    0.0170    0.0000 C.ar    1  LIG1        0.1402
     22 C           5.5000   -0.8630    0.0000 C.ar    1  LIG1        0.0401
     23 C           5.0000   -1.7170    0.0000 C.ar    1  LIG1        0.0414
     24 C           4.0000   -1.7170    0.0000 C.ar    1  LIG1        0.1541
     25 O           3.5000   -2.5880    0.0000 O.3     1  LIG1       -0.4701
     26 C           2.5000   -2.5880    0.0000 C.3     1  LIG1        0.2525
     27 O           5.5000    0.8710    0.0000 O.3     1  LIG1       -0.4714
     28 C           6.5000    0.8710    0.0000 C.3     1  LIG1        0.2525
     29 O           2.5000    0.8710    0.0000 O.2     1  LIG1       -0.2680
     30 C           0.5000   -0.8500    0.0000 C.ar    1  LIG1        0.0047
     31 C          -0.5040   -0.8500    0.0000 C.ar    1  LIG1        0.0047
     32 O          -2.5040   -0.8630    0.0000 O.2     1  LIG1       -0.2680
@<TRIPOS>BOND
     1     1     2   am
     2     1    13    1
     3     1    32    2
     4     2     3    1
     5     3     4   ar
     6     3     8   ar
     7     4     5   ar
     8     5     6   ar
     9     5    11    1
    10     6     7   ar
    11     7     8   ar
    12     8     9    1
    13     9    10    1
    14    11    12    1
    15    13    14   ar
    16    13    31   ar
    17    14    15   ar
    18    15    16   ar
    19    16    17    1
    20    16    30   ar
    21    17    18   am
    22    17    29    2
    23    18    19    1
    24    19    20   ar
    25    19    24   ar
    26    20    21   ar
    27    21    22   ar
    28    21    27    1
    29    22    23   ar
    30    23    24   ar
    31    24    25    1
    32    25    26    1
    33    27    28    1
    34    30    31   ar
