@<TRIPOS>MOLECULE
27094_ChemDiv_4130-1498
 30 32 0 0 0
SMALL
GASTEIGER
Energy = 0

@<TRIPOS>ATOM
      1 C          -2.0130    0.0130    0.0000 C.2     1  LIG1        0.2691
      2 N          -2.5040    0.8630    0.0000 N.am    1  LIG1       -0.1723
      3 C          -3.5040    0.8630    0.0000 C.ar    1  LIG1        0.1083
      4 C          -4.0170   -0.0080    0.0000 C.ar    1  LIG1        0.0311
      5 C          -5.0170   -0.0080    0.0000 C.ar    1  LIG1        0.0592
      6 C          -5.5040    0.8630    0.0000 C.ar    1  LIG1        0.0146
      7 C          -5.0170    1.7210    0.0000 C.ar    1  LIG1        0.0391
      8 C          -4.0170    1.7290    0.0000 C.ar    1  LIG1        0.1540
      9 O          -3.5170    2.5960    0.0000 O.3     1  LIG1       -0.4701
     10 C          -2.5170    2.5960    0.0000 C.3     1  LIG1        0.2525
     11 CL         -5.5040   -0.8750    0.0000 Cl      1  LIG1       -0.0822
     12 C          -1.0130    0.0130    0.0000 C.ar    1  LIG1        0.0554
     13 C          -0.5040    0.8790    0.0000 C.ar    1  LIG1        0.0047
     14 C           0.5000    0.8790    0.0000 C.ar    1  LIG1        0.0047
     15 C           0.9880    0.0130    0.0000 C.ar    1  LIG1        0.0554
     16 C           1.9880    0.0130    0.0000 C.2     1  LIG1        0.2691
     17 N           2.4880   -0.8580    0.0000 N.am    1  LIG1       -0.1723
     18 C           3.4920   -0.8580    0.0000 C.ar    1  LIG1        0.1083
     19 C           3.9920    0.0130    0.0000 C.ar    1  LIG1        0.0311
     20 C           4.9920    0.0130    0.0000 C.ar    1  LIG1        0.0592
     21 C           5.4920   -0.8580    0.0000 C.ar    1  LIG1        0.0146
     22 C           4.9920   -1.7170    0.0000 C.ar    1  LIG1        0.0391
     23 C           3.9920   -1.7130    0.0000 C.ar    1  LIG1        0.1540
     24 O           3.4920   -2.5920    0.0000 O.3     1  LIG1       -0.4701
     25 C           2.4880   -2.5920    0.0000 C.3     1  LIG1        0.2525
     26 CL          5.5000    0.8790    0.0000 Cl      1  LIG1       -0.0822
     27 O           2.4880    0.8790    0.0000 O.2     1  LIG1       -0.2680
     28 C           0.5000   -0.8580    0.0000 C.ar    1  LIG1        0.0047
     29 C          -0.5040   -0.8580    0.0000 C.ar    1  LIG1        0.0047
     30 O          -2.5040   -0.8580    0.0000 O.2     1  LIG1       -0.2680
@<TRIPOS>BOND
     1     1     2   am
     2     1    12    1
     3     1    30    2
     4     2     3    1
     5     3     4   ar
     6     3     8   ar
     7     4     5   ar
     8     5     6   ar
     9     5    11    1
    10     6     7   ar
    11     7     8   ar
    12     8     9    1
    13     9    10    1
    14    12    13   ar
    15    12    29   ar
    16    13    14   ar
    17    14    15   ar
    18    15    16    1
    19    15    28   ar
    20    16    17   am
    21    16    27    2
    22    17    18    1
    23    18    19   ar
    24    18    23   ar
    25    19    20   ar
    26    20    21   ar
    27    20    26    1
    28    21    22   ar
    29    22    23   ar
    30    23    24    1
    31    24    25    1
    32    28    29   ar
