@<TRIPOS>MOLECULE
27098_ChemDiv_4130-1501
 34 36 0 0 0
SMALL
GASTEIGER
Energy = 0

@<TRIPOS>ATOM
      1 C          -2.0000    0.0000    0.0000 C.2     1  LIG1        0.2691
      2 N          -2.5000    0.8670    0.0000 N.am    1  LIG1       -0.1723
      3 C          -3.5040    0.8670    0.0000 C.ar    1  LIG1        0.1106
      4 C          -4.0040    0.0000    0.0000 C.ar    1  LIG1        0.0574
      5 C          -5.0040    0.0000    0.0000 C.ar    1  LIG1        0.1507
      6 C          -5.5040    0.8670    0.0000 C.ar    1  LIG1        0.0946
      7 C          -5.0040    1.7170    0.0000 C.ar    1  LIG1        0.0527
      8 C          -4.0040    1.7170    0.0000 C.ar    1  LIG1        0.1549
      9 O          -3.5080    2.5830    0.0000 O.3     1  LIG1       -0.4701
     10 C          -2.5080    2.6040    0.0000 C.3     1  LIG1        0.2525
     11 CL         -6.5000    0.8670    0.0000 Cl      1  LIG1       -0.0790
     12 O          -5.5130   -0.8670    0.0000 O.3     1  LIG1       -0.4705
     13 C          -6.5000   -0.8670    0.0000 C.3     1  LIG1        0.2525
     14 C          -1.0000    0.0040    0.0000 C.ar    1  LIG1        0.0554
     15 C          -0.5040   -0.8630    0.0000 C.ar    1  LIG1        0.0047
     16 C           0.4960   -0.8630    0.0000 C.ar    1  LIG1        0.0047
     17 C           0.9830    0.0040    0.0000 C.ar    1  LIG1        0.0554
     18 C           1.9880    0.0040    0.0000 C.2     1  LIG1        0.2691
     19 N           2.4790   -0.8630    0.0000 N.am    1  LIG1       -0.1723
     20 C           3.4830   -0.8630    0.0000 C.ar    1  LIG1        0.1106
     21 C           3.9880    0.0040    0.0000 C.ar    1  LIG1        0.0574
     22 C           4.9880    0.0040    0.0000 C.ar    1  LIG1        0.1507
     23 C           5.4830   -0.8630    0.0000 C.ar    1  LIG1        0.0946
     24 C           4.9880   -1.7290    0.0000 C.ar    1  LIG1        0.0527
     25 C           3.9880   -1.7290    0.0000 C.ar    1  LIG1        0.1549
     26 O           3.4830   -2.6000    0.0000 O.3     1  LIG1       -0.4701
     27 C           2.4790   -2.6000    0.0000 C.3     1  LIG1        0.2525
     28 CL          6.4880   -0.8630    0.0000 Cl      1  LIG1       -0.0790
     29 O           5.5000    0.8710    0.0000 O.3     1  LIG1       -0.4705
     30 C           6.5000    0.8710    0.0000 C.3     1  LIG1        0.2525
     31 O           2.4790    0.8710    0.0000 O.2     1  LIG1       -0.2680
     32 C           0.4960    0.8710    0.0000 C.ar    1  LIG1        0.0047
     33 C          -0.5040    0.8710    0.0000 C.ar    1  LIG1        0.0047
     34 O          -2.5000   -0.8670    0.0000 O.2     1  LIG1       -0.2680
@<TRIPOS>BOND
     1     1     2   am
     2     1    14    1
     3     1    34    2
     4     2     3    1
     5     3     4   ar
     6     3     8   ar
     7     4     5   ar
     8     5     6   ar
     9     5    12    1
    10     6     7   ar
    11     6    11    1
    12     7     8   ar
    13     8     9    1
    14     9    10    1
    15    12    13    1
    16    14    15   ar
    17    14    33   ar
    18    15    16   ar
    19    16    17   ar
    20    17    18    1
    21    17    32   ar
    22    18    19   am
    23    18    31    2
    24    19    20    1
    25    20    21   ar
    26    20    25   ar
    27    21    22   ar
    28    22    23   ar
    29    22    29    1
    30    23    24   ar
    31    23    28    1
    32    24    25   ar
    33    25    26    1
    34    26    27    1
    35    29    30    1
    36    32    33   ar
