@<TRIPOS>MOLECULE
27092_ChemDiv_4130-0434
 28 30 0 0 0
SMALL
GASTEIGER
Energy = 0

@<TRIPOS>ATOM
      1 C           2.7790    0.5790    0.0000 C.2     1  LIG1        0.2527
      2 N           3.2880   -0.2920    0.0000 N.am    1  LIG1       -0.2552
      3 C           2.7790   -1.1460    0.0000 C.ar    1  LIG1        0.0541
      4 C           3.2880   -2.0330    0.0000 C.ar    1  LIG1        0.0149
      5 C           2.7790   -2.9130    0.0000 C.ar    1  LIG1        0.0013
      6 C           1.7630   -2.9130    0.0000 C.ar    1  LIG1        0.0001
      7 C           1.2630   -2.0330    0.0000 C.ar    1  LIG1        0.0013
      8 C           1.7630   -1.1460    0.0000 C.ar    1  LIG1        0.0149
      9 C           4.3040   -0.2920    0.0000 C.3     1  LIG1        0.0986
     10 C           4.8080   -1.1460    0.0000 C.3     1  LIG1        0.0237
     11 C           1.7630    0.5790    0.0000 C.ar    1  LIG1        0.0539
     12 C           1.2630   -0.2750    0.0000 C.ar    1  LIG1        0.0047
     13 C           0.2460   -0.2750    0.0000 C.ar    1  LIG1        0.0047
     14 C          -0.2710    0.5790    0.0000 C.ar    1  LIG1        0.0539
     15 C          -1.2710    0.5790    0.0000 C.2     1  LIG1        0.2527
     16 N          -1.7880    1.4540    0.0000 N.am    1  LIG1       -0.2552
     17 C          -2.7920    1.4540    0.0000 C.ar    1  LIG1        0.0541
     18 C          -3.2920    0.5710    0.0000 C.ar    1  LIG1        0.0149
     19 C          -4.3040    0.5710    0.0000 C.ar    1  LIG1        0.0013
     20 C          -4.8130    1.4540    0.0000 C.ar    1  LIG1        0.0001
     21 C          -4.3040    2.3330    0.0000 C.ar    1  LIG1        0.0013
     22 C          -3.2920    2.3330    0.0000 C.ar    1  LIG1        0.0149
     23 C          -1.3960    2.1880    0.0000 C.3     1  LIG1        0.0986
     24 C          -1.8670    2.9170    0.0000 C.3     1  LIG1        0.0237
     25 O          -1.7880   -0.2920    0.0000 O.2     1  LIG1       -0.2696
     26 C           0.2460    1.4540    0.0000 C.ar    1  LIG1        0.0047
     27 C           1.2630    1.4540    0.0000 C.ar    1  LIG1        0.0047
     28 O           3.2880    1.4540    0.0000 O.2     1  LIG1       -0.2696
@<TRIPOS>BOND
     1     1     2   am
     2     1    11    1
     3     1    28    2
     4     2     3    1
     5     2     9    1
     6     3     4   ar
     7     3     8   ar
     8     4     5   ar
     9     5     6   ar
    10     6     7   ar
    11     7     8   ar
    12     9    10    1
    13    11    12   ar
    14    11    27   ar
    15    12    13   ar
    16    13    14   ar
    17    14    15    1
    18    14    26   ar
    19    15    16   am
    20    15    25    2
    21    16    17    1
    22    16    23    1
    23    17    18   ar
    24    17    22   ar
    25    18    19   ar
    26    19    20   ar
    27    20    21   ar
    28    21    22   ar
    29    23    24    1
    30    26    27   ar
