@<TRIPOS>MOLECULE
27097_ChemDiv_2261-0461
 32 34 0 0 0
SMALL
GASTEIGER
Energy = 0

@<TRIPOS>ATOM
      1 C           1.6880    2.1040    0.0000 C.2     1  LIG1        0.2496
      2 C           2.1960    1.2330    0.0000 C.ar    1  LIG1        0.0598
      3 C           1.7170    0.4290    0.0000 C.ar    1  LIG1        0.0448
      4 C           2.2170   -0.4250    0.0000 C.ar    1  LIG1        0.1754
      5 C           3.1290   -0.4130    0.0000 C.ar    1  LIG1        0.2059
      6 C           3.6290    0.4130    0.0000 C.ar    1  LIG1        0.1754
      7 C           3.1880    1.2420    0.0000 C.ar    1  LIG1        0.0448
      8 O           4.6000    0.4290    0.0000 O.3     1  LIG1       -0.4723
      9 C           5.1000   -0.4080    0.0000 C.3     1  LIG1        0.2057
     10 C           6.0420   -0.3920    0.0000 C.3     1  LIG1        0.0512
     11 O           3.5500   -1.2920    0.0000 O.3     1  LIG1       -0.4695
     12 C           2.9960   -2.0880    0.0000 C.3     1  LIG1        0.2058
     13 C           3.4210   -2.9580    0.0000 C.3     1  LIG1        0.0512
     14 O           1.8210   -1.3080    0.0000 O.3     1  LIG1       -0.4723
     15 C           2.3750   -2.1130    0.0000 C.3     1  LIG1        0.2057
     16 C           1.9750   -2.9960    0.0000 C.3     1  LIG1        0.0512
     17 N           0.6830    2.1040    0.0000 N.am    1  LIG1       -0.2645
     18 C           0.1580    3.0000    0.0000 C.3     1  LIG1        0.1567
     19 C          -0.8710    2.9880    0.0000 C.3     1  LIG1        0.1610
     20 N          -1.3790    2.1040    0.0000 N.4     1  LIG1        0.3834
     21 C          -0.8630    1.1830    0.0000 C.3     1  LIG1        0.1610
     22 C           0.1710    1.2210    0.0000 C.3     1  LIG1        0.1567
     23 C          -2.4750    2.1040    0.0000 C.3     1  LIG1        0.1662
     24 C          -2.9790    1.1830    0.0000 C.2     1  LIG1        0.0359
     25 C          -3.9920    1.1830    0.0000 C.2     1  LIG1        0.0013
     26 C          -4.5040    0.3130    0.0000 C.ar    1  LIG1       -0.0001
     27 C          -3.9920   -0.5880    0.0000 C.ar    1  LIG1       -0.0000
     28 C          -4.5040   -1.4670    0.0000 C.ar    1  LIG1       -0.0000
     29 C          -5.5210   -1.4880    0.0000 C.ar    1  LIG1       -0.0000
     30 C          -6.0420   -0.5880    0.0000 C.ar    1  LIG1       -0.0000
     31 C          -5.5210    0.3130    0.0000 C.ar    1  LIG1       -0.0000
     32 O           2.1960    2.9710    0.0000 O.2     1  LIG1       -0.2699
@<TRIPOS>BOND
     1     1     2    1
     2     1    17   am
     3     1    32    2
     4     2     3   ar
     5     2     7   ar
     6     3     4   ar
     7     4     5   ar
     8     4    14    1
     9     5     6   ar
    10     5    11    1
    11     6     7   ar
    12     6     8    1
    13     8     9    1
    14     9    10    1
    15    11    12    1
    16    12    13    1
    17    14    15    1
    18    15    16    1
    19    17    18    1
    20    17    22    1
    21    18    19    1
    22    19    20    1
    23    20    21    1
    24    20    23    1
    25    21    22    1
    26    23    24    1
    27    24    25    2
    28    25    26    1
    29    26    27   ar
    30    26    31   ar
    31    27    28   ar
    32    28    29   ar
    33    29    30   ar
    34    30    31   ar
