@<TRIPOS>MOLECULE
27093_ChemDiv_1748-0442
 20 21 0 0 0
SMALL
GASTEIGER
Energy = 0

@<TRIPOS>ATOM
      1 C          -1.3670    0.4080    0.0000 C.2     1  LIG1        0.2929
      2 C          -2.2210    0.9210    0.0000 C.3     1  LIG1        0.1663
      3 N          -3.1130    0.5210    0.0000 N.4     1  LIG1        0.3843
      4 C          -3.8210    1.2420    0.0000 C.3     1  LIG1        0.1395
      5 C          -3.3500    2.1170    0.0000 C.3     1  LIG1        0.0692
      6 C          -2.3500    1.9540    0.0000 C.3     1  LIG1        0.0726
      7 C          -3.2750   -0.4710    0.0000 C.3     1  LIG1        0.2026
      8 N          -1.3670   -0.6040    0.0000 N.am    1  LIG1       -0.1958
      9 C          -0.5000   -1.1080    0.0000 C.3     1  LIG1        0.1418
     10 C           0.3670   -0.6170    0.0000 C.ar    1  LIG1        0.0027
     11 C           1.2330   -1.1080    0.0000 C.ar    1  LIG1        0.0375
     12 C           2.1040   -0.6170    0.0000 C.ar    1  LIG1        0.1721
     13 C           2.1080    0.3920    0.0000 C.ar    1  LIG1        0.1724
     14 C           1.2420    0.8830    0.0000 C.ar    1  LIG1        0.0398
     15 C           0.3790    0.3920    0.0000 C.ar    1  LIG1        0.0008
     16 O           2.9750    0.8830    0.0000 O.3     1  LIG1       -0.4684
     17 C           3.8170    0.3920    0.0000 C.3     1  LIG1        0.2526
     18 O           2.9580   -1.1210    0.0000 O.3     1  LIG1       -0.4684
     19 C           2.9500   -2.1130    0.0000 C.3     1  LIG1        0.2526
     20 O          -0.5130    0.9080    0.0000 O.2     1  LIG1       -0.2671
@<TRIPOS>BOND
     1     1     2    1
     2     1     8   am
     3     1    20    2
     4     2     3    1
     5     2     6    1
     6     3     4    1
     7     3     7    1
     8     4     5    1
     9     5     6    1
    10     8     9    1
    11     9    10    1
    12    10    11   ar
    13    10    15   ar
    14    11    12   ar
    15    12    13   ar
    16    12    18    1
    17    13    14   ar
    18    13    16    1
    19    14    15   ar
    20    16    17    1
    21    18    19    1
