@<TRIPOS>MOLECULE
27095_ChemDiv_1748-0445
 27 29 0 0 0
SMALL
GASTEIGER
Energy = 0

@<TRIPOS>ATOM
      1 N          -1.0210    2.2960    0.0000 N.4     1  LIG1        0.3799
      2 C          -0.1290    2.6960    0.0000 C.3     1  LIG1        0.1660
      3 C           0.7130    2.1960    0.0000 C.2     1  LIG1        0.2929
      4 N           0.7130    1.1880    0.0000 N.am    1  LIG1       -0.1958
      5 C           1.5830    0.6790    0.0000 C.3     1  LIG1        0.1418
      6 C           1.5830   -0.3330    0.0000 C.ar    1  LIG1        0.0027
      7 C           2.4670   -0.8500    0.0000 C.ar    1  LIG1        0.0375
      8 C           2.4670   -1.8630    0.0000 C.ar    1  LIG1        0.1721
      9 C           1.5830   -2.3790    0.0000 C.ar    1  LIG1        0.1724
     10 C           0.7080   -1.8630    0.0000 C.ar    1  LIG1        0.0398
     11 C           0.7080   -0.8500    0.0000 C.ar    1  LIG1        0.0008
     12 O           1.5830   -3.3880    0.0000 O.3     1  LIG1       -0.4684
     13 C           0.7250   -3.8790    0.0000 C.3     1  LIG1        0.2526
     14 O           3.3420   -2.3580    0.0000 O.3     1  LIG1       -0.4684
     15 C           3.3540   -3.3500    0.0000 C.3     1  LIG1        0.2526
     16 O           1.5710    2.6830    0.0000 O.2     1  LIG1       -0.2671
     17 C          -0.2630    3.7250    0.0000 C.3     1  LIG1        0.0726
     18 C          -1.2500    3.8830    0.0000 C.3     1  LIG1        0.0692
     19 C          -1.7170    3.0170    0.0000 C.3     1  LIG1        0.1392
     20 C          -1.1790    1.3080    0.0000 C.3     1  LIG1        0.1437
     21 C          -2.1080    0.9670    0.0000 C.3     1  LIG1        0.0890
     22 C          -2.2670   -0.0040    0.0000 C.ar    1  LIG1       -0.0162
     23 C          -3.1920   -0.3710    0.0000 C.ar    1  LIG1       -0.0041
     24 C          -3.3580   -1.3420    0.0000 C.ar    1  LIG1       -0.0003
     25 C          -2.5880   -1.9790    0.0000 C.ar    1  LIG1       -0.0000
     26 C          -1.6750   -1.6170    0.0000 C.ar    1  LIG1       -0.0003
     27 C          -1.5170   -0.6420    0.0000 C.ar    1  LIG1       -0.0041
@<TRIPOS>BOND
     1     1     2    1
     2     1    19    1
     3     1    20    1
     4     2     3    1
     5     2    17    1
     6     3     4   am
     7     3    16    2
     8     4     5    1
     9     5     6    1
    10     6     7   ar
    11     6    11   ar
    12     7     8   ar
    13     8     9   ar
    14     8    14    1
    15     9    10   ar
    16     9    12    1
    17    10    11   ar
    18    12    13    1
    19    14    15    1
    20    17    18    1
    21    18    19    1
    22    20    21    1
    23    21    22    1
    24    22    23   ar
    25    22    27   ar
    26    23    24   ar
    27    24    25   ar
    28    25    26   ar
    29    26    27   ar
