@<TRIPOS>MOLECULE
27104_ChemDiv_8001-5498
 30 32 0 0 0
SMALL
GASTEIGER
Energy = 0

@<TRIPOS>ATOM
      1 C          -2.0330    0.0250    0.0000 C.2     1  LIG1        0.2690
      2 N          -2.5210   -0.8540    0.0000 N.am    1  LIG1       -0.1754
      3 C          -3.5250   -0.8540    0.0000 C.ar    1  LIG1        0.0737
      4 C          -4.0130    0.0250    0.0000 C.ar    1  LIG1        0.0166
      5 C          -5.0290    0.0250    0.0000 C.ar    1  LIG1        0.0025
      6 C          -5.5130   -0.8540    0.0000 C.ar    1  LIG1        0.0141
      7 C          -6.5000   -0.8540    0.0000 C.2     1  LIG1        0.0729
      8 O          -7.0080   -1.6960    0.0000 O.co2   1  LIG1       -0.5446
      9 O          -7.0380   -0.0130    0.0000 O.co2   1  LIG1       -0.5446
     10 C          -5.0290   -1.7380    0.0000 C.ar    1  LIG1        0.0025
     11 C          -4.0130   -1.7380    0.0000 C.ar    1  LIG1        0.0166
     12 C          -1.0080    0.0250    0.0000 C.ar    1  LIG1        0.0554
     13 C          -0.5250    0.8710    0.0000 C.ar    1  LIG1        0.0047
     14 C           0.4920    0.8710    0.0000 C.ar    1  LIG1        0.0047
     15 C           1.0000    0.0250    0.0000 C.ar    1  LIG1        0.0554
     16 C           1.9960    0.0250    0.0000 C.2     1  LIG1        0.2690
     17 N           2.5040    0.8710    0.0000 N.am    1  LIG1       -0.1754
     18 C           3.4960    0.8710    0.0000 C.ar    1  LIG1        0.0737
     19 C           4.0080    0.0250    0.0000 C.ar    1  LIG1        0.0166
     20 C           4.9960    0.0250    0.0000 C.ar    1  LIG1        0.0025
     21 C           5.5080    0.8710    0.0000 C.ar    1  LIG1        0.0141
     22 C           6.5000    0.8710    0.0000 C.2     1  LIG1        0.0729
     23 O           7.0380    1.6670    0.0000 O.co2   1  LIG1       -0.5446
     24 O           7.0080   -0.0250    0.0000 O.co2   1  LIG1       -0.5446
     25 C           4.9960    1.7420    0.0000 C.ar    1  LIG1        0.0025
     26 C           4.0080    1.7420    0.0000 C.ar    1  LIG1        0.0166
     27 O           2.5040   -0.8540    0.0000 O.2     1  LIG1       -0.2680
     28 C           0.4920   -0.8540    0.0000 C.ar    1  LIG1        0.0047
     29 C          -0.5250   -0.8540    0.0000 C.ar    1  LIG1        0.0047
     30 O          -2.5210    0.8710    0.0000 O.2     1  LIG1       -0.2680
@<TRIPOS>BOND
     1     1     2   am
     2     1    12    1
     3     1    30    2
     4     2     3    1
     5     3     4   ar
     6     3    11   ar
     7     4     5   ar
     8     5     6   ar
     9     6     7    1
    10     6    10   ar
    11     7     8   ar
    12     7     9   ar
    13    10    11   ar
    14    12    13   ar
    15    12    29   ar
    16    13    14   ar
    17    14    15   ar
    18    15    16    1
    19    15    28   ar
    20    16    17   am
    21    16    27    2
    22    17    18    1
    23    18    19   ar
    24    18    26   ar
    25    19    20   ar
    26    20    21   ar
    27    21    22    1
    28    21    25   ar
    29    22    23   ar
    30    22    24   ar
    31    25    26   ar
    32    28    29   ar
