@<TRIPOS>MOLECULE
27101_ChemDiv_3701-0179
 34 37 0 0 0
SMALL
GASTEIGER
Energy = 0

@<TRIPOS>ATOM
      1 C          -1.0380   -1.3920    0.0000 C.2     1  LIG1        0.2337
      2 N          -0.2250   -0.9040    0.0000 N.am    1  LIG1       -0.2676
      3 C           0.6540   -1.3710    0.0000 C.3     1  LIG1        0.1565
      4 C           1.4710   -0.8500    0.0000 C.3     1  LIG1        0.1610
      5 N           1.4130    0.0920    0.0000 N.4     1  LIG1        0.3834
      6 C           2.2540    0.5580    0.0000 C.3     1  LIG1        0.1665
      7 C           2.2920    1.5540    0.0000 C.ar    1  LIG1        0.0406
      8 C           3.0540    2.0040    0.0000 C.ar    1  LIG1        0.0417
      9 C           3.0540    2.9000    0.0000 C.ar    1  LIG1        0.1753
     10 C           2.2540    3.3080    0.0000 C.ar    1  LIG1        0.2060
     11 C           1.4790    2.9000    0.0000 C.ar    1  LIG1        0.1753
     12 C           1.4790    2.0170    0.0000 C.ar    1  LIG1        0.0417
     13 O           0.7130    3.3670    0.0000 O.3     1  LIG1       -0.4683
     14 C          -0.0500    2.9000    0.0000 C.3     1  LIG1        0.2526
     15 O           2.2540    4.2420    0.0000 O.3     1  LIG1       -0.4654
     16 C           3.0540    4.7040    0.0000 C.3     1  LIG1        0.2528
     17 O           3.8710    3.3670    0.0000 O.3     1  LIG1       -0.4683
     18 C           3.8710    4.2380    0.0000 C.3     1  LIG1        0.2526
     19 C           0.5580    0.5580    0.0000 C.3     1  LIG1        0.1610
     20 C          -0.2790    0.0330    0.0000 C.3     1  LIG1        0.1565
     21 C          -1.0380   -2.4830    0.0000 C.3     1  LIG1        0.1211
     22 C          -0.1080   -3.0080    0.0000 C.ar    1  LIG1       -0.0098
     23 C           0.8290   -2.4830    0.0000 C.ar    1  LIG1       -0.0035
     24 C           1.7670   -3.0290    0.0000 C.ar    1  LIG1       -0.0003
     25 C           1.7670   -4.1210    0.0000 C.ar    1  LIG1       -0.0000
     26 C           0.8290   -4.6500    0.0000 C.ar    1  LIG1       -0.0003
     27 C          -0.1080   -4.1210    0.0000 C.ar    1  LIG1       -0.0035
     28 C          -1.9750   -3.0290    0.0000 C.ar    1  LIG1       -0.0098
     29 C          -2.9170   -2.4830    0.0000 C.ar    1  LIG1       -0.0035
     30 C          -3.8750   -3.0670    0.0000 C.ar    1  LIG1       -0.0003
     31 C          -3.8750   -4.1380    0.0000 C.ar    1  LIG1       -0.0000
     32 C          -2.9170   -4.7040    0.0000 C.ar    1  LIG1       -0.0003
     33 C          -1.9750   -4.1210    0.0000 C.ar    1  LIG1       -0.0035
     34 O          -1.9790   -0.8420    0.0000 O.2     1  LIG1       -0.2742
@<TRIPOS>BOND
     1     1     2   am
     2     1    21    1
     3     1    34    2
     4     2     3    1
     5     2    20    1
     6     3     4    1
     7     4     5    1
     8     5     6    1
     9     5    19    1
    10     6     7    1
    11     7     8   ar
    12     7    12   ar
    13     8     9   ar
    14     9    10   ar
    15     9    17    1
    16    10    11   ar
    17    10    15    1
    18    11    12   ar
    19    11    13    1
    20    13    14    1
    21    15    16    1
    22    17    18    1
    23    19    20    1
    24    21    22    1
    25    21    28    1
    26    22    23   ar
    27    22    27   ar
    28    23    24   ar
    29    24    25   ar
    30    25    26   ar
    31    26    27   ar
    32    28    29   ar
    33    28    33   ar
    34    29    30   ar
    35    30    31   ar
    36    31    32   ar
    37    32    33   ar
