@<TRIPOS>MOLECULE
27106_ChemDiv_1813-1078
 16 17 0 0 0
SMALL
GASTEIGER
Energy = 0

@<TRIPOS>ATOM
      1 C          -0.5880   -0.1290    0.0000 C.2     1  LIG1        0.2043
      2 N           0.2210    0.4710    0.0000 N.2     1  LIG1       -0.2361
      3 C          -0.1130    1.4040    0.0000 C.3     1  LIG1        0.1881
      4 C          -1.0880    1.4040    0.0000 C.3     1  LIG1        0.2342
      5 O          -1.4000    0.4380    0.0000 O.2     1  LIG1       -0.4609
      6 C           0.9080    1.4040    0.0000 C.3     1  LIG1        0.2107
      7 O           1.4460    2.1920    0.0000 O.3     1  LIG1       -0.2181
      8 C          -0.5880    2.3000    0.0000 C.3     1  LIG1        0.2107
      9 O          -0.0250    3.1500    0.0000 O.3     1  LIG1       -0.2181
     10 C          -0.5880   -1.1290    0.0000 C.3     1  LIG1        0.1536
     11 C           0.2830   -1.6250    0.0000 C.2     1  LIG1        0.2498
     12 N           0.2830   -2.6420    0.0000 N.am    1  LIG1       -0.2050
     13 C          -0.5880   -3.1460    0.0000 C.3     1  LIG1        0.1152
     14 C          -1.4500   -2.6420    0.0000 C.3     1  LIG1        0.0244
     15 C          -1.4500   -1.6540    0.0000 C.3     1  LIG1        0.0203
     16 O           1.1330   -1.1130    0.0000 O.2     1  LIG1       -0.2728
@<TRIPOS>BOND
     1     1     2    2
     2     1     5    1
     3     1    10    1
     4     2     3    1
     5     3     4    1
     6     3     6    1
     7     3     8    1
     8     4     5    1
     9     6     7    1
    10     8     9    1
    11    10    11    1
    12    10    15    1
    13    11    12   am
    14    11    16    2
    15    12    13    1
    16    13    14    1
    17    14    15    1
