@<TRIPOS>MOLECULE
27105_ChemDiv_C276-1130
 30 34 0 0 0
SMALL
GASTEIGER
Energy = 0

@<TRIPOS>ATOM
      1 N           0.7790    2.1630    0.0000 N.ar    1  LIG1       -0.3272
      2 C           0.5790    1.1920    0.0000 C.ar    1  LIG1        0.0599
      3 C           1.4460    0.6920    0.0000 C.ar    1  LIG1        0.0169
      4 C           2.1830    1.3630    0.0000 C.ar    1  LIG1        0.0172
      5 C           1.7790    2.2710    0.0000 C.ar    1  LIG1        0.0599
      6 C           2.3540    3.0830    0.0000 C.ar    1  LIG1        0.0172
      7 C           3.3460    2.9750    0.0000 C.ar    1  LIG1        0.0015
      8 C           3.7540    2.0670    0.0000 C.ar    1  LIG1        0.0001
      9 C           3.1710    1.2540    0.0000 C.ar    1  LIG1        0.0015
     10 C           1.4460   -0.3080    0.0000 C.ar    1  LIG1       -0.0025
     11 C           0.5790   -0.8080    0.0000 C.ar    1  LIG1       -0.0178
     12 C           0.5790   -1.8080    0.0000 C.3     1  LIG1        0.0551
     13 C          -0.2830   -2.3210    0.0000 C.ar    1  LIG1        0.0006
     14 C          -0.2830   -3.3210    0.0000 C.ar    1  LIG1        0.0729
     15 N           0.5790   -3.8210    0.0000 N.am    1  LIG1       -0.1794
     16 C           1.4460   -3.3210    0.0000 C.2     1  LIG1        0.2462
     17 C           1.4460   -2.3210    0.0000 C.3     1  LIG1        0.0959
     18 O           2.3170   -3.8210    0.0000 O.2     1  LIG1       -0.2730
     19 C          -1.1460   -3.8210    0.0000 C.ar    1  LIG1        0.0563
     20 C          -2.0330   -3.3460    0.0000 C.ar    1  LIG1        0.1737
     21 C          -2.0210   -2.3210    0.0000 C.ar    1  LIG1        0.1722
     22 C          -1.1460   -1.8170    0.0000 C.ar    1  LIG1        0.0374
     23 O          -2.8830   -1.8210    0.0000 O.3     1  LIG1       -0.4684
     24 C          -2.8830   -0.8210    0.0000 C.3     1  LIG1        0.2526
     25 O          -2.8960   -3.8500    0.0000 O.3     1  LIG1       -0.4683
     26 C          -3.7580   -3.3580    0.0000 C.3     1  LIG1        0.2526
     27 C          -0.2830   -0.3080    0.0000 C.ar    1  LIG1       -0.0025
     28 C          -0.2960    0.6790    0.0000 C.ar    1  LIG1        0.0169
     29 C           0.1130    2.9040    0.0000 C.3     1  LIG1        0.1061
     30 C           0.4170    3.8540    0.0000 C.3     1  LIG1        0.0265
@<TRIPOS>BOND
     1     1     2   ar
     2     1     5   ar
     3     1    29    1
     4     2     3   ar
     5     2    28   ar
     6     3     4   ar
     7     3    10   ar
     8     4     5   ar
     9     4     9   ar
    10     5     6   ar
    11     6     7   ar
    12     7     8   ar
    13     8     9   ar
    14    10    11   ar
    15    11    12    1
    16    11    27   ar
    17    12    13    1
    18    12    17    1
    19    13    14   ar
    20    13    22   ar
    21    14    15    1
    22    14    19   ar
    23    15    16   am
    24    16    17    1
    25    16    18    2
    26    19    20   ar
    27    20    21   ar
    28    20    25    1
    29    21    22   ar
    30    21    23    1
    31    23    24    1
    32    25    26    1
    33    27    28   ar
    34    29    30    1
