@<TRIPOS>MOLECULE
27100_ChemDiv_4130-1505
 30 32 0 0 0
SMALL
GASTEIGER
Energy = 0

@<TRIPOS>ATOM
      1 C          -1.9960    0.0080    0.0000 C.2     1  LIG1        0.2691
      2 N          -2.4880    0.8630    0.0000 N.am    1  LIG1       -0.1724
      3 C          -3.4880    0.8630    0.0000 C.ar    1  LIG1        0.1075
      4 C          -4.0000    1.7290    0.0000 C.ar    1  LIG1        0.1537
      5 O          -3.5040    2.5960    0.0000 O.3     1  LIG1       -0.4741
      6 C          -2.5080    2.5960    0.0000 C.3     1  LIG1        0.2056
      7 C          -1.9960    3.4670    0.0000 C.3     1  LIG1        0.0512
      8 C          -5.0000    1.7250    0.0000 C.ar    1  LIG1        0.0382
      9 C          -5.5000    0.8630    0.0000 C.ar    1  LIG1        0.0032
     10 C          -5.0000   -0.0040    0.0000 C.ar    1  LIG1        0.0015
     11 C          -4.0000   -0.0040    0.0000 C.ar    1  LIG1        0.0197
     12 C          -0.9960    0.0080    0.0000 C.ar    1  LIG1        0.0554
     13 C          -0.4830   -0.8580    0.0000 C.ar    1  LIG1        0.0047
     14 C           0.5000   -0.8580    0.0000 C.ar    1  LIG1        0.0047
     15 C           0.9920    0.0080    0.0000 C.ar    1  LIG1        0.0554
     16 C           1.9920    0.0080    0.0000 C.2     1  LIG1        0.2691
     17 N           2.4920   -0.8580    0.0000 N.am    1  LIG1       -0.1724
     18 C           3.4960   -0.8580    0.0000 C.ar    1  LIG1        0.1075
     19 C           3.9960   -1.7130    0.0000 C.ar    1  LIG1        0.1537
     20 O           3.4960   -2.5920    0.0000 O.3     1  LIG1       -0.4741
     21 C           2.4920   -2.5920    0.0000 C.3     1  LIG1        0.2056
     22 C           1.9920   -3.4630    0.0000 C.3     1  LIG1        0.0512
     23 C           4.9960   -1.7250    0.0000 C.ar    1  LIG1        0.0382
     24 C           5.4960   -0.8580    0.0000 C.ar    1  LIG1        0.0032
     25 C           4.9960    0.0080    0.0000 C.ar    1  LIG1        0.0015
     26 C           3.9960    0.0080    0.0000 C.ar    1  LIG1        0.0197
     27 O           2.4920    0.8790    0.0000 O.2     1  LIG1       -0.2680
     28 C           0.5000    0.8790    0.0000 C.ar    1  LIG1        0.0047
     29 C          -0.4830    0.8790    0.0000 C.ar    1  LIG1        0.0047
     30 O          -2.4880   -0.8580    0.0000 O.2     1  LIG1       -0.2680
@<TRIPOS>BOND
     1     1     2   am
     2     1    12    1
     3     1    30    2
     4     2     3    1
     5     3     4   ar
     6     3    11   ar
     7     4     5    1
     8     4     8   ar
     9     5     6    1
    10     6     7    1
    11     8     9   ar
    12     9    10   ar
    13    10    11   ar
    14    12    13   ar
    15    12    29   ar
    16    13    14   ar
    17    14    15   ar
    18    15    16    1
    19    15    28   ar
    20    16    17   am
    21    16    27    2
    22    17    18    1
    23    18    19   ar
    24    18    26   ar
    25    19    20    1
    26    19    23   ar
    27    20    21    1
    28    21    22    1
    29    23    24   ar
    30    24    25   ar
    31    25    26   ar
    32    28    29   ar
