@<TRIPOS>MOLECULE
27103_ChemDiv_3701-0506
 26 28 0 0 0
SMALL
GASTEIGER
Energy = 0

@<TRIPOS>ATOM
      1 C          -2.6330   -1.4420    0.0000 C.ar    1  LIG1        0.2060
      2 C          -2.1460   -0.5580    0.0000 C.ar    1  LIG1        0.1752
      3 C          -1.1630   -0.5580    0.0000 C.ar    1  LIG1        0.0373
      4 C          -0.6330   -1.4170    0.0000 C.ar    1  LIG1        0.0001
      5 C          -1.1420   -2.2790    0.0000 C.ar    1  LIG1        0.0373
      6 C          -2.1460   -2.3040    0.0000 C.ar    1  LIG1        0.1752
      7 O          -2.6330   -3.1920    0.0000 O.3     1  LIG1       -0.4683
      8 C          -2.1170   -4.0540    0.0000 C.3     1  LIG1        0.2526
      9 C           0.3710   -1.4170    0.0000 C.3     1  LIG1        0.0997
     10 N           0.8830   -0.5580    0.0000 N.3     1  LIG1       -0.2589
     11 C           0.3710    0.3040    0.0000 C.3     1  LIG1        0.1361
     12 C           0.8630    1.1670    0.0000 C.3     1  LIG1        0.1560
     13 N           1.8880    1.1670    0.0000 N.4     1  LIG1        0.3751
     14 C           2.3750    0.2880    0.0000 C.3     1  LIG1        0.1560
     15 C           1.8880   -0.5830    0.0000 C.3     1  LIG1        0.1361
     16 C           2.3960    2.0330    0.0000 C.3     1  LIG1        0.0870
     17 C           3.3830    1.8210    0.0000 C.3     1  LIG1        0.0567
     18 C           4.1420    2.4460    0.0000 C.3     1  LIG1        0.0059
     19 C           4.1250    3.4500    0.0000 C.3     1  LIG1        0.0002
     20 C           3.3580    4.0540    0.0000 C.3     1  LIG1        0.0002
     21 C           2.3750    3.8250    0.0000 C.3     1  LIG1        0.0059
     22 C           1.9580    2.9130    0.0000 C.3     1  LIG1        0.0567
     23 O          -2.6580    0.3040    0.0000 O.3     1  LIG1       -0.4683
     24 C          -3.6330    0.3040    0.0000 C.3     1  LIG1        0.2526
     25 O          -3.6330   -1.4420    0.0000 O.3     1  LIG1       -0.4654
     26 C          -4.1460   -0.5830    0.0000 C.3     1  LIG1        0.2528
@<TRIPOS>BOND
     1     1     2   ar
     2     1     6   ar
     3     1    25    1
     4     2     3   ar
     5     2    23    1
     6     3     4   ar
     7     4     5   ar
     8     4     9    1
     9     5     6   ar
    10     6     7    1
    11     7     8    1
    12     9    10    1
    13    10    11    1
    14    10    15    1
    15    11    12    1
    16    12    13    1
    17    13    14    1
    18    13    16    1
    19    14    15    1
    20    16    17    1
    21    16    22    1
    22    17    18    1
    23    18    19    1
    24    19    20    1
    25    20    21    1
    26    21    22    1
    27    23    24    1
    28    25    26    1
