@<TRIPOS>MOLECULE
27107_ChemDiv_1682-0283
 23 24 0 0 0
SMALL
GASTEIGER
Energy = 0

@<TRIPOS>ATOM
      1 N           0.8670    0.7460    0.0000 N.am    1  LIG1       -0.2765
      2 C           0.0080    1.2540    0.0000 C.2     1  LIG1        0.2702
      3 C          -0.8920    0.7460    0.0000 C.3     1  LIG1        0.2896
      4 O          -0.8920   -0.2580    0.0000 O.3     1  LIG1       -0.4651
      5 C          -1.7630   -0.7630    0.0000 C.ar    1  LIG1        0.1454
      6 C          -2.6080   -0.2580    0.0000 C.ar    1  LIG1        0.0690
      7 C          -3.4920   -0.7630    0.0000 C.ar    1  LIG1        0.0164
      8 C          -3.4920   -1.7540    0.0000 C.ar    1  LIG1        0.0353
      9 C          -2.6380   -2.2500    0.0000 C.ar    1  LIG1        0.0098
     10 C          -1.7630   -1.7710    0.0000 C.ar    1  LIG1        0.0379
     11 BR         -4.3580   -2.2420    0.0000 Br      1  LIG1       -0.0490
     12 BR         -2.6080    0.7170    0.0000 Br      1  LIG1       -0.0458
     13 O           0.0080    2.2540    0.0000 O.2     1  LIG1       -0.2708
     14 C           0.8670   -0.2580    0.0000 C.3     1  LIG1        0.0941
     15 C           1.7380   -0.7630    0.0000 C.3     1  LIG1        0.0326
     16 C           2.5960   -0.2580    0.0000 C.3     1  LIG1        0.1025
     17 C           3.4830   -0.7420    0.0000 C.2     1  LIG1        0.3165
     18 O           3.4710   -1.7330    0.0000 O.2     1  LIG1       -0.2501
     19 O           4.3540   -0.2380    0.0000 O.3     1  LIG1       -0.4485
     20 C           4.3540    0.7580    0.0000 C.3     1  LIG1        0.2086
     21 C           3.4670    1.2540    0.0000 C.3     1  LIG1        0.0513
     22 C           2.5960    0.7290    0.0000 C.3     1  LIG1        0.0326
     23 C           1.7380    1.2250    0.0000 C.3     1  LIG1        0.0941
@<TRIPOS>BOND
     1     1     2   am
     2     1    14    1
     3     1    23    1
     4     2     3    1
     5     2    13    2
     6     3     4    1
     7     4     5    1
     8     5     6   ar
     9     5    10   ar
    10     6     7   ar
    11     6    12    1
    12     7     8   ar
    13     8     9   ar
    14     8    11    1
    15     9    10   ar
    16    14    15    1
    17    15    16    1
    18    16    17    1
    19    16    22    1
    20    17    18    2
    21    17    19    1
    22    19    20    1
    23    20    21    1
    24    22    23    1
