@<TRIPOS>MOLECULE
27109_ChemDiv_1682-2691
 18 19 0 0 0
SMALL
GASTEIGER
Energy = 0

@<TRIPOS>ATOM
      1 N          -1.3000   -0.7460    0.0000 N.am    1  LIG1       -0.2765
      2 C          -0.4460   -1.2380    0.0000 C.2     1  LIG1        0.2702
      3 C           0.4250   -0.7580    0.0000 C.3     1  LIG1        0.2896
      4 O           0.4250    0.2500    0.0000 O.3     1  LIG1       -0.4656
      5 C           1.3130    0.7630    0.0000 C.ar    1  LIG1        0.1393
      6 C           1.3130    1.7500    0.0000 C.ar    1  LIG1        0.0374
      7 C           2.1540    2.2580    0.0000 C.ar    1  LIG1        0.0098
      8 C           3.0380    1.7500    0.0000 C.ar    1  LIG1        0.0348
      9 BR          3.9080    2.2580    0.0000 Br      1  LIG1       -0.0490
     10 C           3.0380    0.7630    0.0000 C.ar    1  LIG1        0.0098
     11 C           2.1540    0.2500    0.0000 C.ar    1  LIG1        0.0374
     12 O          -0.4460   -2.2540    0.0000 O.2     1  LIG1       -0.2708
     13 C          -1.3000    0.1880    0.0000 C.3     1  LIG1        0.0935
     14 C          -2.1880    0.6750    0.0000 C.3     1  LIG1        0.0216
     15 C          -3.0460    0.1750    0.0000 C.3     1  LIG1        0.0034
     16 C          -3.0460   -0.8130    0.0000 C.3     1  LIG1        0.0216
     17 C          -2.1880   -1.3130    0.0000 C.3     1  LIG1        0.0935
     18 C          -3.9130    0.6750    0.0000 C.3     1  LIG1        0.0001
@<TRIPOS>BOND
     1     1     2   am
     2     1    13    1
     3     1    17    1
     4     2     3    1
     5     2    12    2
     6     3     4    1
     7     4     5    1
     8     5     6   ar
     9     5    11   ar
    10     6     7   ar
    11     7     8   ar
    12     8     9    1
    13     8    10   ar
    14    10    11   ar
    15    13    14    1
    16    14    15    1
    17    15    16    1
    18    15    18    1
    19    16    17    1
