@<TRIPOS>MOLECULE
27102_ChemDiv_4130-2139
 28 30 0 0 0
SMALL
GASTEIGER
Energy = 0

@<TRIPOS>ATOM
      1 C           1.9960    0.0040    0.0000 C.2     1  LIG1        0.2690
      2 N           2.4830   -0.8630    0.0000 N.am    1  LIG1       -0.1754
      3 C           3.4830   -0.8630    0.0000 C.ar    1  LIG1        0.0739
      4 C           3.9960    0.0040    0.0000 C.ar    1  LIG1        0.0197
      5 C           4.9960    0.0040    0.0000 C.ar    1  LIG1        0.0382
      6 C           5.5000   -0.8630    0.0000 C.ar    1  LIG1        0.1388
      7 C           4.9960   -1.7290    0.0000 C.ar    1  LIG1        0.0382
      8 C           3.9960   -1.7290    0.0000 C.ar    1  LIG1        0.0197
      9 O           6.5000   -0.8670    0.0000 O.3     1  LIG1       -0.4714
     10 C           6.9920    0.0000    0.0000 C.3     1  LIG1        0.2525
     11 C           0.9960    0.0040    0.0000 C.ar    1  LIG1        0.0554
     12 C           0.5040   -0.8630    0.0000 C.ar    1  LIG1        0.0047
     13 C          -0.4960   -0.8630    0.0000 C.ar    1  LIG1        0.0047
     14 C          -1.0000    0.0040    0.0000 C.ar    1  LIG1        0.0554
     15 C          -2.0000    0.0040    0.0000 C.2     1  LIG1        0.2690
     16 N          -2.5130    0.8670    0.0000 N.am    1  LIG1       -0.1754
     17 C          -3.5130    0.8670    0.0000 C.ar    1  LIG1        0.0739
     18 C          -4.0000    0.0000    0.0000 C.ar    1  LIG1        0.0197
     19 C          -5.0000    0.0000    0.0000 C.ar    1  LIG1        0.0382
     20 C          -5.5080    0.8670    0.0000 C.ar    1  LIG1        0.1388
     21 C          -5.0000    1.7330    0.0000 C.ar    1  LIG1        0.0382
     22 C          -4.0000    1.7330    0.0000 C.ar    1  LIG1        0.0197
     23 O          -6.5040    0.8670    0.0000 O.3     1  LIG1       -0.4714
     24 C          -6.9920    0.0000    0.0000 C.3     1  LIG1        0.2525
     25 O          -2.5130   -0.8630    0.0000 O.2     1  LIG1       -0.2680
     26 C          -0.4960    0.8710    0.0000 C.ar    1  LIG1        0.0047
     27 C           0.5040    0.8710    0.0000 C.ar    1  LIG1        0.0047
     28 O           2.5000    0.8710    0.0000 O.2     1  LIG1       -0.2680
@<TRIPOS>BOND
     1     1     2   am
     2     1    11    1
     3     1    28    2
     4     2     3    1
     5     3     4   ar
     6     3     8   ar
     7     4     5   ar
     8     5     6   ar
     9     6     7   ar
    10     6     9    1
    11     7     8   ar
    12     9    10    1
    13    11    12   ar
    14    11    27   ar
    15    12    13   ar
    16    13    14   ar
    17    14    15    1
    18    14    26   ar
    19    15    16   am
    20    15    25    2
    21    16    17    1
    22    17    18   ar
    23    17    22   ar
    24    18    19   ar
    25    19    20   ar
    26    20    21   ar
    27    20    23    1
    28    21    22   ar
    29    23    24    1
    30    26    27   ar
