@<TRIPOS>MOLECULE
27114_ChemDiv_K940-3527
 17 18 0 0 0
SMALL
GASTEIGER
Energy = 0

@<TRIPOS>ATOM
      1 C           1.7250    0.4630    0.0000 C.2     1  LIG1        0.2841
      2 N           0.8630   -0.0460    0.0000 N.am    1  LIG1       -0.2620
      3 C           0.0000    0.4540    0.0000 C.3     1  LIG1        0.1568
      4 C          -0.8750   -0.0460    0.0000 C.3     1  LIG1        0.1612
      5 N          -0.8750   -1.0460    0.0000 N.4     1  LIG1        0.3872
      6 C          -1.7380   -1.5330    0.0000 C.3     1  LIG1        0.2284
      7 C          -1.7380   -2.5380    0.0000 C.2     1  LIG1        0.3184
      8 O          -2.6000   -3.0330    0.0000 O.2     1  LIG1       -0.2652
      9 N          -0.8630   -3.0210    0.0000 N.am    1  LIG1       -0.0826
     10 C          -0.0040   -1.5380    0.0000 C.3     1  LIG1        0.1612
     11 C           0.8630   -1.0460    0.0000 C.3     1  LIG1        0.1568
     12 C           1.7250    1.4670    0.0000 C.ar    1  LIG1        0.1987
     13 O           2.4670    2.1330    0.0000 O.2     1  LIG1       -0.4458
     14 C           2.0670    3.0380    0.0000 C.ar    1  LIG1        0.1798
     15 C           1.0710    2.9420    0.0000 C.ar    1  LIG1        0.0440
     16 C           0.8580    1.9580    0.0000 C.ar    1  LIG1        0.0455
     17 O           2.5960   -0.0460    0.0000 O.2     1  LIG1       -0.2666
@<TRIPOS>BOND
     1     1     2   am
     2     1    12    1
     3     1    17    2
     4     2     3    1
     5     2    11    1
     6     3     4    1
     7     4     5    1
     8     5     6    1
     9     5    10    1
    10     6     7    1
    11     7     8    2
    12     7     9   am
    13    10    11    1
    14    12    13   ar
    15    12    16   ar
    16    13    14   ar
    17    14    15   ar
    18    15    16   ar
