@<TRIPOS>MOLECULE
27119_ChemDiv_5269-0183
 20 22 0 0 0
SMALL
GASTEIGER
Energy = 0

@<TRIPOS>ATOM
      1 N           4.4250    0.2630    0.0000 N.4     1  LIG1        0.3801
      2 C           3.5380   -0.2580    0.0000 C.3     1  LIG1        0.1827
      3 C           2.6670    0.2630    0.0000 C.3     1  LIG1        0.2254
      4 O           1.7750   -0.2580    0.0000 O.3     1  LIG1       -0.4435
      5 C           0.8880    0.2630    0.0000 C.2     1  LIG1        0.3621
      6 O           0.8880    1.2880    0.0000 O.2     1  LIG1       -0.2459
      7 C           0.0000   -0.2580    0.0000 C.3     1  LIG1        0.3141
      8 O          -0.8920    0.2630    0.0000 O.3     1  LIG1       -0.4638
      9 C          -1.7790   -0.2420    0.0000 C.ar    1  LIG1        0.1391
     10 C          -2.6710    0.2630    0.0000 C.ar    1  LIG1        0.0327
     11 C          -3.5580   -0.2420    0.0000 C.ar    1  LIG1       -0.0188
     12 C          -3.5580   -1.2670    0.0000 C.ar    1  LIG1       -0.0041
     13 C          -2.6710   -1.7920    0.0000 C.ar    1  LIG1        0.0028
     14 C          -1.7790   -1.2670    0.0000 C.ar    1  LIG1        0.0369
     15 C          -4.4500    0.2630    0.0000 C.3     1  LIG1        0.0311
     16 C           2.6670    1.2880    0.0000 C.3     1  LIG1        0.0581
     17 C           3.5540    1.7960    0.0000 C.3     1  LIG1        0.0667
     18 C           4.4460    1.2880    0.0000 C.3     1  LIG1        0.1388
     19 C           3.6040    1.1670    0.0000 C.3     1  LIG1        0.0667
     20 C           3.6040    0.4460    0.0000 C.3     1  LIG1        0.1388
@<TRIPOS>BOND
     1     1     2    1
     2     1    18    1
     3     1    20    1
     4     2     3    1
     5     3     4    1
     6     3    16    1
     7     4     5    1
     8     5     6    2
     9     5     7    1
    10     7     8    1
    11     8     9    1
    12     9    10   ar
    13     9    14   ar
    14    10    11   ar
    15    11    12   ar
    16    11    15    1
    17    12    13   ar
    18    13    14   ar
    19    16    17    1
    20    16    19    1
    21    17    18    1
    22    19    20    1
