@<TRIPOS>MOLECULE
27115_ChemDiv_4534-3887
 21 22 0 0 0
SMALL
GASTEIGER
Energy = 0

@<TRIPOS>ATOM
      1 N           1.1040   -0.5170    0.0000 N.am    1  LIG1       -0.2765
      2 C           0.1920   -1.0420    0.0000 C.2     1  LIG1        0.2702
      3 C          -0.6380   -0.5580    0.0000 C.3     1  LIG1        0.2896
      4 O          -1.4630   -1.0250    0.0000 O.3     1  LIG1       -0.4659
      5 C          -2.2830   -0.5330    0.0000 C.ar    1  LIG1        0.1353
      6 C          -3.1130   -1.0040    0.0000 C.ar    1  LIG1        0.0130
      7 C          -3.9250   -0.5170    0.0000 C.ar    1  LIG1        0.0101
      8 C          -3.9250    0.4380    0.0000 C.ar    1  LIG1        0.0576
      9 C          -3.0790    0.9040    0.0000 C.ar    1  LIG1        0.0145
     10 C          -2.2830    0.4210    0.0000 C.ar    1  LIG1        0.0375
     11 CL         -4.7330    0.9290    0.0000 Cl      1  LIG1       -0.0823
     12 C          -3.1170   -1.9460    0.0000 C.3     1  LIG1        0.0342
     13 O           0.1920   -2.0880    0.0000 O.2     1  LIG1       -0.2708
     14 C           1.1040    0.5380    0.0000 C.3     1  LIG1        0.0940
     15 C           2.0210    1.0580    0.0000 C.3     1  LIG1        0.0307
     16 C           2.9290    0.5210    0.0000 C.3     1  LIG1        0.0833
     17 C           3.8250    1.0420    0.0000 C.2     1  LIG1        0.2604
     18 O           3.8420    2.0920    0.0000 O.2     1  LIG1       -0.2717
     19 N           4.7290    0.5170    0.0000 N.am    1  LIG1       -0.0878
     20 C           2.9290   -0.5330    0.0000 C.3     1  LIG1        0.0307
     21 C           1.9960   -1.0420    0.0000 C.3     1  LIG1        0.0940
@<TRIPOS>BOND
     1     1     2   am
     2     1    14    1
     3     1    21    1
     4     2     3    1
     5     2    13    2
     6     3     4    1
     7     4     5    1
     8     5     6   ar
     9     5    10   ar
    10     6     7   ar
    11     6    12    1
    12     7     8   ar
    13     8     9   ar
    14     8    11    1
    15     9    10   ar
    16    14    15    1
    17    15    16    1
    18    16    17    1
    19    16    20    1
    20    17    18    2
    21    17    19   am
    22    20    21    1
