@<TRIPOS>MOLECULE
27113_ChemDiv_2279-3899
 21 22 0 0 0
SMALL
GASTEIGER
Energy = 0

@<TRIPOS>ATOM
      1 N           2.1540    0.5130    0.0000 N.am    1  LIG1       -0.2765
      2 C           1.3000    1.0040    0.0000 C.2     1  LIG1        0.2702
      3 C           0.4250    0.5130    0.0000 C.3     1  LIG1        0.2896
      4 O          -0.4500    1.0000    0.0000 O.3     1  LIG1       -0.4656
      5 C          -1.3040    0.5000    0.0000 C.ar    1  LIG1        0.1393
      6 C          -1.3040   -0.5080    0.0000 C.ar    1  LIG1        0.0366
      7 C          -2.1670   -1.0000    0.0000 C.ar    1  LIG1       -0.0012
      8 C          -3.0420   -0.5080    0.0000 C.ar    1  LIG1       -0.0226
      9 C          -3.9040   -1.0000    0.0000 C.3     1  LIG1        0.0189
     10 C          -4.7580   -0.5080    0.0000 C.3     1  LIG1        0.0044
     11 C          -3.9040   -2.0080    0.0000 C.3     1  LIG1        0.0044
     12 C          -4.1500   -0.0290    0.0000 C.3     1  LIG1        0.0044
     13 C          -3.0420    0.5000    0.0000 C.ar    1  LIG1       -0.0012
     14 C          -2.1670    1.0000    0.0000 C.ar    1  LIG1        0.0366
     15 O           1.2830    2.0130    0.0000 O.2     1  LIG1       -0.2708
     16 C           2.1540   -0.4960    0.0000 C.3     1  LIG1        0.0935
     17 C           3.0170   -0.9960    0.0000 C.3     1  LIG1        0.0216
     18 C           3.8880   -0.4960    0.0000 C.3     1  LIG1        0.0034
     19 C           3.8880    0.5130    0.0000 C.3     1  LIG1        0.0216
     20 C           3.0170    1.0040    0.0000 C.3     1  LIG1        0.0935
     21 C           4.7540   -0.9960    0.0000 C.3     1  LIG1        0.0001
@<TRIPOS>BOND
     1     1     2   am
     2     1    16    1
     3     1    20    1
     4     2     3    1
     5     2    15    2
     6     3     4    1
     7     4     5    1
     8     5     6   ar
     9     5    14   ar
    10     6     7   ar
    11     7     8   ar
    12     8     9    1
    13     8    13   ar
    14     9    10    1
    15     9    11    1
    16     9    12    1
    17    13    14   ar
    18    16    17    1
    19    17    18    1
    20    18    19    1
    21    18    21    1
    22    19    20    1
