@<TRIPOS>MOLECULE
27110_ChemDiv_6049-2585
 23 25 0 0 0
SMALL
GASTEIGER
Energy = 0

@<TRIPOS>ATOM
      1 C          -2.7290    0.8080    0.0000 C.ar    1  LIG1        0.1981
      2 C          -2.3580   -0.1210    0.0000 C.2     1  LIG1        0.2838
      3 N          -1.3540   -0.2380    0.0000 N.am    1  LIG1       -0.2718
      4 C          -0.7000    0.5960    0.0000 C.3     1  LIG1        0.1153
      5 C           0.2750    0.5960    0.0000 C.3     1  LIG1        0.1153
      6 N           0.9000   -0.2540    0.0000 N.am    1  LIG1       -0.2718
      7 C           1.9040   -0.1790    0.0000 C.2     1  LIG1        0.2838
      8 C           2.4580   -1.0250    0.0000 C.ar    1  LIG1        0.1981
      9 O           3.4580   -1.0580    0.0000 O.2     1  LIG1       -0.4532
     10 C           3.7170   -2.0170    0.0000 C.ar    1  LIG1        0.1235
     11 C           2.9080   -2.5540    0.0000 C.ar    1  LIG1        0.0362
     12 C           2.1130   -1.9540    0.0000 C.ar    1  LIG1        0.0450
     13 C           4.6460   -2.3460    0.0000 C.3     1  LIG1        0.0725
     14 O           2.3210    0.7040    0.0000 O.2     1  LIG1       -0.2666
     15 C           0.6920   -1.1790    0.0000 C.3     1  LIG1        0.0956
     16 C          -0.2380   -1.6420    0.0000 C.3     1  LIG1        0.0430
     17 C          -1.1170   -1.1920    0.0000 C.3     1  LIG1        0.0956
     18 O          -2.9380   -0.9250    0.0000 O.2     1  LIG1       -0.2666
     19 O          -3.7210    1.0330    0.0000 O.2     1  LIG1       -0.4532
     20 C          -3.7960    2.0210    0.0000 C.ar    1  LIG1        0.1235
     21 C          -2.8790    2.4250    0.0000 C.ar    1  LIG1        0.0362
     22 C          -2.2210    1.6630    0.0000 C.ar    1  LIG1        0.0450
     23 C          -4.6500    2.5580    0.0000 C.3     1  LIG1        0.0725
@<TRIPOS>BOND
     1     1     2    1
     2     1    19   ar
     3     1    22   ar
     4     2     3   am
     5     2    18    2
     6     3     4    1
     7     3    17    1
     8     4     5    1
     9     5     6    1
    10     6     7   am
    11     6    15    1
    12     7     8    1
    13     7    14    2
    14     8     9   ar
    15     8    12   ar
    16     9    10   ar
    17    10    11   ar
    18    10    13    1
    19    11    12   ar
    20    15    16    1
    21    16    17    1
    22    19    20   ar
    23    20    21   ar
    24    20    23    1
    25    21    22   ar
