@<TRIPOS>MOLECULE
27117_ChemDiv_5269-0153
 19 21 0 0 0
SMALL
GASTEIGER
Energy = 0

@<TRIPOS>ATOM
      1 N           3.9960    0.2630    0.0000 N.4     1  LIG1        0.3801
      2 C           3.1080   -0.2580    0.0000 C.3     1  LIG1        0.1827
      3 C           2.2210    0.2630    0.0000 C.3     1  LIG1        0.2254
      4 O           1.3290   -0.2580    0.0000 O.3     1  LIG1       -0.4435
      5 C           0.4420    0.2630    0.0000 C.2     1  LIG1        0.3621
      6 O           0.4420    1.2880    0.0000 O.2     1  LIG1       -0.2459
      7 C          -0.4460   -0.2580    0.0000 C.3     1  LIG1        0.3141
      8 O          -1.3330    0.2630    0.0000 O.3     1  LIG1       -0.4638
      9 C          -2.2250   -0.2420    0.0000 C.ar    1  LIG1        0.1394
     10 C          -3.1130    0.2630    0.0000 C.ar    1  LIG1        0.0369
     11 C          -4.0000   -0.2420    0.0000 C.ar    1  LIG1        0.0031
     12 C          -4.0000   -1.2670    0.0000 C.ar    1  LIG1        0.0002
     13 C          -3.1130   -1.7880    0.0000 C.ar    1  LIG1        0.0031
     14 C          -2.2250   -1.2670    0.0000 C.ar    1  LIG1        0.0369
     15 C           2.2210    1.2880    0.0000 C.3     1  LIG1        0.0581
     16 C           3.1080    1.7920    0.0000 C.3     1  LIG1        0.0667
     17 C           3.9960    1.2880    0.0000 C.3     1  LIG1        0.1388
     18 C           3.1580    1.1670    0.0000 C.3     1  LIG1        0.0667
     19 C           3.1580    0.4420    0.0000 C.3     1  LIG1        0.1388
@<TRIPOS>BOND
     1     1     2    1
     2     1    17    1
     3     1    19    1
     4     2     3    1
     5     3     4    1
     6     3    15    1
     7     4     5    1
     8     5     6    2
     9     5     7    1
    10     7     8    1
    11     8     9    1
    12     9    10   ar
    13     9    14   ar
    14    10    11   ar
    15    11    12   ar
    16    12    13   ar
    17    13    14   ar
    18    15    16    1
    19    15    18    1
    20    16    17    1
    21    18    19    1
