@<TRIPOS>MOLECULE
27124_ChemDiv_8013-2466
 22 23 0 0 0
SMALL
GASTEIGER
Energy = 0

@<TRIPOS>ATOM
      1 C          -0.4460    1.7380    0.0000 C.2     1  LIG1        0.2703
      2 C          -1.3080    1.2500    0.0000 C.ar    1  LIG1        0.0721
      3 C          -2.1830    1.7380    0.0000 C.ar    1  LIG1        0.0935
      4 N          -2.1830    2.7380    0.0000 N.pl3   1  LIG1       -0.1279
      5 C          -3.0460    1.2500    0.0000 C.ar    1  LIG1        0.0182
      6 C          -3.0460    0.2500    0.0000 C.ar    1  LIG1        0.0014
      7 C          -2.1830   -0.2580    0.0000 C.ar    1  LIG1        0.0002
      8 C          -1.3080    0.2500    0.0000 C.ar    1  LIG1        0.0059
      9 N           0.4290    1.2630    0.0000 N.am    1  LIG1       -0.1754
     10 C           0.4290    0.2670    0.0000 C.ar    1  LIG1        0.0738
     11 C          -0.4330   -0.2330    0.0000 C.ar    1  LIG1        0.0177
     12 C          -0.4330   -1.2380    0.0000 C.ar    1  LIG1        0.0153
     13 C          -1.2960   -1.7460    0.0000 C.2     1  LIG1        0.0729
     14 O          -2.1710   -1.2380    0.0000 O.co2   1  LIG1       -0.5446
     15 O          -1.2960   -2.7420    0.0000 O.co2   1  LIG1       -0.5446
     16 C           0.4380   -1.7380    0.0000 C.ar    1  LIG1        0.0023
     17 C           1.3040   -1.2290    0.0000 C.ar    1  LIG1        0.0153
     18 C           2.1790   -1.7250    0.0000 C.2     1  LIG1        0.0729
     19 O           3.0420   -1.2170    0.0000 O.co2   1  LIG1       -0.5446
     20 O           2.1790   -2.7210    0.0000 O.co2   1  LIG1       -0.5446
     21 C           1.2920   -0.2330    0.0000 C.ar    1  LIG1        0.0177
     22 O          -0.4460    2.7460    0.0000 O.2     1  LIG1       -0.2680
@<TRIPOS>BOND
     1     1     2    1
     2     1     9   am
     3     1    22    2
     4     2     3   ar
     5     2     8   ar
     6     3     4    1
     7     3     5   ar
     8     5     6   ar
     9     6     7   ar
    10     7     8   ar
    11     9    10    1
    12    10    11   ar
    13    10    21   ar
    14    11    12   ar
    15    12    13    1
    16    12    16   ar
    17    13    14   ar
    18    13    15   ar
    19    16    17   ar
    20    17    18    1
    21    17    21   ar
    22    18    19   ar
    23    18    20   ar
