@<TRIPOS>MOLECULE
27126_ChemDiv_8016-7032
 19 20 0 0 0
SMALL
GASTEIGER
Energy = 0

@<TRIPOS>ATOM
      1 C           2.1670   -0.2460    0.0000 C.ar    1  LIG1        0.0542
      2 C           1.2960    0.2580    0.0000 C.ar    1  LIG1        0.2119
      3 C           0.4330   -0.2460    0.0000 C.ar    1  LIG1        0.1125
      4 N          -0.4380    0.2580    0.0000 N.am    1  LIG1       -0.1722
      5 C          -1.3080   -0.2460    0.0000 C.2     1  LIG1        0.2691
      6 O          -1.3080   -1.2460    0.0000 O.2     1  LIG1       -0.2680
      7 C          -2.1710    0.2580    0.0000 C.ar    1  LIG1        0.0554
      8 C          -3.0330   -0.2460    0.0000 C.ar    1  LIG1        0.0046
      9 C          -3.9000    0.2580    0.0000 C.ar    1  LIG1        0.0001
     10 C          -3.9000    1.2580    0.0000 C.ar    1  LIG1        0.0000
     11 C          -3.0330    1.7500    0.0000 C.ar    1  LIG1        0.0001
     12 C          -2.1710    1.2580    0.0000 C.ar    1  LIG1        0.0046
     13 C           0.4330   -1.2460    0.0000 C.ar    1  LIG1        0.0199
     14 C           1.2960   -1.7460    0.0000 C.ar    1  LIG1        0.0016
     15 C           2.1670   -1.2460    0.0000 C.ar    1  LIG1        0.0044
     16 O           1.2960    1.2580    0.0000 O.3     1  LIG1       -0.2851
     17 C           3.0330    0.2580    0.0000 C.2     1  LIG1        0.0760
     18 O           3.8960   -0.2460    0.0000 O.co2   1  LIG1       -0.5445
     19 O           3.0330    1.2580    0.0000 O.co2   1  LIG1       -0.5445
@<TRIPOS>BOND
     1     1     2   ar
     2     1    15   ar
     3     1    17    1
     4     2     3   ar
     5     2    16    1
     6     3     4    1
     7     3    13   ar
     8     4     5   am
     9     5     6    2
    10     5     7    1
    11     7     8   ar
    12     7    12   ar
    13     8     9   ar
    14     9    10   ar
    15    10    11   ar
    16    11    12   ar
    17    13    14   ar
    18    14    15   ar
    19    17    18   ar
    20    17    19   ar
