@<TRIPOS>MOLECULE
27123_ChemDiv_4092-0990
 28 31 0 0 0
SMALL
GASTEIGER
Energy = 0

@<TRIPOS>ATOM
      1 N           2.4880    2.6790    0.0000 N.3     1  LIG1       -0.2640
      2 C           1.6420    3.1750    0.0000 C.3     1  LIG1        0.1358
      3 C           0.7630    2.6580    0.0000 C.3     1  LIG1        0.1568
      4 N           0.7630    1.6920    0.0000 N.4     1  LIG1        0.3829
      5 C          -0.1540    1.2000    0.0000 C.3     1  LIG1        0.1664
      6 C          -0.1830    0.2000    0.0000 C.ar    1  LIG1        0.0376
      7 C          -1.0540   -0.2920    0.0000 C.ar    1  LIG1        0.0415
      8 C          -1.0750   -1.2830    0.0000 C.ar    1  LIG1        0.1726
      9 O          -1.9750   -1.7540    0.0000 O.3     1  LIG1       -0.4676
     10 C          -2.0210   -2.7750    0.0000 C.3     1  LIG1        0.2321
     11 C          -2.9000   -3.2460    0.0000 C.ar    1  LIG1        0.0212
     12 C          -3.7500   -2.7290    0.0000 C.ar    1  LIG1       -0.0007
     13 C          -4.6290   -3.2040    0.0000 C.ar    1  LIG1       -0.0002
     14 C          -4.6420   -4.1920    0.0000 C.ar    1  LIG1       -0.0000
     15 C          -3.7920   -4.7080    0.0000 C.ar    1  LIG1       -0.0002
     16 C          -2.9210   -4.2380    0.0000 C.ar    1  LIG1       -0.0007
     17 C          -0.2290   -1.8080    0.0000 C.ar    1  LIG1        0.1724
     18 C           0.6420   -1.3380    0.0000 C.ar    1  LIG1        0.0399
     19 C           0.6710   -0.3170    0.0000 C.ar    1  LIG1        0.0048
     20 O          -0.2500   -2.8170    0.0000 O.3     1  LIG1       -0.4684
     21 C          -1.1000   -3.3210    0.0000 C.3     1  LIG1        0.2526
     22 C           1.6420    1.1710    0.0000 C.3     1  LIG1        0.1568
     23 C           2.4880    1.6710    0.0000 C.3     1  LIG1        0.1358
     24 C           3.3580    3.1750    0.0000 C.3     1  LIG1        0.0579
     25 C           3.0040    4.0920    0.0000 C.3     1  LIG1        0.0160
     26 C           3.7880    4.7080    0.0000 C.3     1  LIG1        0.0014
     27 C           4.6380    4.1670    0.0000 C.3     1  LIG1        0.0014
     28 C           4.3580    3.2250    0.0000 C.3     1  LIG1        0.0160
@<TRIPOS>BOND
     1     1     2    1
     2     1    23    1
     3     1    24    1
     4     2     3    1
     5     3     4    1
     6     4     5    1
     7     4    22    1
     8     5     6    1
     9     6     7   ar
    10     6    19   ar
    11     7     8   ar
    12     8     9    1
    13     8    17   ar
    14     9    10    1
    15    10    11    1
    16    11    12   ar
    17    11    16   ar
    18    12    13   ar
    19    13    14   ar
    20    14    15   ar
    21    15    16   ar
    22    17    18   ar
    23    17    20    1
    24    18    19   ar
    25    20    21    1
    26    22    23    1
    27    24    25    1
    28    24    28    1
    29    25    26    1
    30    26    27    1
    31    27    28    1
