@<TRIPOS>MOLECULE
27128_ChemDiv_8016-7035
 20 21 0 0 0
SMALL
GASTEIGER
Energy = 0

@<TRIPOS>ATOM
      1 C           2.5920   -0.2460    0.0000 C.ar    1  LIG1        0.0542
      2 C           1.7290    0.2580    0.0000 C.ar    1  LIG1        0.2119
      3 C           0.8630   -0.2460    0.0000 C.ar    1  LIG1        0.1125
      4 N          -0.0080    0.2580    0.0000 N.am    1  LIG1       -0.1722
      5 C          -0.8710   -0.2460    0.0000 C.2     1  LIG1        0.2691
      6 C          -1.7330    0.2580    0.0000 C.ar    1  LIG1        0.0554
      7 C          -2.6000   -0.2460    0.0000 C.ar    1  LIG1        0.0054
      8 C          -3.4710    0.2580    0.0000 C.ar    1  LIG1        0.0115
      9 C          -3.4710    1.2500    0.0000 C.ar    1  LIG1        0.0577
     10 C          -2.6000    1.7500    0.0000 C.ar    1  LIG1        0.0115
     11 C          -1.7330    1.2500    0.0000 C.ar    1  LIG1        0.0054
     12 CL         -4.3380    1.7500    0.0000 Cl      1  LIG1       -0.0822
     13 O          -0.8710   -1.2460    0.0000 O.2     1  LIG1       -0.2680
     14 C           0.8630   -1.2460    0.0000 C.ar    1  LIG1        0.0199
     15 C           1.7290   -1.7460    0.0000 C.ar    1  LIG1        0.0016
     16 C           2.5920   -1.2460    0.0000 C.ar    1  LIG1        0.0044
     17 O           1.7290    1.2580    0.0000 O.3     1  LIG1       -0.2851
     18 C           3.4630    0.2580    0.0000 C.2     1  LIG1        0.0760
     19 O           4.3330   -0.2460    0.0000 O.co2   1  LIG1       -0.5445
     20 O           3.4630    1.2580    0.0000 O.co2   1  LIG1       -0.5445
@<TRIPOS>BOND
     1     1     2   ar
     2     1    16   ar
     3     1    18    1
     4     2     3   ar
     5     2    17    1
     6     3     4    1
     7     3    14   ar
     8     4     5   am
     9     5     6    1
    10     5    13    2
    11     6     7   ar
    12     6    11   ar
    13     7     8   ar
    14     8     9   ar
    15     9    10   ar
    16     9    12    1
    17    10    11   ar
    18    14    15   ar
    19    15    16   ar
    20    18    19   ar
    21    18    20   ar
