@<TRIPOS>MOLECULE
27129_ChemDiv_6228-0937
 24 27 0 0 0
SMALL
GASTEIGER
Energy = 0

@<TRIPOS>ATOM
      1 C          -0.8380   -1.2380    0.0000 C.3     1  LIG1        0.1761
      2 C          -0.8380   -0.2420    0.0000 C.ar    1  LIG1        0.0485
      3 C          -1.6960    0.2500    0.0000 C.ar    1  LIG1        0.0428
      4 C          -1.7080    1.2290    0.0000 C.ar    1  LIG1        0.1723
      5 C          -0.8500    1.7380    0.0000 C.ar    1  LIG1        0.1727
      6 O          -0.8540    2.7290    0.0000 O.3     1  LIG1       -0.4676
      7 C           0.0000    3.2330    0.0000 C.3     1  LIG1        0.2321
      8 C           0.8670    2.7420    0.0000 C.ar    1  LIG1        0.0212
      9 C           0.8630    1.7540    0.0000 C.ar    1  LIG1       -0.0007
     10 C           1.7130    1.2540    0.0000 C.ar    1  LIG1       -0.0002
     11 C           2.5790    1.7420    0.0000 C.ar    1  LIG1       -0.0000
     12 C           2.5790    2.7420    0.0000 C.ar    1  LIG1       -0.0002
     13 C           1.7250    3.2330    0.0000 C.ar    1  LIG1       -0.0007
     14 C           0.0170    1.2460    0.0000 C.ar    1  LIG1        0.0400
     15 C           0.0170    0.2540    0.0000 C.ar    1  LIG1        0.0061
     16 O          -2.5710    1.7210    0.0000 O.3     1  LIG1       -0.4684
     17 C          -2.5830    2.7130    0.0000 C.3     1  LIG1        0.2526
     18 N          -1.7040   -1.7290    0.0000 N.3     1  LIG1       -0.2208
     19 C          -1.4500   -2.6830    0.0000 C.3     1  LIG1        0.1402
     20 C          -0.2420   -2.7000    0.0000 C.3     1  LIG1        0.1585
     21 N           0.0170   -1.7380    0.0000 N.4     1  LIG1        0.3891
     22 C           0.0170   -2.7290    0.0000 C.3     1  LIG1        0.1422
     23 C          -0.8380   -3.2290    0.0000 C.3     1  LIG1        0.0803
     24 C          -1.6960   -2.7290    0.0000 C.3     1  LIG1        0.0839
@<TRIPOS>BOND
     1     1     2    1
     2     1    18    1
     3     1    21    1
     4     2     3   ar
     5     2    15   ar
     6     3     4   ar
     7     4     5   ar
     8     4    16    1
     9     5     6    1
    10     5    14   ar
    11     6     7    1
    12     7     8    1
    13     8     9   ar
    14     8    13   ar
    15     9    10   ar
    16    10    11   ar
    17    11    12   ar
    18    12    13   ar
    19    14    15   ar
    20    16    17    1
    21    18    19    1
    22    18    24    1
    23    19    20    1
    24    20    21    1
    25    21    22    1
    26    22    23    1
    27    23    24    1
