@<TRIPOS>MOLECULE
27121_ChemDiv_3702-0790
 30 33 0 0 0
SMALL
GASTEIGER
Energy = 0

@<TRIPOS>ATOM
      1 C          -1.3960   -2.1000    0.0000 C.ar    1  LIG1        0.0311
      2 C          -2.2250   -2.5750    0.0000 C.ar    1  LIG1        0.1392
      3 C          -2.2210   -3.5460    0.0000 C.ar    1  LIG1        0.0766
      4 C          -1.3960   -4.0330    0.0000 C.ar    1  LIG1        0.1754
      5 C          -0.5380   -3.5630    0.0000 C.ar    1  LIG1        0.1723
      6 C          -0.5540   -2.5750    0.0000 C.ar    1  LIG1        0.0401
      7 O           0.3170   -4.0540    0.0000 O.3     1  LIG1       -0.4684
      8 C           1.1420   -3.5880    0.0000 C.3     1  LIG1        0.2526
      9 O          -1.3790   -5.0500    0.0000 O.3     1  LIG1       -0.4683
     10 C          -2.2250   -5.5580    0.0000 C.3     1  LIG1        0.2526
     11 O          -3.1170   -2.1250    0.0000 O.3     1  LIG1       -0.4716
     12 C          -3.1170   -1.1750    0.0000 C.3     1  LIG1        0.2525
     13 C          -1.3960   -1.0460    0.0000 C.3     1  LIG1        0.1026
     14 N          -0.4750   -0.5380    0.0000 N.3     1  LIG1       -0.2588
     15 C          -0.5210    0.5380    0.0000 C.3     1  LIG1        0.1361
     16 C           0.3830    1.0790    0.0000 C.3     1  LIG1        0.1568
     17 N           1.3330    0.5830    0.0000 N.4     1  LIG1        0.3829
     18 C           2.2290    1.1080    0.0000 C.3     1  LIG1        0.1663
     19 C           2.2290    2.1580    0.0000 C.ar    1  LIG1        0.0344
     20 C           1.3960    2.6380    0.0000 C.ar    1  LIG1        0.0014
     21 C           1.3960    3.6080    0.0000 C.ar    1  LIG1       -0.0001
     22 C           2.2290    4.0960    0.0000 C.ar    1  LIG1       -0.0000
     23 C           3.0830    3.6080    0.0000 C.ar    1  LIG1       -0.0001
     24 C           3.1130    2.6380    0.0000 C.ar    1  LIG1        0.0014
     25 C           2.2290    5.0750    0.0000 C.ar    1  LIG1       -0.0000
     26 C           1.3960    5.5580    0.0000 C.ar    1  LIG1       -0.0000
     27 C           0.5130    5.0500    0.0000 C.ar    1  LIG1       -0.0000
     28 C           0.5420    4.0960    0.0000 C.ar    1  LIG1       -0.0000
     29 C           1.3380   -0.4750    0.0000 C.3     1  LIG1        0.1568
     30 C           0.4500   -1.0210    0.0000 C.3     1  LIG1        0.1361
@<TRIPOS>BOND
     1     1     2   ar
     2     1     6   ar
     3     1    13    1
     4     2     3   ar
     5     2    11    1
     6     3     4   ar
     7     4     5   ar
     8     4     9    1
     9     5     6   ar
    10     5     7    1
    11     7     8    1
    12     9    10    1
    13    11    12    1
    14    13    14    1
    15    14    15    1
    16    14    30    1
    17    15    16    1
    18    16    17    1
    19    17    18    1
    20    17    29    1
    21    18    19    1
    22    19    20   ar
    23    19    24   ar
    24    20    21   ar
    25    21    22   ar
    26    21    28   ar
    27    22    23   ar
    28    22    25   ar
    29    23    24   ar
    30    25    26   ar
    31    26    27   ar
    32    27    28   ar
    33    29    30    1
