@<TRIPOS>MOLECULE
27125_ChemDiv_4262-0030
 31 34 0 0 0
SMALL
GASTEIGER
Energy = 0

@<TRIPOS>ATOM
      1 N           0.0380   -3.5170    0.0000 N.3     1  LIG1       -0.2589
      2 C          -0.8500   -4.0250    0.0000 C.3     1  LIG1        0.0996
      3 C          -1.7170   -3.5170    0.0000 C.ar    1  LIG1       -0.0029
      4 C          -1.7170   -2.5250    0.0000 C.ar    1  LIG1        0.0371
      5 C          -2.5630   -2.0380    0.0000 C.ar    1  LIG1        0.1721
      6 C          -3.4580   -2.5420    0.0000 C.ar    1  LIG1        0.1724
      7 C          -3.4210   -3.5420    0.0000 C.ar    1  LIG1        0.0398
      8 C          -2.5630   -4.0250    0.0000 C.ar    1  LIG1        0.0004
      9 O          -4.3670   -2.0880    0.0000 O.3     1  LIG1       -0.4684
     10 C          -5.2130   -2.6500    0.0000 C.3     1  LIG1        0.2526
     11 O          -2.5630   -1.0500    0.0000 O.3     1  LIG1       -0.4684
     12 C          -1.6960   -0.5250    0.0000 C.3     1  LIG1        0.2526
     13 C           0.9000   -4.0040    0.0000 C.3     1  LIG1        0.1361
     14 C           1.7670   -3.5170    0.0000 C.3     1  LIG1        0.1568
     15 N           1.7670   -2.4880    0.0000 N.4     1  LIG1        0.3829
     16 C           2.6330   -1.9630    0.0000 C.3     1  LIG1        0.1664
     17 C           2.6130   -0.9630    0.0000 C.ar    1  LIG1        0.0374
     18 C           3.4500   -0.4830    0.0000 C.ar    1  LIG1        0.0389
     19 C           3.4500    0.5080    0.0000 C.ar    1  LIG1        0.1452
     20 O           4.3380    1.0170    0.0000 O.3     1  LIG1       -0.4535
     21 C           4.3380    2.0460    0.0000 C.ar    1  LIG1        0.1453
     22 C           3.4750    2.5330    0.0000 C.ar    1  LIG1        0.0375
     23 C           3.4500    3.5080    0.0000 C.ar    1  LIG1        0.0031
     24 C           4.3380    4.0250    0.0000 C.ar    1  LIG1        0.0002
     25 C           5.2080    3.5210    0.0000 C.ar    1  LIG1        0.0031
     26 C           5.2080    2.5330    0.0000 C.ar    1  LIG1        0.0375
     27 C           2.5580    0.9960    0.0000 C.ar    1  LIG1        0.0375
     28 C           1.7250    0.4880    0.0000 C.ar    1  LIG1        0.0030
     29 C           1.7460   -0.4830    0.0000 C.ar    1  LIG1        0.0016
     30 C           0.9000   -2.0080    0.0000 C.3     1  LIG1        0.1568
     31 C           0.0380   -2.5250    0.0000 C.3     1  LIG1        0.1361
@<TRIPOS>BOND
     1     1     2    1
     2     1    13    1
     3     1    31    1
     4     2     3    1
     5     3     4   ar
     6     3     8   ar
     7     4     5   ar
     8     5     6   ar
     9     5    11    1
    10     6     7   ar
    11     6     9    1
    12     7     8   ar
    13     9    10    1
    14    11    12    1
    15    13    14    1
    16    14    15    1
    17    15    16    1
    18    15    30    1
    19    16    17    1
    20    17    18   ar
    21    17    29   ar
    22    18    19   ar
    23    19    20    1
    24    19    27   ar
    25    20    21    1
    26    21    22   ar
    27    21    26   ar
    28    22    23   ar
    29    23    24   ar
    30    24    25   ar
    31    25    26   ar
    32    27    28   ar
    33    28    29   ar
    34    30    31    1
