@<TRIPOS>MOLECULE
27122_ChemDiv_8003-9394
 32 34 0 0 0
SMALL
GASTEIGER
Energy = 0

@<TRIPOS>ATOM
      1 C           2.7000   -2.7130    0.0000 C.2     1  LIG1        0.2690
      2 N           3.5790   -2.2210    0.0000 N.am    1  LIG1       -0.1754
      3 C           3.5790   -1.2080    0.0000 C.ar    1  LIG1        0.0738
      4 C           2.6710   -0.6790    0.0000 C.ar    1  LIG1        0.0179
      5 C           2.6710    0.3040    0.0000 C.ar    1  LIG1        0.0179
      6 C           3.5790    0.8040    0.0000 C.ar    1  LIG1        0.0734
      7 N           3.6290    1.7830    0.0000 N.am    1  LIG1       -0.1792
      8 C           4.5080    2.2250    0.0000 C.2     1  LIG1        0.2461
      9 O           4.5080    3.2210    0.0000 O.2     1  LIG1       -0.2730
     10 C           5.3750    1.7130    0.0000 C.3     1  LIG1        0.0968
     11 C           4.4250    0.3040    0.0000 C.ar    1  LIG1        0.0179
     12 C           4.4250   -0.7080    0.0000 C.ar    1  LIG1        0.0179
     13 C           1.8210   -2.2210    0.0000 C.ar    1  LIG1        0.0554
     14 C           1.8210   -1.2080    0.0000 C.ar    1  LIG1        0.0047
     15 C           0.9670   -0.7080    0.0000 C.ar    1  LIG1        0.0047
     16 C           0.0920   -1.2080    0.0000 C.ar    1  LIG1        0.0554
     17 C          -0.8130   -0.7380    0.0000 C.2     1  LIG1        0.2690
     18 N          -0.8710    0.2790    0.0000 N.am    1  LIG1       -0.1754
     19 C          -1.7420    0.7710    0.0000 C.ar    1  LIG1        0.0738
     20 C          -2.5920    0.2500    0.0000 C.ar    1  LIG1        0.0179
     21 C          -3.4420    0.7420    0.0000 C.ar    1  LIG1        0.0179
     22 C          -3.5000    1.6960    0.0000 C.ar    1  LIG1        0.0734
     23 N          -4.3920    2.1250    0.0000 N.am    1  LIG1       -0.1792
     24 C          -4.4580    3.1000    0.0000 C.2     1  LIG1        0.2461
     25 O          -5.3790    3.4960    0.0000 O.2     1  LIG1       -0.2730
     26 C          -3.6460    3.7040    0.0000 C.3     1  LIG1        0.0968
     27 C          -2.6420    2.2250    0.0000 C.ar    1  LIG1        0.0179
     28 C          -1.7670    1.7540    0.0000 C.ar    1  LIG1        0.0179
     29 O          -1.6830   -1.2880    0.0000 O.2     1  LIG1       -0.2680
     30 C           0.0920   -2.1920    0.0000 C.ar    1  LIG1        0.0047
     31 C           0.9670   -2.7130    0.0000 C.ar    1  LIG1        0.0047
     32 O           2.7000   -3.7000    0.0000 O.2     1  LIG1       -0.2680
@<TRIPOS>BOND
     1     1     2   am
     2     1    13    1
     3     1    32    2
     4     2     3    1
     5     3     4   ar
     6     3    12   ar
     7     4     5   ar
     8     5     6   ar
     9     6     7    1
    10     6    11   ar
    11     7     8   am
    12     8     9    2
    13     8    10    1
    14    11    12   ar
    15    13    14   ar
    16    13    31   ar
    17    14    15   ar
    18    15    16   ar
    19    16    17    1
    20    16    30   ar
    21    17    18   am
    22    17    29    2
    23    18    19    1
    24    19    20   ar
    25    19    28   ar
    26    20    21   ar
    27    21    22   ar
    28    22    23    1
    29    22    27   ar
    30    23    24   am
    31    24    25    2
    32    24    26    1
    33    27    28   ar
    34    30    31   ar
