@<TRIPOS>MOLECULE
27134_ChemDiv_3260-0122
 21 23 0 0 0
SMALL
GASTEIGER
Energy = 0

@<TRIPOS>ATOM
      1 C          -0.3500    1.2210    0.0000 C.ar    1  LIG1        0.2178
      2 N          -0.9290    0.4170    0.0000 N.ar    1  LIG1       -0.2942
      3 C          -1.8920    0.7170    0.0000 C.ar    1  LIG1        0.0802
      4 C          -1.8960    1.7040    0.0000 C.ar    1  LIG1        0.1000
      5 N          -0.9460    2.0330    0.0000 N.ar    1  LIG1       -0.2124
      6 C          -2.7580    2.2130    0.0000 C.ar    1  LIG1        0.0207
      7 C          -3.6290    1.7040    0.0000 C.ar    1  LIG1        0.0016
      8 C          -3.6290    0.7040    0.0000 C.ar    1  LIG1        0.0016
      9 C          -2.7580    0.2040    0.0000 C.ar    1  LIG1        0.0188
     10 C          -0.6250   -0.5380    0.0000 C.3     1  LIG1        0.1355
     11 C          -1.2880   -1.2790    0.0000 C.ar    1  LIG1        0.0005
     12 C          -2.2580   -1.0750    0.0000 C.ar    1  LIG1       -0.0024
     13 C          -2.9250   -1.8210    0.0000 C.ar    1  LIG1       -0.0003
     14 C          -2.6170   -2.7710    0.0000 C.ar    1  LIG1       -0.0000
     15 C          -1.6330   -2.9710    0.0000 C.ar    1  LIG1       -0.0003
     16 C          -0.9710   -2.2250    0.0000 C.ar    1  LIG1       -0.0024
     17 N           0.6420    1.2210    0.0000 N.pl3   1  LIG1       -0.2052
     18 C           1.1330    2.0920    0.0000 C.3     1  LIG1        0.1180
     19 C           2.1290    2.0920    0.0000 C.3     1  LIG1        0.0590
     20 C           2.6250    2.9580    0.0000 C.3     1  LIG1        0.1839
     21 O           3.6250    2.9750    0.0000 O.3     1  LIG1       -0.2204
@<TRIPOS>BOND
     1     1     2   ar
     2     1     5   ar
     3     1    17    1
     4     2     3   ar
     5     2    10    1
     6     3     4   ar
     7     3     9   ar
     8     4     5   ar
     9     4     6   ar
    10     6     7   ar
    11     7     8   ar
    12     8     9   ar
    13    10    11    1
    14    11    12   ar
    15    11    16   ar
    16    12    13   ar
    17    13    14   ar
    18    14    15   ar
    19    15    16   ar
    20    17    18    1
    21    18    19    1
    22    19    20    1
    23    20    21    1
