@<TRIPOS>MOLECULE
27139_ChemDiv_5607-0059
 24 26 0 0 0
SMALL
GASTEIGER
Energy = 0

@<TRIPOS>ATOM
      1 N           1.3500    1.9000    0.0000 N.4     1  LIG1        0.3769
      2 C           0.4710    1.3880    0.0000 C.3     1  LIG1        0.0906
      3 C           0.4710    0.3540    0.0000 C.3     1  LIG1        0.0782
      4 C          -0.4040   -0.1420    0.0000 C.3     1  LIG1        0.0994
      5 N          -1.2880    0.3540    0.0000 N.am    1  LIG1       -0.2761
      6 C          -2.1750   -0.1460    0.0000 C.2     1  LIG1        0.2702
      7 C          -2.1290   -0.7960    0.0000 C.3     1  LIG1        0.2896
      8 O          -3.0040   -1.3170    0.0000 O.3     1  LIG1       -0.4656
      9 C          -2.9960   -2.2920    0.0000 C.ar    1  LIG1        0.1393
     10 C          -2.1130   -2.8040    0.0000 C.ar    1  LIG1        0.0369
     11 C          -2.1290   -3.8000    0.0000 C.ar    1  LIG1        0.0031
     12 C          -2.9960   -4.3080    0.0000 C.ar    1  LIG1        0.0002
     13 C          -3.8630   -3.8130    0.0000 C.ar    1  LIG1        0.0031
     14 C          -3.8960   -2.7790    0.0000 C.ar    1  LIG1        0.0369
     15 O          -3.3080    0.5210    0.0000 O.2     1  LIG1       -0.2708
     16 C          -1.2880    1.3880    0.0000 C.3     1  LIG1        0.0994
     17 C          -0.4040    1.9000    0.0000 C.3     1  LIG1        0.0782
     18 C           1.3500    2.8750    0.0000 C.3     1  LIG1        0.1682
     19 C           2.2040    3.3710    0.0000 C.3     1  LIG1        0.1719
     20 O           3.0500    2.8750    0.0000 O.3     1  LIG1       -0.3466
     21 C           3.0500    1.9000    0.0000 C.3     1  LIG1        0.1719
     22 C           2.2040    1.4000    0.0000 C.3     1  LIG1        0.1682
     23 C           3.8920    1.3880    0.0000 C.3     1  LIG1        0.0385
     24 C           2.2040    4.3080    0.0000 C.3     1  LIG1        0.0385
@<TRIPOS>BOND
     1     1     2    1
     2     1    18    1
     3     1    22    1
     4     2     3    1
     5     2    17    1
     6     3     4    1
     7     4     5    1
     8     5     6   am
     9     5    16    1
    10     6     7    1
    11     6    15    2
    12     7     8    1
    13     8     9    1
    14     9    10   ar
    15     9    14   ar
    16    10    11   ar
    17    11    12   ar
    18    12    13   ar
    19    13    14   ar
    20    16    17    1
    21    18    19    1
    22    19    20    1
    23    19    24    1
    24    20    21    1
    25    21    22    1
    26    21    23    1
