@<TRIPOS>MOLECULE
27132_ChemDiv_1770-0029
 19 21 0 0 0
SMALL
GASTEIGER
Energy = 0

@<TRIPOS>ATOM
      1 N           0.2250   -0.1580    0.0000 N.ar    1  LIG1       -0.3106
      2 C           0.8080    0.6580    0.0000 C.ar    1  LIG1        0.1210
      3 N           0.2040    1.4880    0.0000 N.ar    1  LIG1       -0.2308
      4 C          -0.7380    1.1500    0.0000 C.ar    1  LIG1        0.1013
      5 C          -0.7380    0.1500    0.0000 C.ar    1  LIG1        0.0791
      6 C          -1.5880   -0.3380    0.0000 C.ar    1  LIG1        0.0219
      7 C          -2.4710    0.1500    0.0000 C.ar    1  LIG1        0.0385
      8 C          -2.4710    1.1500    0.0000 C.ar    1  LIG1        0.1403
      9 C          -1.5880    1.6630    0.0000 C.ar    1  LIG1        0.0575
     10 O          -3.3420    1.6290    0.0000 O.3     1  LIG1       -0.4714
     11 C          -3.3540    2.6460    0.0000 C.3     1  LIG1        0.2525
     12 C           1.7960    0.6580    0.0000 C.3     1  LIG1        0.0719
     13 C           0.4540   -1.1330    0.0000 C.3     1  LIG1        0.1339
     14 C           1.4130   -1.4130    0.0000 C.ar    1  LIG1        0.0004
     15 C           1.6710   -2.3750    0.0000 C.ar    1  LIG1       -0.0024
     16 C           2.6290   -2.6420    0.0000 C.ar    1  LIG1       -0.0003
     17 C           3.3500   -1.9460    0.0000 C.ar    1  LIG1       -0.0000
     18 C           3.0830   -0.9920    0.0000 C.ar    1  LIG1       -0.0003
     19 C           2.1380   -0.7290    0.0000 C.ar    1  LIG1       -0.0024
@<TRIPOS>BOND
     1     1     2   ar
     2     1     5   ar
     3     1    13    1
     4     2     3   ar
     5     2    12    1
     6     3     4   ar
     7     4     5   ar
     8     4     9   ar
     9     5     6   ar
    10     6     7   ar
    11     7     8   ar
    12     8     9   ar
    13     8    10    1
    14    10    11    1
    15    13    14    1
    16    14    15   ar
    17    14    19   ar
    18    15    16   ar
    19    16    17   ar
    20    17    18   ar
    21    18    19   ar
