@<TRIPOS>MOLECULE
27135_ChemDiv_7465-0082
 19 21 0 0 0
SMALL
GASTEIGER
Energy = 0

@<TRIPOS>ATOM
      1 N           2.6000    1.9920    0.0000 N.4     1  LIG1        0.3783
      2 C           1.6330    1.7460    0.0000 C.3     1  LIG1        0.1543
      3 C           1.5460    0.7130    0.0000 C.3     1  LIG1        0.1124
      4 N           0.6960    0.2250    0.0000 N.3     1  LIG1       -0.2900
      5 C          -0.1630    0.7130    0.0000 C.3     1  LIG1        0.0958
      6 C          -1.1210    0.4540    0.0000 C.ar    1  LIG1       -0.0034
      7 C          -1.3710   -0.5040    0.0000 C.ar    1  LIG1        0.0340
      8 C          -2.3330   -0.7670    0.0000 C.ar    1  LIG1        0.1385
      9 O          -2.5830   -1.7250    0.0000 O.3     1  LIG1       -0.4714
     10 C          -3.5420   -1.9880    0.0000 C.3     1  LIG1        0.2525
     11 C          -3.0330   -0.0710    0.0000 C.ar    1  LIG1        0.0369
     12 C          -2.7790    0.8830    0.0000 C.ar    1  LIG1        0.0028
     13 C          -1.8210    1.1420    0.0000 C.ar    1  LIG1       -0.0027
     14 C           2.4420    0.2960    0.0000 C.3     1  LIG1        0.0322
     15 C           1.7130    0.1000    0.0000 C.3     1  LIG1        0.0645
     16 C           1.8040    1.1960    0.0000 C.3     1  LIG1        0.1387
     17 C           3.4380    0.4460    0.0000 C.3     1  LIG1        0.0645
     18 C           3.5380    1.5040    0.0000 C.3     1  LIG1        0.1387
     19 H           0.6960   -0.7670    0.0000 H       1  LIG1        0.1237
@<TRIPOS>BOND
     1     1     2    1
     2     1    16    1
     3     1    18    1
     4     2     3    1
     5     3     4    1
     6     3    14    1
     7     4     5    1
     8     4    19    1
     9     5     6    1
    10     6     7   ar
    11     6    13   ar
    12     7     8   ar
    13     8     9    1
    14     8    11   ar
    15     9    10    1
    16    11    12   ar
    17    12    13   ar
    18    14    15    1
    19    14    17    1
    20    15    16    1
    21    17    18    1
