@<TRIPOS>MOLECULE
27131_ChemDiv_6228-0942
 24 27 0 0 0
SMALL
GASTEIGER
Energy = 0

@<TRIPOS>ATOM
      1 C          -2.1460    0.0000    0.0000 C.ar    1  LIG1        0.0822
      2 C          -2.1460   -1.0000    0.0000 C.3     1  LIG1        0.1791
      3 N          -3.0080   -1.4880    0.0000 N.3     1  LIG1       -0.2207
      4 C          -2.7540   -2.4460    0.0000 C.3     1  LIG1        0.1402
      5 C          -1.5540   -2.4500    0.0000 C.3     1  LIG1        0.1585
      6 N          -1.2830   -1.4960    0.0000 N.4     1  LIG1        0.3892
      7 C          -1.2830   -2.4920    0.0000 C.3     1  LIG1        0.1422
      8 C          -2.1460   -2.9790    0.0000 C.3     1  LIG1        0.0803
      9 C          -3.0000   -2.4920    0.0000 C.3     1  LIG1        0.0839
     10 C          -1.2830    0.5000    0.0000 C.ar    1  LIG1        0.1755
     11 O          -0.4210    0.0080    0.0000 O.3     1  LIG1       -0.4677
     12 C           0.4330    0.5130    0.0000 C.3     1  LIG1        0.2321
     13 C           1.2920    0.0080    0.0000 C.ar    1  LIG1        0.0212
     14 C           1.2880   -0.9830    0.0000 C.ar    1  LIG1       -0.0007
     15 C           2.1420   -1.4830    0.0000 C.ar    1  LIG1       -0.0002
     16 C           3.0080   -0.9920    0.0000 C.ar    1  LIG1       -0.0000
     17 C           3.0080    0.0080    0.0000 C.ar    1  LIG1       -0.0002
     18 C           2.1500    0.5000    0.0000 C.ar    1  LIG1       -0.0007
     19 C          -1.3000    1.4830    0.0000 C.ar    1  LIG1        0.1723
     20 O          -0.4330    1.9880    0.0000 O.3     1  LIG1       -0.4684
     21 C          -0.4380    2.9830    0.0000 C.3     1  LIG1        0.2526
     22 C          -2.1540    1.9790    0.0000 C.ar    1  LIG1        0.0400
     23 C          -3.0130    1.4710    0.0000 C.ar    1  LIG1        0.0032
     24 C          -3.0000    0.4830    0.0000 C.ar    1  LIG1        0.0060
@<TRIPOS>BOND
     1     1     2    1
     2     1    10   ar
     3     1    24   ar
     4     2     3    1
     5     2     6    1
     6     3     4    1
     7     3     9    1
     8     4     5    1
     9     5     6    1
    10     6     7    1
    11     7     8    1
    12     8     9    1
    13    10    11    1
    14    10    19   ar
    15    11    12    1
    16    12    13    1
    17    13    14   ar
    18    13    18   ar
    19    14    15   ar
    20    15    16   ar
    21    16    17   ar
    22    17    18   ar
    23    19    20    1
    24    19    22   ar
    25    20    21    1
    26    22    23   ar
    27    23    24   ar
