@<TRIPOS>MOLECULE
27133_ChemDiv_7465-0081
 21 23 0 0 0
SMALL
GASTEIGER
Energy = 0

@<TRIPOS>ATOM
      1 N           2.6000    2.0830    0.0000 N.4     1  LIG1        0.3783
      2 C           1.6380    1.8250    0.0000 C.3     1  LIG1        0.1543
      3 C           1.5460    0.7880    0.0000 C.3     1  LIG1        0.1124
      4 N           0.6960    0.3040    0.0000 N.3     1  LIG1       -0.2900
      5 C          -0.1630    0.7880    0.0000 C.3     1  LIG1        0.0989
      6 C          -1.1210    0.5380    0.0000 C.ar    1  LIG1        0.0307
      7 C          -1.3710   -0.4250    0.0000 C.ar    1  LIG1        0.1697
      8 C          -2.3330   -0.6790    0.0000 C.ar    1  LIG1        0.1721
      9 O          -2.5830   -1.6380    0.0000 O.3     1  LIG1       -0.4684
     10 C          -3.5420   -1.9000    0.0000 C.3     1  LIG1        0.2526
     11 C          -3.0330    0.0210    0.0000 C.ar    1  LIG1        0.0400
     12 C          -2.7790    0.9750    0.0000 C.ar    1  LIG1        0.0030
     13 C          -1.8210    1.2290    0.0000 C.ar    1  LIG1        0.0003
     14 O          -0.6630   -1.1130    0.0000 O.3     1  LIG1       -0.4686
     15 C          -0.9170   -2.0790    0.0000 C.3     1  LIG1        0.2526
     16 C           2.4420    0.3790    0.0000 C.3     1  LIG1        0.0322
     17 C           3.4330    0.5330    0.0000 C.3     1  LIG1        0.0645
     18 C           3.5380    1.5830    0.0000 C.3     1  LIG1        0.1387
     19 C           1.7080    0.1830    0.0000 C.3     1  LIG1        0.0645
     20 C           1.8040    1.2830    0.0000 C.3     1  LIG1        0.1387
     21 H           0.6960   -0.6880    0.0000 H       1  LIG1        0.1237
@<TRIPOS>BOND
     1     1     2    1
     2     1    18    1
     3     1    20    1
     4     2     3    1
     5     3     4    1
     6     3    16    1
     7     4     5    1
     8     4    21    1
     9     5     6    1
    10     6     7   ar
    11     6    13   ar
    12     7     8   ar
    13     7    14    1
    14     8     9    1
    15     8    11   ar
    16     9    10    1
    17    11    12   ar
    18    12    13   ar
    19    14    15    1
    20    16    17    1
    21    16    19    1
    22    17    18    1
    23    19    20    1
