@<TRIPOS>MOLECULE
27137_ChemDiv_5269-0426
 20 22 0 0 0
SMALL
GASTEIGER
Energy = 0

@<TRIPOS>ATOM
      1 N           4.4210   -0.2580    0.0000 N.4     1  LIG1        0.3801
      2 C           3.5540    0.2500    0.0000 C.3     1  LIG1        0.1827
      3 C           2.6500   -0.2580    0.0000 C.3     1  LIG1        0.2254
      4 O           1.7790    0.2670    0.0000 O.3     1  LIG1       -0.4435
      5 C           0.8920   -0.2580    0.0000 C.2     1  LIG1        0.3621
      6 O           0.8750   -1.2790    0.0000 O.2     1  LIG1       -0.2459
      7 C           0.0080    0.2670    0.0000 C.3     1  LIG1        0.3141
      8 O          -0.8790   -0.2460    0.0000 O.3     1  LIG1       -0.4638
      9 C          -1.7670    0.2670    0.0000 C.ar    1  LIG1        0.1395
     10 C          -1.7670    1.2880    0.0000 C.ar    1  LIG1        0.0392
     11 C          -2.6540    1.8000    0.0000 C.ar    1  LIG1        0.0327
     12 C          -3.5420    1.2880    0.0000 C.ar    1  LIG1        0.1403
     13 F          -4.4250    1.8000    0.0000 F       1  LIG1       -0.2042
     14 C          -3.5420    0.2670    0.0000 C.ar    1  LIG1        0.0327
     15 C          -2.6540   -0.2460    0.0000 C.ar    1  LIG1        0.0392
     16 C           2.6500   -1.2790    0.0000 C.3     1  LIG1        0.0581
     17 C           3.5380   -1.7960    0.0000 C.3     1  LIG1        0.0667
     18 C           4.4210   -1.2960    0.0000 C.3     1  LIG1        0.1388
     19 C           3.4830   -1.0630    0.0000 C.3     1  LIG1        0.0667
     20 C           3.5630   -0.2460    0.0000 C.3     1  LIG1        0.1388
@<TRIPOS>BOND
     1     1     2    1
     2     1    18    1
     3     1    20    1
     4     2     3    1
     5     3     4    1
     6     3    16    1
     7     4     5    1
     8     5     6    2
     9     5     7    1
    10     7     8    1
    11     8     9    1
    12     9    10   ar
    13     9    15   ar
    14    10    11   ar
    15    11    12   ar
    16    12    13    1
    17    12    14   ar
    18    14    15   ar
    19    16    17    1
    20    16    19    1
    21    17    18    1
    22    19    20    1
