@<TRIPOS>MOLECULE
27143_ChemDiv_5607-0078
 25 27 0 0 0
SMALL
GASTEIGER
Energy = 0

@<TRIPOS>ATOM
      1 N           1.4750    2.8460    0.0000 N.4     1  LIG1        0.3769
      2 C           0.6460    2.3710    0.0000 C.3     1  LIG1        0.0906
      3 C           0.6460    1.4000    0.0000 C.3     1  LIG1        0.0782
      4 C          -0.1750    0.9330    0.0000 C.3     1  LIG1        0.0994
      5 N          -1.0000    1.4000    0.0000 N.am    1  LIG1       -0.2761
      6 C          -1.8420    0.9330    0.0000 C.2     1  LIG1        0.2702
      7 C          -1.7960   -0.1670    0.0000 C.3     1  LIG1        0.2896
      8 O          -2.6960   -0.7330    0.0000 O.3     1  LIG1       -0.4656
      9 C          -2.7830   -1.8000    0.0000 C.ar    1  LIG1        0.1393
     10 C          -1.8580   -2.4330    0.0000 C.ar    1  LIG1        0.0378
     11 C          -1.9670   -3.5380    0.0000 C.ar    1  LIG1        0.0145
     12 C          -2.9790   -4.0250    0.0000 C.ar    1  LIG1        0.0579
     13 CL         -3.0920   -5.1080    0.0000 Cl      1  LIG1       -0.0822
     14 C          -3.8580   -3.4080    0.0000 C.ar    1  LIG1        0.0145
     15 C          -3.7540   -2.3170    0.0000 C.ar    1  LIG1        0.0378
     16 O          -2.7670    1.4750    0.0000 O.2     1  LIG1       -0.2708
     17 C          -1.0000    2.3710    0.0000 C.3     1  LIG1        0.0994
     18 C          -0.1750    2.8540    0.0000 C.3     1  LIG1        0.0782
     19 C           1.4750    3.7630    0.0000 C.3     1  LIG1        0.1682
     20 C           2.2750    4.2210    0.0000 C.3     1  LIG1        0.1719
     21 O           3.0630    3.7630    0.0000 O.3     1  LIG1       -0.3466
     22 C           3.0630    2.8460    0.0000 C.3     1  LIG1        0.1719
     23 C           2.2750    2.3880    0.0000 C.3     1  LIG1        0.1682
     24 C           3.8540    2.3710    0.0000 C.3     1  LIG1        0.0385
     25 C           2.2750    5.1080    0.0000 C.3     1  LIG1        0.0385
@<TRIPOS>BOND
     1     1     2    1
     2     1    19    1
     3     1    23    1
     4     2     3    1
     5     2    18    1
     6     3     4    1
     7     4     5    1
     8     5     6   am
     9     5    17    1
    10     6     7    1
    11     6    16    2
    12     7     8    1
    13     8     9    1
    14     9    10   ar
    15     9    15   ar
    16    10    11   ar
    17    11    12   ar
    18    12    13    1
    19    12    14   ar
    20    14    15   ar
    21    17    18    1
    22    19    20    1
    23    20    21    1
    24    20    25    1
    25    21    22    1
    26    22    23    1
    27    22    24    1
