@<TRIPOS>MOLECULE
27141_ChemDiv_5607-0070
 24 26 0 0 0
SMALL
GASTEIGER
Energy = 0

@<TRIPOS>ATOM
      1 N          -0.8210    1.7880    0.0000 N.am    1  LIG1       -0.2761
      2 C          -1.6580    1.3210    0.0000 C.2     1  LIG1        0.2702
      3 C          -1.6170    0.2250    0.0000 C.3     1  LIG1        0.2896
      4 O          -2.5130   -0.3380    0.0000 O.3     1  LIG1       -0.4656
      5 C          -2.6000   -1.4000    0.0000 C.ar    1  LIG1        0.1393
      6 C          -1.6790   -2.0330    0.0000 C.ar    1  LIG1        0.0366
      7 C          -1.7880   -3.1290    0.0000 C.ar    1  LIG1       -0.0011
      8 C          -2.7960   -3.6170    0.0000 C.ar    1  LIG1       -0.0217
      9 C          -3.6710   -3.0040    0.0000 C.ar    1  LIG1       -0.0011
     10 C          -3.5670   -1.9130    0.0000 C.ar    1  LIG1        0.0366
     11 C          -2.9080   -4.6960    0.0000 C.3     1  LIG1        0.0310
     12 O          -2.5830    1.8630    0.0000 O.2     1  LIG1       -0.2708
     13 C          -0.8210    2.7580    0.0000 C.3     1  LIG1        0.0994
     14 C           0.0000    3.2380    0.0000 C.3     1  LIG1        0.0782
     15 C           0.8170    2.7580    0.0000 C.3     1  LIG1        0.0903
     16 N           1.6420    3.2330    0.0000 N.4     1  LIG1        0.3730
     17 C           1.6420    4.1420    0.0000 C.3     1  LIG1        0.1383
     18 C           2.3790    4.6960    0.0000 C.3     1  LIG1        0.0627
     19 C           3.2420    4.4880    0.0000 C.3     1  LIG1        0.0063
     20 C           3.6670    3.6580    0.0000 C.3     1  LIG1        0.0063
     21 C           3.2040    2.8460    0.0000 C.3     1  LIG1        0.0627
     22 C           2.3330    2.6500    0.0000 C.3     1  LIG1        0.1383
     23 C           0.8170    1.7880    0.0000 C.3     1  LIG1        0.0782
     24 C           0.0000    1.3250    0.0000 C.3     1  LIG1        0.0994
@<TRIPOS>BOND
     1     1     2   am
     2     1    13    1
     3     1    24    1
     4     2     3    1
     5     2    12    2
     6     3     4    1
     7     4     5    1
     8     5     6   ar
     9     5    10   ar
    10     6     7   ar
    11     7     8   ar
    12     8     9   ar
    13     8    11    1
    14     9    10   ar
    15    13    14    1
    16    14    15    1
    17    15    16    1
    18    15    23    1
    19    16    17    1
    20    16    22    1
    21    17    18    1
    22    18    19    1
    23    19    20    1
    24    20    21    1
    25    21    22    1
    26    23    24    1
