@<TRIPOS>MOLECULE
27147_ChemDiv_5631-0358
 22 23 0 0 0
SMALL
GASTEIGER
Energy = 0

@<TRIPOS>ATOM
      1 C           0.2330   -1.0210    0.0000 C.2     1  LIG1        0.2619
      2 N           1.1330   -0.5080    0.0000 N.am    1  LIG1       -0.2767
      3 C           1.1330    0.5290    0.0000 C.3     1  LIG1        0.0940
      4 C           2.0420    1.0460    0.0000 C.3     1  LIG1        0.0307
      5 C           2.9420    0.5130    0.0000 C.3     1  LIG1        0.0833
      6 C           3.8500    1.0250    0.0000 C.2     1  LIG1        0.2604
      7 O           3.8630    2.0710    0.0000 O.2     1  LIG1       -0.2717
      8 N           4.7500    0.5080    0.0000 N.am    1  LIG1       -0.0878
      9 C           2.9420   -0.5250    0.0000 C.3     1  LIG1        0.0307
     10 C           2.0210   -1.0250    0.0000 C.3     1  LIG1        0.0940
     11 C          -0.5920   -0.5500    0.0000 C.3     1  LIG1        0.2009
     12 O          -1.4250   -1.0210    0.0000 O.3     1  LIG1       -0.4739
     13 C          -2.2500   -0.5330    0.0000 C.ar    1  LIG1        0.1389
     14 C          -2.2460    0.4330    0.0000 C.ar    1  LIG1        0.0378
     15 C          -3.0750    0.9210    0.0000 C.ar    1  LIG1        0.0145
     16 C          -3.9170    0.4500    0.0000 C.ar    1  LIG1        0.0579
     17 CL         -4.7540    0.9420    0.0000 Cl      1  LIG1       -0.0822
     18 C          -3.9170   -0.5250    0.0000 C.ar    1  LIG1        0.0145
     19 C          -3.0920   -0.9960    0.0000 C.ar    1  LIG1        0.0378
     20 C          -0.5790    0.4210    0.0000 C.3     1  LIG1        0.0531
     21 C          -0.8460   -1.4790    0.0000 C.3     1  LIG1        0.0531
     22 O           0.2290   -2.0670    0.0000 O.2     1  LIG1       -0.2711
@<TRIPOS>BOND
     1     1     2   am
     2     1    11    1
     3     1    22    2
     4     2     3    1
     5     2    10    1
     6     3     4    1
     7     4     5    1
     8     5     6    1
     9     5     9    1
    10     6     7    2
    11     6     8   am
    12     9    10    1
    13    11    12    1
    14    11    20    1
    15    11    21    1
    16    12    13    1
    17    13    14   ar
    18    13    19   ar
    19    14    15   ar
    20    15    16   ar
    21    16    17    1
    22    16    18   ar
    23    18    19   ar
