@<TRIPOS>MOLECULE
27145_ChemDiv_5607-0079
 24 26 0 0 0
SMALL
GASTEIGER
Energy = 0

@<TRIPOS>ATOM
      1 N           1.4670    3.2790    0.0000 N.4     1  LIG1        0.3730
      2 C           0.6420    2.8040    0.0000 C.3     1  LIG1        0.0903
      3 C          -0.1750    3.2830    0.0000 C.3     1  LIG1        0.0782
      4 C          -0.9960    2.8040    0.0000 C.3     1  LIG1        0.0994
      5 N          -0.9960    1.8330    0.0000 N.am    1  LIG1       -0.2761
      6 C          -1.8330    1.3710    0.0000 C.2     1  LIG1        0.2702
      7 C          -1.7880    0.2750    0.0000 C.3     1  LIG1        0.2896
      8 O          -2.6830   -0.2880    0.0000 O.3     1  LIG1       -0.4656
      9 C          -2.7710   -1.3540    0.0000 C.ar    1  LIG1        0.1393
     10 C          -3.7380   -1.8670    0.0000 C.ar    1  LIG1        0.0378
     11 C          -3.8460   -2.9540    0.0000 C.ar    1  LIG1        0.0145
     12 C          -2.9670   -3.5670    0.0000 C.ar    1  LIG1        0.0579
     13 CL         -3.0790   -4.6460    0.0000 Cl      1  LIG1       -0.0822
     14 C          -1.9630   -3.0790    0.0000 C.ar    1  LIG1        0.0145
     15 C          -1.8500   -1.9830    0.0000 C.ar    1  LIG1        0.0378
     16 O          -2.7540    1.9080    0.0000 O.2     1  LIG1       -0.2708
     17 C          -0.1750    1.3710    0.0000 C.3     1  LIG1        0.0994
     18 C           0.6420    1.8330    0.0000 C.3     1  LIG1        0.0782
     19 C           2.2630    2.8170    0.0000 C.3     1  LIG1        0.1380
     20 C           3.0540    3.2790    0.0000 C.3     1  LIG1        0.0572
     21 C           3.0540    4.1880    0.0000 C.3     1  LIG1        0.0121
     22 C           2.2630    4.6460    0.0000 C.3     1  LIG1        0.0629
     23 C           1.4670    4.1880    0.0000 C.3     1  LIG1        0.1383
     24 C           3.8420    2.8210    0.0000 C.3     1  LIG1        0.0061
@<TRIPOS>BOND
     1     1     2    1
     2     1    19    1
     3     1    23    1
     4     2     3    1
     5     2    18    1
     6     3     4    1
     7     4     5    1
     8     5     6   am
     9     5    17    1
    10     6     7    1
    11     6    16    2
    12     7     8    1
    13     8     9    1
    14     9    10   ar
    15     9    15   ar
    16    10    11   ar
    17    11    12   ar
    18    12    13    1
    19    12    14   ar
    20    14    15   ar
    21    17    18    1
    22    19    20    1
    23    20    21    1
    24    20    24    1
    25    21    22    1
    26    22    23    1
