@<TRIPOS>MOLECULE
27149_ChemDiv_6030-4563
 16 17 0 0 0
SMALL
GASTEIGER
Energy = 0

@<TRIPOS>ATOM
      1 N           0.4250    2.2630    0.0000 N.4     1  LIG1        0.3802
      2 C          -0.4460    1.7460    0.0000 C.3     1  LIG1        0.1867
      3 C          -0.4330    0.7420    0.0000 C.3     1  LIG1        0.2675
      4 O          -1.2960    0.2420    0.0000 O.3     1  LIG1       -0.4690
      5 C          -1.2960   -0.7630    0.0000 C.ar    1  LIG1        0.1389
      6 C          -0.4290   -1.2580    0.0000 C.ar    1  LIG1        0.0378
      7 C          -0.4290   -2.2630    0.0000 C.ar    1  LIG1        0.0145
      8 C          -1.2960   -2.7580    0.0000 C.ar    1  LIG1        0.0579
      9 CL         -1.3080   -3.7580    0.0000 Cl      1  LIG1       -0.0822
     10 C          -2.1580   -2.2630    0.0000 C.ar    1  LIG1        0.0145
     11 C          -2.1580   -1.2580    0.0000 C.ar    1  LIG1        0.0378
     12 C           0.4250    3.2630    0.0000 C.3     1  LIG1        0.1387
     13 C           1.2880    3.7630    0.0000 C.3     1  LIG1        0.0629
     14 C           2.1540    3.2630    0.0000 C.3     1  LIG1        0.0123
     15 C           2.1540    2.2630    0.0000 C.3     1  LIG1        0.0629
     16 C           1.2880    1.7630    0.0000 C.3     1  LIG1        0.1387
@<TRIPOS>BOND
     1     1     2    1
     2     1    12    1
     3     1    16    1
     4     2     3    1
     5     3     4    1
     6     4     5    1
     7     5     6   ar
     8     5    11   ar
     9     6     7   ar
    10     7     8   ar
    11     8     9    1
    12     8    10   ar
    13    10    11   ar
    14    12    13    1
    15    13    14    1
    16    14    15    1
    17    15    16    1
