@<TRIPOS>MOLECULE
27151_ChemDiv_6064-0132
 30 32 0 0 0
SMALL
GASTEIGER
Energy = 0

@<TRIPOS>ATOM
      1 S          -4.3250   -1.0830    0.0000 S.O2    1  LIG1        0.0768
      2 N          -5.1790   -1.5670    0.0000 N.3     1  LIG1       -0.0793
      3 C          -6.0500   -1.0630    0.0000 C.3     1  LIG1        0.0978
      4 C          -6.0250   -0.0670    0.0000 C.3     1  LIG1        0.0208
      5 C          -6.9170   -1.5540    0.0000 C.3     1  LIG1        0.0208
      6 C          -3.4460   -0.5750    0.0000 C.ar    1  LIG1        0.1237
      7 C          -3.4460    0.4330    0.0000 C.ar    1  LIG1        0.0231
      8 C          -2.5830    0.9380    0.0000 C.ar    1  LIG1        0.0383
      9 C          -1.7080    0.4330    0.0000 C.ar    1  LIG1        0.1394
     10 O          -0.8500    0.9380    0.0000 O.3     1  LIG1       -0.4656
     11 C           0.0290    0.4330    0.0000 C.3     1  LIG1        0.2896
     12 C           0.8880    0.9420    0.0000 C.2     1  LIG1        0.2702
     13 N           1.7580    0.4500    0.0000 N.am    1  LIG1       -0.2765
     14 C           1.7580   -0.5630    0.0000 C.3     1  LIG1        0.0935
     15 C           2.6380   -1.0630    0.0000 C.3     1  LIG1        0.0219
     16 C           3.4960   -0.5380    0.0000 C.3     1  LIG1        0.0078
     17 C           4.3630   -1.0380    0.0000 C.3     1  LIG1        0.0265
     18 C           5.2130   -0.5210    0.0000 C.ar    1  LIG1       -0.0222
     19 C           6.0830   -1.0000    0.0000 C.ar    1  LIG1       -0.0043
     20 C           6.9170   -0.4750    0.0000 C.ar    1  LIG1       -0.0003
     21 C           6.9130    0.5130    0.0000 C.ar    1  LIG1       -0.0000
     22 C           6.0210    0.9790    0.0000 C.ar    1  LIG1       -0.0003
     23 C           5.1960    0.4710    0.0000 C.ar    1  LIG1       -0.0043
     24 C           3.4960    0.4710    0.0000 C.3     1  LIG1        0.0219
     25 C           2.6210    0.9670    0.0000 C.3     1  LIG1        0.0935
     26 O           0.8880    1.9380    0.0000 O.2     1  LIG1       -0.2708
     27 C          -1.7080   -0.5750    0.0000 C.ar    1  LIG1        0.0383
     28 C          -2.5830   -1.0830    0.0000 C.ar    1  LIG1        0.0231
     29 O          -3.8250   -1.9330    0.0000 O.2     1  LIG1       -0.1516
     30 O          -4.8170   -0.2130    0.0000 O.2     1  LIG1       -0.1516
@<TRIPOS>BOND
     1     1     2    1
     2     1     6    1
     3     1    29    2
     4     1    30    2
     5     2     3    1
     6     3     4    1
     7     3     5    1
     8     6     7   ar
     9     6    28   ar
    10     7     8   ar
    11     8     9   ar
    12     9    10    1
    13     9    27   ar
    14    10    11    1
    15    11    12    1
    16    12    13   am
    17    12    26    2
    18    13    14    1
    19    13    25    1
    20    14    15    1
    21    15    16    1
    22    16    17    1
    23    16    24    1
    24    17    18    1
    25    18    19   ar
    26    18    23   ar
    27    19    20   ar
    28    20    21   ar
    29    21    22   ar
    30    22    23   ar
    31    24    25    1
    32    27    28   ar
