@<TRIPOS>MOLECULE
27158_ChemDiv_8009-3207
 22 24 0 0 0
SMALL
GASTEIGER
Energy = 0

@<TRIPOS>ATOM
      1 C          -0.8960    0.4580    0.0000 C.ar    1  LIG1        0.0374
      2 C          -0.8960   -0.4750    0.0000 C.ar    1  LIG1        0.1365
      3 C          -0.0250   -0.9500    0.0000 C.ar    1  LIG1        0.0373
      4 C           0.7920   -0.4580    0.0000 C.ar    1  LIG1        0.0374
      5 C           0.8000    0.4880    0.0000 C.ar    1  LIG1        0.1365
      6 C          -0.0420    0.9420    0.0000 C.ar    1  LIG1        0.0373
      7 O           1.5790    0.9670    0.0000 O.3     1  LIG1       -0.4717
      8 C           1.5790    1.9380    0.0000 C.3     1  LIG1        0.2525
      9 C           1.6170   -0.9250    0.0000 C.3     1  LIG1        0.1374
     10 N           2.4920   -0.4580    0.0000 N.ar    1  LIG1       -0.3035
     11 C           3.2960   -0.9250    0.0000 C.ar    1  LIG1        0.1789
     12 N           4.0920   -0.4580    0.0000 N.ar    1  LIG1       -0.2223
     13 C           3.2710    0.9170    0.0000 C.ar    1  LIG1        0.1193
     14 C           2.5000    0.4580    0.0000 C.ar    1  LIG1        0.0983
     15 O          -1.7080   -0.9580    0.0000 O.3     1  LIG1       -0.4717
     16 C          -1.7080   -1.9330    0.0000 C.3     1  LIG1        0.2525
     17 C          -1.6920    0.9330    0.0000 C.3     1  LIG1        0.1374
     18 N          -2.4710    0.4420    0.0000 N.ar    1  LIG1       -0.3035
     19 C          -3.2750    0.8830    0.0000 C.ar    1  LIG1        0.1789
     20 N          -4.0960    0.4130    0.0000 N.ar    1  LIG1       -0.2223
     21 C          -3.2750   -0.9790    0.0000 C.ar    1  LIG1        0.1193
     22 C          -2.4710   -0.5040    0.0000 C.ar    1  LIG1        0.0983
@<TRIPOS>BOND
     1     1     2   ar
     2     1     6   ar
     3     1    17    1
     4     2     3   ar
     5     2    15    1
     6     3     4   ar
     7     4     5   ar
     8     4     9    1
     9     5     6   ar
    10     5     7    1
    11     7     8    1
    12     9    10    1
    13    10    11   ar
    14    10    14   ar
    15    11    12   ar
    16    12    13   ar
    17    13    14   ar
    18    15    16    1
    19    17    18    1
    20    18    19   ar
    21    18    22   ar
    22    19    20   ar
    23    20    21   ar
    24    21    22   ar
