@<TRIPOS>MOLECULE
27155_ChemDiv_7465-0084
 18 20 0 0 0
SMALL
GASTEIGER
Energy = 0

@<TRIPOS>ATOM
      1 N           1.5130    2.6290    0.0000 N.4     1  LIG1        0.3783
      2 C           0.8000    1.9290    0.0000 C.3     1  LIG1        0.1543
      3 C           1.2460    0.9960    0.0000 C.3     1  LIG1        0.1124
      4 N           0.7540    0.1500    0.0000 N.3     1  LIG1       -0.2900
      5 C          -0.2290    0.1500    0.0000 C.3     1  LIG1        0.0957
      6 C          -0.9290   -0.5540    0.0000 C.ar    1  LIG1       -0.0063
      7 C          -1.8830   -0.2960    0.0000 C.ar    1  LIG1       -0.0021
      8 C          -2.5880   -1.0040    0.0000 C.ar    1  LIG1        0.0111
      9 C          -2.3210   -1.9630    0.0000 C.ar    1  LIG1        0.0577
     10 CL         -3.0130   -2.6710    0.0000 Cl      1  LIG1       -0.0822
     11 C          -1.3710   -2.2130    0.0000 C.ar    1  LIG1        0.0111
     12 C          -0.6630   -1.5080    0.0000 C.ar    1  LIG1       -0.0021
     13 C           2.2250    1.0750    0.0000 C.3     1  LIG1        0.0322
     14 C           1.6880    0.5460    0.0000 C.3     1  LIG1        0.0645
     15 C           1.2250    1.5420    0.0000 C.3     1  LIG1        0.1387
     16 C           3.0080    1.7080    0.0000 C.3     1  LIG1        0.0645
     17 C           2.5670    2.6750    0.0000 C.3     1  LIG1        0.1387
     18 H           1.2460   -0.7040    0.0000 H       1  LIG1        0.1237
@<TRIPOS>BOND
     1     1     2    1
     2     1    15    1
     3     1    17    1
     4     2     3    1
     5     3     4    1
     6     3    13    1
     7     4     5    1
     8     4    18    1
     9     5     6    1
    10     6     7   ar
    11     6    12   ar
    12     7     8   ar
    13     8     9   ar
    14     9    10    1
    15     9    11   ar
    16    11    12   ar
    17    13    14    1
    18    13    16    1
    19    14    15    1
    20    16    17    1
