@<TRIPOS>MOLECULE
27154_ChemDiv_5786-2144
 26 29 0 0 0
SMALL
GASTEIGER
Energy = 0

@<TRIPOS>ATOM
      1 N          -1.1670    0.9460    0.0000 N.ar    1  LIG1       -0.3076
      2 C          -0.6250    1.7460    0.0000 C.ar    1  LIG1        0.1652
      3 N          -1.1670    2.5540    0.0000 N.ar    1  LIG1       -0.2271
      4 C          -2.1420    2.2210    0.0000 C.ar    1  LIG1        0.0985
      5 C          -2.1420    1.2420    0.0000 C.ar    1  LIG1        0.0790
      6 C          -3.0130    0.7710    0.0000 C.ar    1  LIG1        0.0188
      7 C          -3.8830    1.2420    0.0000 C.ar    1  LIG1        0.0016
      8 C          -3.8830    2.2210    0.0000 C.ar    1  LIG1        0.0016
      9 C          -3.0130    2.7880    0.0000 C.ar    1  LIG1        0.0206
     10 C           0.3830    1.7460    0.0000 C.3     1  LIG1        0.2684
     11 O           0.8880    0.8670    0.0000 O.3     1  LIG1       -0.4673
     12 C           1.8920    0.8670    0.0000 C.ar    1  LIG1        0.1392
     13 C           2.3670    0.0040    0.0000 C.ar    1  LIG1        0.0369
     14 C           3.3710    0.0040    0.0000 C.ar    1  LIG1        0.0031
     15 C           3.8790    0.8670    0.0000 C.ar    1  LIG1        0.0002
     16 C           3.3710    1.7460    0.0000 C.ar    1  LIG1        0.0031
     17 C           2.3670    1.7460    0.0000 C.ar    1  LIG1        0.0369
     18 C          -0.6250    0.2000    0.0000 C.3     1  LIG1        0.1370
     19 C          -0.6250   -0.7710    0.0000 C.ar    1  LIG1        0.0344
     20 C          -1.5000   -1.2710    0.0000 C.ar    1  LIG1        0.1365
     21 O          -2.3710   -0.7710    0.0000 O.3     1  LIG1       -0.4717
     22 C          -3.2500   -1.2710    0.0000 C.3     1  LIG1        0.2525
     23 C          -1.5000   -2.2790    0.0000 C.ar    1  LIG1        0.0366
     24 C          -0.6250   -2.7830    0.0000 C.ar    1  LIG1        0.0031
     25 C           0.2460   -2.2790    0.0000 C.ar    1  LIG1       -0.0001
     26 C           0.2460   -1.2710    0.0000 C.ar    1  LIG1        0.0006
@<TRIPOS>BOND
     1     1     2   ar
     2     1     5   ar
     3     1    18    1
     4     2     3   ar
     5     2    10    1
     6     3     4   ar
     7     4     5   ar
     8     4     9   ar
     9     5     6   ar
    10     6     7   ar
    11     7     8   ar
    12     8     9   ar
    13    10    11    1
    14    11    12    1
    15    12    13   ar
    16    12    17   ar
    17    13    14   ar
    18    14    15   ar
    19    15    16   ar
    20    16    17   ar
    21    18    19    1
    22    19    20   ar
    23    19    26   ar
    24    20    21    1
    25    20    23   ar
    26    21    22    1
    27    23    24   ar
    28    24    25   ar
    29    25    26   ar
