@<TRIPOS>MOLECULE
27156_ChemDiv_7491-0170
 23 26 0 0 0
SMALL
GASTEIGER
Energy = 0

@<TRIPOS>ATOM
      1 C          -0.3080    0.9880    0.0000 C.ar    1  LIG1        0.2182
      2 N          -1.1460    0.5000    0.0000 N.ar    1  LIG1       -0.2942
      3 C          -2.0040    0.9880    0.0000 C.ar    1  LIG1        0.0802
      4 C          -2.0040    1.9630    0.0000 C.ar    1  LIG1        0.1000
      5 N          -0.3210    1.9630    0.0000 N.ar    1  LIG1       -0.2124
      6 C          -2.8460    2.4420    0.0000 C.ar    1  LIG1        0.0207
      7 C          -3.6880    1.9500    0.0000 C.ar    1  LIG1        0.0016
      8 C          -3.6790    0.9750    0.0000 C.ar    1  LIG1        0.0016
      9 C          -2.8380    0.5000    0.0000 C.ar    1  LIG1        0.0188
     10 C          -1.1460   -0.4750    0.0000 C.3     1  LIG1        0.1355
     11 C          -1.9880   -0.9710    0.0000 C.ar    1  LIG1        0.0005
     12 C          -2.8290   -0.4880    0.0000 C.ar    1  LIG1       -0.0024
     13 C          -3.6710   -0.9750    0.0000 C.ar    1  LIG1       -0.0003
     14 C          -3.6630   -1.9500    0.0000 C.ar    1  LIG1       -0.0000
     15 C          -2.8040   -2.4380    0.0000 C.ar    1  LIG1       -0.0003
     16 C          -1.9750   -1.9330    0.0000 C.ar    1  LIG1       -0.0024
     17 N           0.5380    0.5170    0.0000 N.pl3   1  LIG1       -0.1970
     18 C           1.3790    1.0040    0.0000 C.3     1  LIG1        0.1793
     19 C           2.2210    0.5170    0.0000 C.ar    1  LIG1        0.1449
     20 O           2.9460    0.9460    0.0000 O.2     1  LIG1       -0.4529
     21 C           3.6830    0.5080    0.0000 C.ar    1  LIG1        0.1792
     22 C           3.6830   -0.3420    0.0000 C.ar    1  LIG1        0.0435
     23 C           2.2170   -0.3250    0.0000 C.ar    1  LIG1        0.0380
@<TRIPOS>BOND
     1     1     2   ar
     2     1     5   ar
     3     1    17    1
     4     2     3   ar
     5     2    10    1
     6     3     4   ar
     7     3     9   ar
     8     4     5   ar
     9     4     6   ar
    10     6     7   ar
    11     7     8   ar
    12     8     9   ar
    13    10    11    1
    14    11    12   ar
    15    11    16   ar
    16    12    13   ar
    17    13    14   ar
    18    14    15   ar
    19    15    16   ar
    20    17    18    1
    21    18    19    1
    22    19    20   ar
    23    19    23   ar
    24    20    21   ar
    25    21    22   ar
    26    22    23   ar
