@<TRIPOS>MOLECULE
27159_ChemDiv_7465-0089
 28 31 0 0 0
SMALL
GASTEIGER
Energy = 0

@<TRIPOS>ATOM
      1 N           3.1920    3.6880    0.0000 N.4     1  LIG1        0.3783
      2 C           2.4830    2.9920    0.0000 C.3     1  LIG1        0.1543
      3 C           2.9210    2.0460    0.0000 C.3     1  LIG1        0.1124
      4 N           2.4250    1.1920    0.0000 N.3     1  LIG1       -0.2900
      5 C           1.4380    1.1920    0.0000 C.3     1  LIG1        0.0959
      6 C           0.7380    0.4880    0.0000 C.ar    1  LIG1       -0.0032
      7 C          -0.2210    0.7460    0.0000 C.ar    1  LIG1        0.0371
      8 C          -0.9250    0.0460    0.0000 C.ar    1  LIG1        0.1719
      9 C          -0.6750   -0.9130    0.0000 C.ar    1  LIG1        0.1727
     10 O          -1.3750   -1.6080    0.0000 O.3     1  LIG1       -0.4676
     11 C          -2.3330   -1.3630    0.0000 C.3     1  LIG1        0.2321
     12 C          -3.0330   -2.0580    0.0000 C.ar    1  LIG1        0.0212
     13 C          -3.9920   -1.8040    0.0000 C.ar    1  LIG1       -0.0007
     14 C          -4.7000   -2.5040    0.0000 C.ar    1  LIG1       -0.0002
     15 C          -4.4500   -3.4630    0.0000 C.ar    1  LIG1       -0.0000
     16 C          -3.4880   -3.7290    0.0000 C.ar    1  LIG1       -0.0002
     17 C          -2.7790   -3.0210    0.0000 C.ar    1  LIG1       -0.0007
     18 C           0.2920   -1.1750    0.0000 C.ar    1  LIG1        0.0398
     19 C           0.9960   -0.4710    0.0000 C.ar    1  LIG1        0.0004
     20 O          -1.8920    0.2960    0.0000 O.3     1  LIG1       -0.4724
     21 C          -2.1420    1.2630    0.0000 C.3     1  LIG1        0.2057
     22 C          -3.1040    1.5210    0.0000 C.3     1  LIG1        0.0512
     23 C           3.9130    2.1290    0.0000 C.3     1  LIG1        0.0322
     24 C           3.3750    1.6000    0.0000 C.3     1  LIG1        0.0645
     25 C           2.8960    2.6000    0.0000 C.3     1  LIG1        0.1387
     26 C           4.6960    2.7630    0.0000 C.3     1  LIG1        0.0645
     27 C           4.2500    3.7330    0.0000 C.3     1  LIG1        0.1387
     28 H           2.9210    0.3420    0.0000 H       1  LIG1        0.1237
@<TRIPOS>BOND
     1     1     2    1
     2     1    25    1
     3     1    27    1
     4     2     3    1
     5     3     4    1
     6     3    23    1
     7     4     5    1
     8     4    28    1
     9     5     6    1
    10     6     7   ar
    11     6    19   ar
    12     7     8   ar
    13     8     9   ar
    14     8    20    1
    15     9    10    1
    16     9    18   ar
    17    10    11    1
    18    11    12    1
    19    12    13   ar
    20    12    17   ar
    21    13    14   ar
    22    14    15   ar
    23    15    16   ar
    24    16    17   ar
    25    18    19   ar
    26    20    21    1
    27    21    22    1
    28    23    24    1
    29    23    26    1
    30    24    25    1
    31    26    27    1
