@<TRIPOS>MOLECULE
27153_ChemDiv_7465-0083
 20 22 0 0 0
SMALL
GASTEIGER
Energy = 0

@<TRIPOS>ATOM
      1 N           2.7290    2.4710    0.0000 N.4     1  LIG1        0.3783
      2 C           1.7630    2.2210    0.0000 C.3     1  LIG1        0.1543
      3 C           1.6750    1.1880    0.0000 C.3     1  LIG1        0.1124
      4 N           0.8250    0.7000    0.0000 N.3     1  LIG1       -0.2900
      5 C          -0.0330    1.1880    0.0000 C.3     1  LIG1        0.0958
      6 C          -0.9920    0.9290    0.0000 C.ar    1  LIG1       -0.0034
      7 C          -1.2420   -0.0170    0.0000 C.ar    1  LIG1        0.0340
      8 C          -2.2040   -0.2830    0.0000 C.ar    1  LIG1        0.1383
      9 O          -2.4540   -1.2460    0.0000 O.3     1  LIG1       -0.4755
     10 C          -3.4170   -1.5040    0.0000 C.3     1  LIG1        0.2055
     11 C          -3.6670   -2.4670    0.0000 C.3     1  LIG1        0.0512
     12 C          -2.9080    0.4130    0.0000 C.ar    1  LIG1        0.0369
     13 C          -2.6500    1.3710    0.0000 C.ar    1  LIG1        0.0028
     14 C          -1.6920    1.6250    0.0000 C.ar    1  LIG1       -0.0027
     15 C           2.5710    0.7670    0.0000 C.3     1  LIG1        0.0322
     16 C           1.8330    0.5750    0.0000 C.3     1  LIG1        0.0645
     17 C           1.9330    1.6710    0.0000 C.3     1  LIG1        0.1387
     18 C           3.5630    0.9210    0.0000 C.3     1  LIG1        0.0645
     19 C           3.6630    1.9830    0.0000 C.3     1  LIG1        0.1387
     20 H           0.8250   -0.2830    0.0000 H       1  LIG1        0.1237
@<TRIPOS>BOND
     1     1     2    1
     2     1    17    1
     3     1    19    1
     4     2     3    1
     5     3     4    1
     6     3    15    1
     7     4     5    1
     8     4    20    1
     9     5     6    1
    10     6     7   ar
    11     6    14   ar
    12     7     8   ar
    13     8     9    1
    14     8    12   ar
    15     9    10    1
    16    10    11    1
    17    12    13   ar
    18    13    14   ar
    19    15    16    1
    20    15    18    1
    21    16    17    1
    22    18    19    1
