@<TRIPOS>MOLECULE
27163_ChemDiv_7465-0242
 19 21 0 0 0
SMALL
GASTEIGER
Energy = 0

@<TRIPOS>ATOM
      1 N           2.0000    2.6290    0.0000 N.4     1  LIG1        0.3783
      2 C           1.2880    1.9380    0.0000 C.3     1  LIG1        0.1543
      3 C           1.7330    0.9960    0.0000 C.3     1  LIG1        0.1124
      4 N           1.2330    0.1540    0.0000 N.3     1  LIG1       -0.2900
      5 C           0.2540    0.1540    0.0000 C.3     1  LIG1        0.0957
      6 C          -0.4460   -0.5500    0.0000 C.ar    1  LIG1       -0.0063
      7 C          -1.4130   -0.2960    0.0000 C.ar    1  LIG1       -0.0024
      8 C          -2.1080   -1.0000    0.0000 C.ar    1  LIG1        0.0059
      9 C          -1.8500   -1.9630    0.0000 C.ar    1  LIG1        0.0252
     10 S          -2.5420   -2.6710    0.0000 S.3     1  LIG1       -0.1127
     11 C          -3.4960   -2.4170    0.0000 C.3     1  LIG1        0.0742
     12 C          -0.8880   -2.2210    0.0000 C.ar    1  LIG1        0.0059
     13 C          -0.1830   -1.5170    0.0000 C.ar    1  LIG1       -0.0024
     14 C           2.7080    1.0790    0.0000 C.3     1  LIG1        0.0322
     15 C           2.1750    0.5500    0.0000 C.3     1  LIG1        0.0645
     16 C           1.7040    1.5460    0.0000 C.3     1  LIG1        0.1387
     17 C           3.4920    1.7040    0.0000 C.3     1  LIG1        0.0645
     18 C           3.0460    2.6750    0.0000 C.3     1  LIG1        0.1387
     19 H           1.7330   -0.7000    0.0000 H       1  LIG1        0.1237
@<TRIPOS>BOND
     1     1     2    1
     2     1    16    1
     3     1    18    1
     4     2     3    1
     5     3     4    1
     6     3    14    1
     7     4     5    1
     8     4    19    1
     9     5     6    1
    10     6     7   ar
    11     6    13   ar
    12     7     8   ar
    13     8     9   ar
    14     9    10    1
    15     9    12   ar
    16    10    11    1
    17    12    13   ar
    18    14    15    1
    19    14    17    1
    20    15    16    1
    21    17    18    1
