@<TRIPOS>MOLECULE
27165_ChemDiv_7756-0441
 23 25 0 0 0
SMALL
GASTEIGER
Energy = 0

@<TRIPOS>ATOM
      1 N          -1.2960   -0.5040    0.0000 N.3     1  LIG1       -0.2589
      2 C          -2.1670   -1.0040    0.0000 C.3     1  LIG1        0.0996
      3 C          -3.0290   -0.5040    0.0000 C.ar    1  LIG1       -0.0030
      4 C          -3.8920   -1.0040    0.0000 C.ar    1  LIG1        0.0391
      5 C          -4.7670   -0.5040    0.0000 C.ar    1  LIG1        0.1955
      6 O          -5.6290   -1.0040    0.0000 O.3     1  LIG1       -0.2866
      7 C          -4.7670    0.4920    0.0000 C.ar    1  LIG1        0.0420
      8 C          -3.8920    0.9960    0.0000 C.ar    1  LIG1        0.0030
      9 C          -3.0290    0.4920    0.0000 C.ar    1  LIG1       -0.0027
     10 C          -0.4330   -1.0040    0.0000 C.3     1  LIG1        0.1361
     11 C           0.4290   -0.5040    0.0000 C.3     1  LIG1        0.1568
     12 N           0.4290    0.4960    0.0000 N.4     1  LIG1        0.3829
     13 C          -0.4330    1.0080    0.0000 C.3     1  LIG1        0.1568
     14 C          -1.2960    0.4960    0.0000 C.3     1  LIG1        0.1361
     15 C           1.3040    1.0080    0.0000 C.3     1  LIG1        0.1662
     16 C           2.1670    0.4960    0.0000 C.2     1  LIG1        0.0359
     17 C           3.0380    1.0080    0.0000 C.2     1  LIG1        0.0013
     18 C           3.9000    0.4960    0.0000 C.ar    1  LIG1       -0.0001
     19 C           3.9000   -0.4880    0.0000 C.ar    1  LIG1       -0.0000
     20 C           4.7630   -0.9880    0.0000 C.ar    1  LIG1       -0.0000
     21 C           5.6250   -0.4880    0.0000 C.ar    1  LIG1       -0.0000
     22 C           5.6250    0.5080    0.0000 C.ar    1  LIG1       -0.0000
     23 C           4.7630    1.0080    0.0000 C.ar    1  LIG1       -0.0000
@<TRIPOS>BOND
     1     1     2    1
     2     1    10    1
     3     1    14    1
     4     2     3    1
     5     3     4   ar
     6     3     9   ar
     7     4     5   ar
     8     5     6    1
     9     5     7   ar
    10     7     8   ar
    11     8     9   ar
    12    10    11    1
    13    11    12    1
    14    12    13    1
    15    12    15    1
    16    13    14    1
    17    15    16    1
    18    16    17    2
    19    17    18    1
    20    18    19   ar
    21    18    23   ar
    22    19    20   ar
    23    20    21   ar
    24    21    22   ar
    25    22    23   ar
