@<TRIPOS>MOLECULE
27167_ChemDiv_7756-0446
 28 30 0 0 0
SMALL
GASTEIGER
Energy = 0

@<TRIPOS>ATOM
      1 C          -4.3380    0.2330    0.0000 C.ar    1  LIG1        0.2058
      2 C          -3.4670   -0.2630    0.0000 C.ar    1  LIG1        0.1727
      3 C          -2.6040    0.2460    0.0000 C.ar    1  LIG1        0.0311
      4 C          -1.7380   -0.2540    0.0000 C.3     1  LIG1        0.1026
      5 N          -0.8750    0.2460    0.0000 N.3     1  LIG1       -0.2588
      6 C          -0.0080   -0.2540    0.0000 C.3     1  LIG1        0.1361
      7 C           0.8670    0.2460    0.0000 C.3     1  LIG1        0.1568
      8 N           0.8670    1.2420    0.0000 N.4     1  LIG1        0.3829
      9 C          -0.0080    1.7460    0.0000 C.3     1  LIG1        0.1568
     10 C          -0.8750    1.2420    0.0000 C.3     1  LIG1        0.1361
     11 C           1.7290    1.7460    0.0000 C.3     1  LIG1        0.1662
     12 C           2.6000    1.2420    0.0000 C.2     1  LIG1        0.0359
     13 C           3.4670    1.7460    0.0000 C.2     1  LIG1        0.0013
     14 C           4.3330    1.2420    0.0000 C.ar    1  LIG1       -0.0001
     15 C           4.3330    0.2460    0.0000 C.ar    1  LIG1       -0.0000
     16 C           5.1920   -0.2540    0.0000 C.ar    1  LIG1       -0.0000
     17 C           6.0630    0.2460    0.0000 C.ar    1  LIG1       -0.0000
     18 C           6.0630    1.2460    0.0000 C.ar    1  LIG1       -0.0000
     19 C           5.1920    1.7540    0.0000 C.ar    1  LIG1       -0.0000
     20 C          -2.6040    1.2420    0.0000 C.ar    1  LIG1        0.0034
     21 C          -3.4670    1.7420    0.0000 C.ar    1  LIG1        0.0400
     22 C          -4.3380    1.2420    0.0000 C.ar    1  LIG1        0.1754
     23 O          -5.2000    1.7420    0.0000 O.3     1  LIG1       -0.4683
     24 C          -6.0630    1.2420    0.0000 C.3     1  LIG1        0.2526
     25 O          -3.4630   -1.2500    0.0000 O.3     1  LIG1       -0.4685
     26 C          -2.5960   -1.7500    0.0000 C.3     1  LIG1        0.2526
     27 O          -5.2000   -0.2630    0.0000 O.3     1  LIG1       -0.4654
     28 C          -5.1960   -1.2580    0.0000 C.3     1  LIG1        0.2528
@<TRIPOS>BOND
     1     1     2   ar
     2     1    22   ar
     3     1    27    1
     4     2     3   ar
     5     2    25    1
     6     3     4    1
     7     3    20   ar
     8     4     5    1
     9     5     6    1
    10     5    10    1
    11     6     7    1
    12     7     8    1
    13     8     9    1
    14     8    11    1
    15     9    10    1
    16    11    12    1
    17    12    13    2
    18    13    14    1
    19    14    15   ar
    20    14    19   ar
    21    15    16   ar
    22    16    17   ar
    23    17    18   ar
    24    18    19   ar
    25    20    21   ar
    26    21    22   ar
    27    22    23    1
    28    23    24    1
    29    25    26    1
    30    27    28    1
