@<TRIPOS>MOLECULE
27160_ChemDiv_8014-9055
 21 24 0 0 0
SMALL
GASTEIGER
Energy = 0

@<TRIPOS>ATOM
      1 N          -0.4080    0.3960    0.0000 N.ar    1  LIG1       -0.3047
      2 C           0.1790    1.2080    0.0000 C.ar    1  LIG1        0.1788
      3 N          -0.4080    2.0170    0.0000 N.ar    1  LIG1       -0.2239
      4 C          -1.3630    1.7080    0.0000 C.ar    1  LIG1        0.0988
      5 C          -1.3630    0.7080    0.0000 C.ar    1  LIG1        0.0792
      6 C          -2.2250    0.2080    0.0000 C.ar    1  LIG1        0.0188
      7 C          -3.0920    0.7080    0.0000 C.ar    1  LIG1        0.0016
      8 C          -3.0920    1.7080    0.0000 C.ar    1  LIG1        0.0016
      9 C          -2.2250    2.2040    0.0000 C.ar    1  LIG1        0.0206
     10 C           0.0920   -0.4670    0.0000 C.3     1  LIG1        0.1373
     11 C           1.0880   -0.4670    0.0000 C.ar    1  LIG1        0.0351
     12 C           1.5880    0.3960    0.0000 C.ar    1  LIG1        0.1377
     13 C           2.5880    0.3960    0.0000 C.ar    1  LIG1        0.0421
     14 C           3.0880   -0.4670    0.0000 C.ar    1  LIG1        0.0125
     15 C           2.5880   -1.3330    0.0000 C.ar    1  LIG1        0.0574
     16 C           1.5880   -1.3330    0.0000 C.ar    1  LIG1        0.0120
     17 CL          3.0880   -2.2000    0.0000 Cl      1  LIG1       -0.0823
     18 C           3.0880    1.2630    0.0000 C.3     1  LIG1        0.1756
     19 O           2.5880    2.1290    0.0000 O.3     1  LIG1       -0.3108
     20 C           1.5880    2.1290    0.0000 C.3     1  LIG1        0.3612
     21 O           1.0880    1.2630    0.0000 O.3     1  LIG1       -0.4484
@<TRIPOS>BOND
     1     1     2   ar
     2     1     5   ar
     3     1    10    1
     4     2     3   ar
     5     3     4   ar
     6     4     5   ar
     7     4     9   ar
     8     5     6   ar
     9     6     7   ar
    10     7     8   ar
    11     8     9   ar
    12    10    11    1
    13    11    12   ar
    14    11    16   ar
    15    12    13   ar
    16    12    21    1
    17    13    14   ar
    18    13    18    1
    19    14    15   ar
    20    15    16   ar
    21    15    17    1
    22    18    19    1
    23    19    20    1
    24    20    21    1
