@<TRIPOS>MOLECULE
27164_ChemDiv_8018-0380
 15 16 0 0 0
SMALL
GASTEIGER
Energy = 0

@<TRIPOS>ATOM
      1 N           2.4540   -0.1880    0.0000 N.ar    1  LIG1       -0.2223
      2 C           1.4790    0.0210    0.0000 C.ar    1  LIG1        0.1789
      3 N           1.3670    1.0080    0.0000 N.ar    1  LIG1       -0.3036
      4 C           2.2790    1.4210    0.0000 C.ar    1  LIG1        0.0983
      5 C           2.9540    0.6830    0.0000 C.ar    1  LIG1        0.1193
      6 C           0.5040    1.5080    0.0000 C.3     1  LIG1        0.1344
      7 C          -0.3580    1.0080    0.0000 C.ar    1  LIG1        0.0020
      8 C          -1.2250    1.5000    0.0000 C.ar    1  LIG1        0.0188
      9 C          -2.0880    1.0000    0.0000 C.ar    1  LIG1        0.1226
     10 C          -2.0880   -0.0040    0.0000 C.ar    1  LIG1        0.1553
     11 C          -1.2210   -0.5080    0.0000 C.ar    1  LIG1        0.0380
     12 C          -0.3580   -0.0040    0.0000 C.ar    1  LIG1        0.0008
     13 O          -2.9500   -0.5080    0.0000 O.3     1  LIG1       -0.4701
     14 C          -2.9580   -1.5040    0.0000 C.3     1  LIG1        0.2525
     15 N          -2.9580    1.5080    0.0000 N.pl3   1  LIG1       -0.1249
@<TRIPOS>BOND
     1     1     2   ar
     2     1     5   ar
     3     2     3   ar
     4     3     4   ar
     5     3     6    1
     6     4     5   ar
     7     6     7    1
     8     7     8   ar
     9     7    12   ar
    10     8     9   ar
    11     9    10   ar
    12     9    15    1
    13    10    11   ar
    14    10    13    1
    15    11    12   ar
    16    13    14    1
