@<TRIPOS>MOLECULE
27161_ChemDiv_7465-0093
 19 21 0 0 0
SMALL
GASTEIGER
Energy = 0

@<TRIPOS>ATOM
      1 N           2.0000    2.6250    0.0000 N.4     1  LIG1        0.3783
      2 C           1.2920    1.9290    0.0000 C.3     1  LIG1        0.1543
      3 C           1.7330    0.9920    0.0000 C.3     1  LIG1        0.1124
      4 N           1.2380    0.1420    0.0000 N.3     1  LIG1       -0.2900
      5 C           0.2460    0.1420    0.0000 C.3     1  LIG1        0.0958
      6 C          -0.4420   -0.5540    0.0000 C.ar    1  LIG1       -0.0062
      7 C          -0.1880   -1.5130    0.0000 C.ar    1  LIG1        0.0002
      8 C          -0.8830   -2.2210    0.0000 C.ar    1  LIG1        0.0366
      9 C          -1.8460   -1.9670    0.0000 C.ar    1  LIG1        0.1387
     10 C          -2.0960   -1.0080    0.0000 C.ar    1  LIG1        0.0366
     11 C          -1.4000   -0.3080    0.0000 C.ar    1  LIG1        0.0002
     12 O          -2.5420   -2.6670    0.0000 O.3     1  LIG1       -0.4714
     13 C          -3.5000   -2.4130    0.0000 C.3     1  LIG1        0.2525
     14 C           2.7210    1.0790    0.0000 C.3     1  LIG1        0.0322
     15 C           2.1830    0.5380    0.0000 C.3     1  LIG1        0.0645
     16 C           1.7080    1.5380    0.0000 C.3     1  LIG1        0.1387
     17 C           3.4960    1.7080    0.0000 C.3     1  LIG1        0.0645
     18 C           3.0500    2.6710    0.0000 C.3     1  LIG1        0.1387
     19 H           1.7330   -0.7170    0.0000 H       1  LIG1        0.1237
@<TRIPOS>BOND
     1     1     2    1
     2     1    16    1
     3     1    18    1
     4     2     3    1
     5     3     4    1
     6     3    14    1
     7     4     5    1
     8     4    19    1
     9     5     6    1
    10     6     7   ar
    11     6    11   ar
    12     7     8   ar
    13     8     9   ar
    14     9    10   ar
    15     9    12    1
    16    10    11   ar
    17    12    13    1
    18    14    15    1
    19    14    17    1
    20    15    16    1
    21    17    18    1
