@<TRIPOS>MOLECULE
27169_ChemDiv_6064-0133
 28 29 0 0 0
SMALL
GASTEIGER
Energy = 0

@<TRIPOS>ATOM
      1 S          -3.4830   -0.2920    0.0000 S.O2    1  LIG1        0.0768
      2 N          -4.3380   -0.7790    0.0000 N.3     1  LIG1       -0.0793
      3 C          -5.2130   -0.2750    0.0000 C.3     1  LIG1        0.0978
      4 C          -5.1880    0.7210    0.0000 C.3     1  LIG1        0.0208
      5 C          -6.0710   -0.7630    0.0000 C.3     1  LIG1        0.0208
      6 C          -2.6080    0.2130    0.0000 C.ar    1  LIG1        0.1237
      7 C          -1.7420   -0.2920    0.0000 C.ar    1  LIG1        0.0231
      8 C          -0.8710    0.2130    0.0000 C.ar    1  LIG1        0.0383
      9 C          -0.8710    1.2210    0.0000 C.ar    1  LIG1        0.1394
     10 O          -0.0170    1.7210    0.0000 O.3     1  LIG1       -0.4656
     11 C           0.8630    1.2210    0.0000 C.3     1  LIG1        0.2896
     12 C           1.7210    1.7250    0.0000 C.2     1  LIG1        0.2702
     13 N           2.5880    1.2380    0.0000 N.am    1  LIG1       -0.2765
     14 C           2.5880    0.2250    0.0000 C.3     1  LIG1        0.0941
     15 C           3.4670   -0.2750    0.0000 C.3     1  LIG1        0.0326
     16 C           4.3250    0.2500    0.0000 C.3     1  LIG1        0.1025
     17 C           5.1880   -0.2500    0.0000 C.2     1  LIG1        0.3165
     18 O           6.0540    0.2670    0.0000 O.2     1  LIG1       -0.2501
     19 O           5.2080   -1.2290    0.0000 O.3     1  LIG1       -0.4485
     20 C           6.0710   -1.7250    0.0000 C.3     1  LIG1        0.2086
     21 C           6.0710   -2.7170    0.0000 C.3     1  LIG1        0.0513
     22 C           4.3250    1.2580    0.0000 C.3     1  LIG1        0.0326
     23 C           3.4500    1.7500    0.0000 C.3     1  LIG1        0.0941
     24 O           1.7210    2.7210    0.0000 O.2     1  LIG1       -0.2708
     25 C          -1.7420    1.7210    0.0000 C.ar    1  LIG1        0.0383
     26 C          -2.6080    1.2210    0.0000 C.ar    1  LIG1        0.0231
     27 O          -3.9750    0.5750    0.0000 O.2     1  LIG1       -0.1516
     28 O          -2.9830   -1.1420    0.0000 O.2     1  LIG1       -0.1516
@<TRIPOS>BOND
     1     1     2    1
     2     1     6    1
     3     1    27    2
     4     1    28    2
     5     2     3    1
     6     3     4    1
     7     3     5    1
     8     6     7   ar
     9     6    26   ar
    10     7     8   ar
    11     8     9   ar
    12     9    10    1
    13     9    25   ar
    14    10    11    1
    15    11    12    1
    16    12    13   am
    17    12    24    2
    18    13    14    1
    19    13    23    1
    20    14    15    1
    21    15    16    1
    22    16    17    1
    23    16    22    1
    24    17    18    2
    25    17    19    1
    26    19    20    1
    27    20    21    1
    28    22    23    1
    29    25    26   ar
