@<TRIPOS>MOLECULE
27177_ChemDiv_1682-8917
 27 29 0 0 0
SMALL
GASTEIGER
Energy = 0

@<TRIPOS>ATOM
      1 C           2.1630   -0.1710    0.0000 C.ar    1  LIG1        0.1131
      2 C           2.7380   -0.9540    0.0000 C.ar    1  LIG1        0.1515
      3 O           2.1630   -1.7790    0.0000 O.2     1  LIG1       -0.4533
      4 C           1.2040   -1.4830    0.0000 C.ar    1  LIG1        0.1457
      5 C           1.2040   -0.4750    0.0000 C.ar    1  LIG1        0.0468
      6 C           0.3500    0.0290    0.0000 C.ar    1  LIG1        0.0403
      7 C          -0.5210   -0.4750    0.0000 C.ar    1  LIG1        0.1396
      8 O          -1.4000    0.0290    0.0000 O.3     1  LIG1       -0.4638
      9 C          -2.2790   -0.4460    0.0000 C.3     1  LIG1        0.3141
     10 C          -3.1540    0.0460    0.0000 C.2     1  LIG1        0.3620
     11 O          -3.1210    1.0460    0.0000 O.2     1  LIG1       -0.2459
     12 O          -4.0130   -0.4210    0.0000 O.3     1  LIG1       -0.4459
     13 C          -4.8750    0.0830    0.0000 C.3     1  LIG1        0.2087
     14 C          -5.7500   -0.3920    0.0000 C.3     1  LIG1        0.0513
     15 C          -0.5210   -1.4830    0.0000 C.ar    1  LIG1        0.0400
     16 C           0.3500   -1.9790    0.0000 C.ar    1  LIG1        0.0406
     17 C           3.7630   -1.0460    0.0000 C.ar    1  LIG1        0.0348
     18 C           4.3250   -0.2250    0.0000 C.ar    1  LIG1        0.0030
     19 C           5.3290   -0.3000    0.0000 C.ar    1  LIG1        0.0001
     20 C           5.7460   -1.2130    0.0000 C.ar    1  LIG1        0.0000
     21 C           5.1710   -2.0670    0.0000 C.ar    1  LIG1        0.0001
     22 C           4.1830   -1.9540    0.0000 C.ar    1  LIG1        0.0030
     23 C           2.5040    0.7580    0.0000 C.2     1  LIG1        0.3443
     24 O           1.8580    1.5250    0.0000 O.2     1  LIG1       -0.2448
     25 O           3.4750    0.9580    0.0000 O.3     1  LIG1       -0.4454
     26 C           3.8170    1.8670    0.0000 C.3     1  LIG1        0.2089
     27 C           4.8000    2.0710    0.0000 C.3     1  LIG1        0.0513
@<TRIPOS>BOND
     1     1     2   ar
     2     1     5   ar
     3     1    23    1
     4     2     3   ar
     5     2    17    1
     6     3     4   ar
     7     4     5   ar
     8     4    16   ar
     9     5     6   ar
    10     6     7   ar
    11     7     8    1
    12     7    15   ar
    13     8     9    1
    14     9    10    1
    15    10    11    2
    16    10    12    1
    17    12    13    1
    18    13    14    1
    19    15    16   ar
    20    17    18   ar
    21    17    22   ar
    22    18    19   ar
    23    19    20   ar
    24    20    21   ar
    25    21    22   ar
    26    23    24    2
    27    23    25    1
    28    25    26    1
    29    26    27    1
