@<TRIPOS>MOLECULE
27173_ChemDiv_8014-9236
 21 24 0 0 0
SMALL
GASTEIGER
Energy = 0

@<TRIPOS>ATOM
      1 C           0.4460   -0.2540    0.0000 C.3     1  LIG1        0.3067
      2 O           1.3380    0.2630    0.0000 O.3     1  LIG1       -0.4611
      3 C           2.2330   -0.2580    0.0000 C.ar    1  LIG1        0.1730
      4 C           2.2290   -1.2920    0.0000 C.ar    1  LIG1        0.1724
      5 O           1.3380   -1.8040    0.0000 O.3     1  LIG1       -0.4679
      6 C           0.4420   -1.2880    0.0000 C.3     1  LIG1        0.2605
      7 C           3.1210   -1.8040    0.0000 C.ar    1  LIG1        0.0400
      8 C           4.0170   -1.2920    0.0000 C.ar    1  LIG1        0.0033
      9 C           4.0210   -0.2580    0.0000 C.ar    1  LIG1        0.0033
     10 C           3.1250    0.2580    0.0000 C.ar    1  LIG1        0.0401
     11 C          -0.4460    0.2630    0.0000 C.2     1  LIG1        0.3616
     12 O          -1.3420   -0.2540    0.0000 O.3     1  LIG1       -0.4435
     13 C          -2.2330    0.2630    0.0000 C.3     1  LIG1        0.2254
     14 C          -3.1290   -0.2540    0.0000 C.3     1  LIG1        0.1827
     15 N          -4.0250    0.2630    0.0000 N.4     1  LIG1        0.3801
     16 C          -4.0250    1.2920    0.0000 C.3     1  LIG1        0.1388
     17 C          -3.1290    1.8080    0.0000 C.3     1  LIG1        0.0667
     18 C          -2.2330    1.2920    0.0000 C.3     1  LIG1        0.0581
     19 C          -3.1500    1.0960    0.0000 C.3     1  LIG1        0.0667
     20 C          -3.2830    0.5040    0.0000 C.3     1  LIG1        0.1388
     21 O          -0.4460    1.2920    0.0000 O.2     1  LIG1       -0.2459
@<TRIPOS>BOND
     1     1     2    1
     2     1     6    1
     3     1    11    1
     4     2     3    1
     5     3     4   ar
     6     3    10   ar
     7     4     5    1
     8     4     7   ar
     9     5     6    1
    10     7     8   ar
    11     8     9   ar
    12     9    10   ar
    13    11    12    1
    14    11    21    2
    15    12    13    1
    16    13    14    1
    17    13    18    1
    18    14    15    1
    19    15    16    1
    20    15    20    1
    21    16    17    1
    22    17    18    1
    23    18    19    1
    24    19    20    1
