@<TRIPOS>MOLECULE
27175_ChemDiv_1682-8860
 24 26 0 0 0
SMALL
GASTEIGER
Energy = 0

@<TRIPOS>ATOM
      1 C           0.8540   -0.2040    0.0000 C.ar    1  LIG1        0.1131
      2 C           1.4000   -0.9880    0.0000 C.ar    1  LIG1        0.1515
      3 O           0.8540   -1.8170    0.0000 O.2     1  LIG1       -0.4533
      4 C          -0.0790   -1.5250    0.0000 C.ar    1  LIG1        0.1457
      5 C          -0.0790   -0.4960    0.0000 C.ar    1  LIG1        0.0468
      6 C          -0.9330    0.0000    0.0000 C.ar    1  LIG1        0.0409
      7 C          -1.8130   -0.4960    0.0000 C.ar    1  LIG1        0.1487
      8 O          -2.6920    0.0000    0.0000 O.3     1  LIG1       -0.4241
      9 C          -3.5420   -0.4960    0.0000 C.2     1  LIG1        0.3220
     10 O          -3.5420   -1.5250    0.0000 O.2     1  LIG1       -0.2497
     11 C          -4.4000    0.0000    0.0000 C.3     1  LIG1        0.1216
     12 C          -1.8130   -1.5250    0.0000 C.ar    1  LIG1        0.0407
     13 C          -0.9330   -2.0210    0.0000 C.ar    1  LIG1        0.0406
     14 C           2.4040   -0.9750    0.0000 C.ar    1  LIG1        0.0348
     15 C           2.9290   -1.8170    0.0000 C.ar    1  LIG1        0.0030
     16 C           3.9250   -1.7710    0.0000 C.ar    1  LIG1        0.0001
     17 C           4.3960   -0.8750    0.0000 C.ar    1  LIG1        0.0000
     18 C           3.8710   -0.0250    0.0000 C.ar    1  LIG1        0.0001
     19 C           2.8670   -0.0540    0.0000 C.ar    1  LIG1        0.0030
     20 C           1.1710    0.7580    0.0000 C.2     1  LIG1        0.3443
     21 O           2.1500    0.9710    0.0000 O.2     1  LIG1       -0.2448
     22 O           0.5000    1.4960    0.0000 O.3     1  LIG1       -0.4454
     23 C          -0.4630    1.2880    0.0000 C.3     1  LIG1        0.2089
     24 C          -1.1330    2.0250    0.0000 C.3     1  LIG1        0.0513
@<TRIPOS>BOND
     1     1     2   ar
     2     1     5   ar
     3     1    20    1
     4     2     3   ar
     5     2    14    1
     6     3     4   ar
     7     4     5   ar
     8     4    13   ar
     9     5     6   ar
    10     6     7   ar
    11     7     8    1
    12     7    12   ar
    13     8     9    1
    14     9    10    2
    15     9    11    1
    16    12    13   ar
    17    14    15   ar
    18    14    19   ar
    19    15    16   ar
    20    16    17   ar
    21    17    18   ar
    22    18    19   ar
    23    20    21    2
    24    20    22    1
    25    22    23    1
    26    23    24    1
