@<TRIPOS>MOLECULE
27179_ChemDiv_1682-8918
 26 28 0 0 0
SMALL
GASTEIGER
Energy = 0

@<TRIPOS>ATOM
      1 C           1.2830   -0.2670    0.0000 C.ar    1  LIG1        0.1131
      2 C           1.8580   -1.0830    0.0000 C.ar    1  LIG1        0.1515
      3 O           1.2830   -1.8790    0.0000 O.2     1  LIG1       -0.4533
      4 C           0.3420   -1.5790    0.0000 C.ar    1  LIG1        0.1457
      5 C           0.3420   -0.5710    0.0000 C.ar    1  LIG1        0.0468
      6 C          -0.5130   -0.0670    0.0000 C.ar    1  LIG1        0.0403
      7 C          -1.3880   -0.5710    0.0000 C.ar    1  LIG1        0.1396
      8 O          -2.2670   -0.0670    0.0000 O.3     1  LIG1       -0.4638
      9 C          -3.1380   -0.5710    0.0000 C.3     1  LIG1        0.3141
     10 C          -4.0000   -0.0670    0.0000 C.2     1  LIG1        0.3621
     11 O          -4.8710   -0.5710    0.0000 O.2     1  LIG1       -0.2459
     12 O          -4.0000    0.9420    0.0000 O.3     1  LIG1       -0.4418
     13 C          -3.1380    1.4420    0.0000 C.3     1  LIG1        0.2557
     14 C          -1.3880   -1.5790    0.0000 C.ar    1  LIG1        0.0400
     15 C          -0.5130   -2.0710    0.0000 C.ar    1  LIG1        0.0406
     16 C           2.8710   -0.9920    0.0000 C.ar    1  LIG1        0.0348
     17 C           3.3080   -0.1040    0.0000 C.ar    1  LIG1        0.0030
     18 C           4.3040   -0.0330    0.0000 C.ar    1  LIG1        0.0001
     19 C           4.8670   -0.8960    0.0000 C.ar    1  LIG1        0.0000
     20 C           4.4210   -1.7670    0.0000 C.ar    1  LIG1        0.0001
     21 C           3.4330   -1.8380    0.0000 C.ar    1  LIG1        0.0030
     22 C           1.6080    0.6920    0.0000 C.2     1  LIG1        0.3443
     23 O           0.9210    1.4420    0.0000 O.2     1  LIG1       -0.2448
     24 O           2.5710    0.9040    0.0000 O.3     1  LIG1       -0.4454
     25 C           2.8710    1.8420    0.0000 C.3     1  LIG1        0.2089
     26 C           3.8250    2.0750    0.0000 C.3     1  LIG1        0.0513
@<TRIPOS>BOND
     1     1     2   ar
     2     1     5   ar
     3     1    22    1
     4     2     3   ar
     5     2    16    1
     6     3     4   ar
     7     4     5   ar
     8     4    15   ar
     9     5     6   ar
    10     6     7   ar
    11     7     8    1
    12     7    14   ar
    13     8     9    1
    14     9    10    1
    15    10    11    2
    16    10    12    1
    17    12    13    1
    18    14    15   ar
    19    16    17   ar
    20    16    21   ar
    21    17    18   ar
    22    18    19   ar
    23    19    20   ar
    24    20    21   ar
    25    22    23    2
    26    22    24    1
    27    24    25    1
    28    25    26    1
