@<TRIPOS>MOLECULE
27181_ChemDiv_1988-1470
 21 23 0 0 0
SMALL
GASTEIGER
Energy = 0

@<TRIPOS>ATOM
      1 C          -0.0130   -0.1790    0.0000 C.ar    1  LIG1        0.1131
      2 C           0.5580   -0.9380    0.0000 C.ar    1  LIG1        0.1515
      3 O          -0.0130   -1.8000    0.0000 O.2     1  LIG1       -0.4533
      4 C          -0.9580   -1.4750    0.0000 C.ar    1  LIG1        0.1457
      5 C          -0.9580   -0.4670    0.0000 C.ar    1  LIG1        0.0470
      6 C          -1.8130    0.0170    0.0000 C.ar    1  LIG1        0.0454
      7 C          -2.6920   -0.4670    0.0000 C.ar    1  LIG1        0.1959
      8 C          -2.6920   -1.4750    0.0000 C.ar    1  LIG1        0.0452
      9 C          -1.8130   -1.9830    0.0000 C.ar    1  LIG1        0.0408
     10 O          -3.5710    0.0460    0.0000 O.3     1  LIG1       -0.2866
     11 C           1.5540   -1.0210    0.0000 C.ar    1  LIG1        0.0348
     12 C           2.1170   -0.2250    0.0000 C.ar    1  LIG1        0.0030
     13 C           3.1130   -0.3210    0.0000 C.ar    1  LIG1        0.0001
     14 C           3.5670   -1.2250    0.0000 C.ar    1  LIG1        0.0000
     15 C           2.9710   -2.0540    0.0000 C.ar    1  LIG1        0.0001
     16 C           1.9790   -1.9580    0.0000 C.ar    1  LIG1        0.0030
     17 C           0.3380    0.7830    0.0000 C.2     1  LIG1        0.3443
     18 O          -0.3130    1.5170    0.0000 O.2     1  LIG1       -0.2448
     19 O           1.2960    0.9540    0.0000 O.3     1  LIG1       -0.4454
     20 C           1.6130    1.8880    0.0000 C.3     1  LIG1        0.2089
     21 C           2.6080    2.0580    0.0000 C.3     1  LIG1        0.0513
@<TRIPOS>BOND
     1     1     2   ar
     2     1     5   ar
     3     1    17    1
     4     2     3   ar
     5     2    11    1
     6     3     4   ar
     7     4     5   ar
     8     4     9   ar
     9     5     6   ar
    10     6     7   ar
    11     7     8   ar
    12     7    10    1
    13     8     9   ar
    14    11    12   ar
    15    11    16   ar
    16    12    13   ar
    17    13    14   ar
    18    14    15   ar
    19    15    16   ar
    20    17    18    2
    21    17    19    1
    22    19    20    1
    23    20    21    1
