@<TRIPOS>MOLECULE
27188_ChemDiv_1770-0352
 16 18 0 0 0
SMALL
GASTEIGER
Energy = 0

@<TRIPOS>ATOM
      1 C           0.9630    0.5540    0.0000 C.ar    1  LIG1        0.4331
      2 N           0.3500    1.3670    0.0000 N.ar    1  LIG1       -0.2539
      3 C          -0.6040    1.0540    0.0000 C.ar    1  LIG1        0.0825
      4 C          -0.6040    0.0540    0.0000 C.ar    1  LIG1        0.0825
      5 N           0.3500   -0.2750    0.0000 N.ar    1  LIG1       -0.2541
      6 C           0.6210   -1.2210    0.0000 C.3     1  LIG1        0.1134
      7 C           1.5790   -1.4500    0.0000 C.3     1  LIG1        0.0247
      8 C           1.8540   -2.3830    0.0000 C.3     1  LIG1        0.0021
      9 C          -1.4540   -0.4790    0.0000 C.ar    1  LIG1        0.0189
     10 C          -2.3380    0.0540    0.0000 C.ar    1  LIG1        0.0016
     11 C          -2.3380    1.0540    0.0000 C.ar    1  LIG1        0.0016
     12 C          -1.4540    1.5500    0.0000 C.ar    1  LIG1        0.0189
     13 C           0.7460    2.2710    0.0000 C.3     1  LIG1        0.1209
     14 C           1.7290    2.3880    0.0000 C.3     1  LIG1        0.1172
     15 C           2.3330    1.5670    0.0000 C.3     1  LIG1        0.3991
     16 N           1.9380    0.6750    0.0000 N.2     1  LIG1        0.0916
@<TRIPOS>BOND
     1     1     2   ar
     2     1     5   ar
     3     1    16    2
     4     2     3   ar
     5     2    13    1
     6     3     4   ar
     7     3    12   ar
     8     4     5   ar
     9     4     9   ar
    10     5     6    1
    11     6     7    1
    12     7     8    1
    13     9    10   ar
    14    10    11   ar
    15    11    12   ar
    16    13    14    1
    17    14    15    1
    18    15    16    1
