@<TRIPOS>MOLECULE
27187_ChemDiv_8012-5497
 30 34 0 0 0
SMALL
GASTEIGER
Energy = 0

@<TRIPOS>ATOM
      1 C          -2.6830    1.0380    0.0000 C.3     1  LIG1        0.0457
      2 N          -1.7000    1.2040    0.0000 N.4     1  LIG1        0.3718
      3 C          -1.3130    2.1330    0.0000 C.3     1  LIG1        0.1600
      4 C          -0.3210    2.2830    0.0000 C.3     1  LIG1        0.1567
      5 N           0.3130    1.4880    0.0000 N.am    1  LIG1       -0.2645
      6 C           1.3000    1.6000    0.0000 C.2     1  LIG1        0.2496
      7 C           1.8960    0.7830    0.0000 C.ar    1  LIG1        0.0598
      8 C           2.8880    0.8630    0.0000 C.ar    1  LIG1        0.0448
      9 C           3.4290    0.0130    0.0000 C.ar    1  LIG1        0.1756
     10 C           3.0580   -0.8670    0.0000 C.ar    1  LIG1        0.2061
     11 C           2.0250   -0.9580    0.0000 C.ar    1  LIG1        0.1756
     12 C           1.4500   -0.1460    0.0000 C.ar    1  LIG1        0.0448
     13 O           1.5880   -1.8460    0.0000 O.3     1  LIG1       -0.4683
     14 C           0.6080   -1.9040    0.0000 C.3     1  LIG1        0.2526
     15 O           3.7000   -1.6130    0.0000 O.3     1  LIG1       -0.4654
     16 C           3.3880   -2.5290    0.0000 C.3     1  LIG1        0.2528
     17 O           4.4330    0.0420    0.0000 O.3     1  LIG1       -0.4683
     18 C           4.9460   -0.8040    0.0000 C.3     1  LIG1        0.2526
     19 O           1.7130    2.5330    0.0000 O.2     1  LIG1       -0.2699
     20 C          -0.0960    0.5670    0.0000 C.3     1  LIG1        0.1567
     21 C          -1.0960    0.4420    0.0000 C.3     1  LIG1        0.1600
     22 C          -3.2670    0.1380    0.0000 C.3     1  LIG1        0.0512
     23 C          -4.1460    0.5670    0.0000 C.3     1  LIG1        0.0055
     24 C          -4.9500    0.1960    0.0000 C.3     1  LIG1        0.0004
     25 C          -4.4750    1.1170    0.0000 C.3     1  LIG1        0.0055
     26 C          -3.5630    0.7130    0.0000 C.3     1  LIG1        0.0512
     27 C          -4.4830    2.1580    0.0000 C.3     1  LIG1        0.0004
     28 C          -3.6420    2.5250    0.0000 C.3     1  LIG1        0.0055
     29 C          -2.6830    2.0130    0.0000 C.3     1  LIG1        0.0512
     30 C          -4.1460    1.6080    0.0000 C.3     1  LIG1        0.0004
@<TRIPOS>BOND
     1     1     2    1
     2     1    22    1
     3     1    26    1
     4     1    29    1
     5     2     3    1
     6     2    21    1
     7     3     4    1
     8     4     5    1
     9     5     6   am
    10     5    20    1
    11     6     7    1
    12     6    19    2
    13     7     8   ar
    14     7    12   ar
    15     8     9   ar
    16     9    10   ar
    17     9    17    1
    18    10    11   ar
    19    10    15    1
    20    11    12   ar
    21    11    13    1
    22    13    14    1
    23    15    16    1
    24    17    18    1
    25    20    21    1
    26    22    23    1
    27    23    24    1
    28    23    30    1
    29    24    25    1
    30    25    26    1
    31    25    27    1
    32    27    28    1
    33    28    29    1
    34    28    30    1
