@<TRIPOS>MOLECULE
27186_ChemDiv_D011-2994
 20 22 0 0 0
SMALL
GASTEIGER
Energy = 0

@<TRIPOS>ATOM
      1 N           0.5500    1.2540    0.0000 N.ar    1  LIG1       -0.3107
      2 C           1.1420    2.0630    0.0000 C.ar    1  LIG1        0.1210
      3 N           0.5500    2.8750    0.0000 N.ar    1  LIG1       -0.2309
      4 C          -0.4040    2.5750    0.0000 C.ar    1  LIG1        0.0983
      5 C          -0.4040    1.5580    0.0000 C.ar    1  LIG1        0.0789
      6 C          -1.2830    1.0580    0.0000 C.ar    1  LIG1        0.0188
      7 C          -2.1460    1.5580    0.0000 C.ar    1  LIG1        0.0016
      8 C          -2.1460    2.5630    0.0000 C.ar    1  LIG1        0.0016
      9 C          -1.2830    3.0630    0.0000 C.ar    1  LIG1        0.0206
     10 C           2.1420    2.0630    0.0000 C.3     1  LIG1        0.0719
     11 C           1.0500    0.3920    0.0000 C.3     1  LIG1        0.1333
     12 C           0.5500   -0.4710    0.0000 C.ar    1  LIG1       -0.0075
     13 C          -0.4500   -0.4710    0.0000 C.ar    1  LIG1       -0.0246
     14 C          -0.9460   -1.3330    0.0000 C.ar    1  LIG1       -0.0088
     15 C          -0.4380   -2.1960    0.0000 C.ar    1  LIG1       -0.0225
     16 C           0.5630   -2.1920    0.0000 C.ar    1  LIG1       -0.0088
     17 C           1.0500   -1.3290    0.0000 C.ar    1  LIG1       -0.0246
     18 C           2.0500   -1.3170    0.0000 C.3     1  LIG1        0.0307
     19 C          -0.9330   -3.0580    0.0000 C.3     1  LIG1        0.0310
     20 C          -0.9460    0.3920    0.0000 C.3     1  LIG1        0.0307
@<TRIPOS>BOND
     1     1     2   ar
     2     1     5   ar
     3     1    11    1
     4     2     3   ar
     5     2    10    1
     6     3     4   ar
     7     4     5   ar
     8     4     9   ar
     9     5     6   ar
    10     6     7   ar
    11     7     8   ar
    12     8     9   ar
    13    11    12    1
    14    12    13   ar
    15    12    17   ar
    16    13    14   ar
    17    13    20    1
    18    14    15   ar
    19    15    16   ar
    20    15    19    1
    21    16    17   ar
    22    17    18    1
