@<TRIPOS>MOLECULE
27185_ChemDiv_7837-0233
 20 21 0 0 0
SMALL
GASTEIGER
Energy = 0

@<TRIPOS>ATOM
      1 N           1.3000    0.0000    0.0000 N.4     1  LIG1        0.3787
      2 C           0.4290   -0.5000    0.0000 C.3     1  LIG1        0.1662
      3 C          -0.4330    0.0000    0.0000 C.ar    1  LIG1        0.0404
      4 C          -0.4330    1.0000    0.0000 C.ar    1  LIG1        0.0385
      5 C          -1.2960    1.5000    0.0000 C.ar    1  LIG1        0.1416
      6 C          -2.1710    1.0000    0.0000 C.ar    1  LIG1        0.0737
      7 C          -2.1630   -0.0130    0.0000 C.ar    1  LIG1        0.1416
      8 C          -1.2960   -0.5000    0.0000 C.ar    1  LIG1        0.0385
      9 O          -3.0250   -0.5170    0.0000 O.3     1  LIG1       -0.4713
     10 C          -3.0210   -1.5170    0.0000 C.3     1  LIG1        0.2525
     11 O          -1.3080    2.5000    0.0000 O.3     1  LIG1       -0.4713
     12 C          -0.4330    3.0000    0.0000 C.3     1  LIG1        0.2525
     13 C           2.1580   -0.4960    0.0000 C.3     1  LIG1        0.1078
     14 C           2.1580   -1.4960    0.0000 C.3     1  LIG1        0.0937
     15 C           1.2960   -1.9960    0.0000 C.3     1  LIG1        0.1881
     16 O           1.2960   -2.9960    0.0000 O.3     1  LIG1       -0.2202
     17 C           3.0210    0.0000    0.0000 C.3     1  LIG1        0.1454
     18 N           3.0210    1.0000    0.0000 N.3     1  LIG1       -0.2057
     19 C           2.1580    1.5040    0.0000 C.3     1  LIG1        0.1514
     20 C           1.3000    1.0000    0.0000 C.3     1  LIG1        0.1579
@<TRIPOS>BOND
     1     1     2    1
     2     1    13    1
     3     1    20    1
     4     2     3    1
     5     3     4   ar
     6     3     8   ar
     7     4     5   ar
     8     5     6   ar
     9     5    11    1
    10     6     7   ar
    11     7     8   ar
    12     7     9    1
    13     9    10    1
    14    11    12    1
    15    13    14    1
    16    13    17    1
    17    14    15    1
    18    15    16    1
    19    17    18    1
    20    18    19    1
    21    19    20    1
