@<TRIPOS>MOLECULE
27183_ChemDiv_2294-1273
 25 27 0 0 0
SMALL
GASTEIGER
Energy = 0

@<TRIPOS>ATOM
      1 C           0.8420    0.0210    0.0000 C.ar    1  LIG1        0.1131
      2 C           1.4380   -0.7790    0.0000 C.ar    1  LIG1        0.1515
      3 O           0.8250   -1.5750    0.0000 O.2     1  LIG1       -0.4533
      4 C          -0.1210   -1.2710    0.0000 C.ar    1  LIG1        0.1457
      5 C          -0.1130   -0.2790    0.0000 C.ar    1  LIG1        0.0468
      6 C          -0.9710    0.2170    0.0000 C.ar    1  LIG1        0.0409
      7 C          -1.8380   -0.2790    0.0000 C.ar    1  LIG1        0.1487
      8 O          -2.7170    0.2330    0.0000 O.3     1  LIG1       -0.4241
      9 C          -3.5630    0.7420    0.0000 C.2     1  LIG1        0.3215
     10 O          -3.5630    1.7670    0.0000 O.2     1  LIG1       -0.2497
     11 C          -4.4380    0.2460    0.0000 C.3     1  LIG1        0.1100
     12 C          -4.4380   -0.7750    0.0000 C.3     1  LIG1        0.0122
     13 C          -1.8380   -1.2710    0.0000 C.ar    1  LIG1        0.0407
     14 C          -0.9710   -1.7630    0.0000 C.ar    1  LIG1        0.0406
     15 C           2.4290   -0.7960    0.0000 C.ar    1  LIG1        0.0348
     16 C           2.9290    0.0710    0.0000 C.ar    1  LIG1        0.0030
     17 C           3.9210    0.0710    0.0000 C.ar    1  LIG1        0.0001
     18 C           4.4330   -0.8170    0.0000 C.ar    1  LIG1        0.0000
     19 C           3.9210   -1.6630    0.0000 C.ar    1  LIG1        0.0001
     20 C           2.9250   -1.6460    0.0000 C.ar    1  LIG1        0.0030
     21 C           1.5500    0.7420    0.0000 C.2     1  LIG1        0.3443
     22 O           1.2960    1.7040    0.0000 O.2     1  LIG1       -0.2448
     23 O           2.5040    0.4750    0.0000 O.3     1  LIG1       -0.4454
     24 C           3.2130    1.1830    0.0000 C.3     1  LIG1        0.2089
     25 C           4.1960    0.9250    0.0000 C.3     1  LIG1        0.0513
@<TRIPOS>BOND
     1     1     2   ar
     2     1     5   ar
     3     1    21    1
     4     2     3   ar
     5     2    15    1
     6     3     4   ar
     7     4     5   ar
     8     4    14   ar
     9     5     6   ar
    10     6     7   ar
    11     7     8    1
    12     7    13   ar
    13     8     9    1
    14     9    10    2
    15     9    11    1
    16    11    12    1
    17    13    14   ar
    18    15    16   ar
    19    15    20   ar
    20    16    17   ar
    21    17    18   ar
    22    18    19   ar
    23    19    20   ar
    24    21    22    2
    25    21    23    1
    26    23    24    1
    27    24    25    1
