@<TRIPOS>MOLECULE
27189_ChemDiv_8013-0189
 18 19 0 0 0
SMALL
GASTEIGER
Energy = 0

@<TRIPOS>ATOM
      1 C          -0.0330   -0.5170    0.0000 C.2     1  LIG1        0.0847
      2 N           0.8250   -0.0130    0.0000 N.am    1  LIG1       -0.2918
      3 C           0.8250    0.9750    0.0000 C.3     1  LIG1        0.1548
      4 C           1.6830    1.4750    0.0000 C.3     1  LIG1        0.1605
      5 N           2.5420    0.9750    0.0000 N.4     1  LIG1        0.3799
      6 C           2.5420   -0.0130    0.0000 C.3     1  LIG1        0.1605
      7 C           1.6830   -0.5170    0.0000 C.3     1  LIG1        0.1548
      8 C           3.3960    1.4750    0.0000 C.3     1  LIG1        0.1389
      9 C           4.3580    0.9750    0.0000 C.3     1  LIG1        0.0688
     10 C          -0.9170    0.0080    0.0000 C.ar    1  LIG1        0.0202
     11 C          -0.9170    1.0080    0.0000 C.ar    1  LIG1        0.0049
     12 C          -1.7670    1.5040    0.0000 C.ar    1  LIG1        0.0370
     13 C          -2.6460    1.0080    0.0000 C.ar    1  LIG1        0.1387
     14 C          -2.6460    0.0080    0.0000 C.ar    1  LIG1        0.0370
     15 C          -1.7670   -0.4920    0.0000 C.ar    1  LIG1        0.0049
     16 O          -3.5000    1.4960    0.0000 O.3     1  LIG1       -0.4714
     17 C          -4.3630    0.9880    0.0000 C.3     1  LIG1        0.2525
     18 S          -0.0330   -1.5000    0.0000 S.2     1  LIG1       -0.0347
@<TRIPOS>BOND
     1     1     2    1
     2     1    10    1
     3     1    18    2
     4     2     3    1
     5     2     7    1
     6     3     4    1
     7     4     5    1
     8     5     6    1
     9     5     8    1
    10     6     7    1
    11     8     9    1
    12    10    11   ar
    13    10    15   ar
    14    11    12   ar
    15    12    13   ar
    16    13    14   ar
    17    13    16    1
    18    14    15   ar
    19    16    17    1
