@<TRIPOS>MOLECULE
27195_ChemDiv_8017-2108
 23 24 0 0 0
SMALL
GASTEIGER
Energy = 0

@<TRIPOS>ATOM
      1 C           2.0080   -1.5580    0.0000 C.ar    1  LIG1        0.2060
      2 C           1.0330   -1.8210    0.0000 C.ar    1  LIG1        0.1752
      3 C           0.3290   -1.1210    0.0000 C.ar    1  LIG1        0.0373
      4 C           0.5790   -0.1460    0.0000 C.ar    1  LIG1       -0.0001
      5 C           1.5540    0.1210    0.0000 C.ar    1  LIG1        0.0373
      6 C           2.2580   -0.5960    0.0000 C.ar    1  LIG1        0.1752
      7 O           3.2330   -0.3330    0.0000 O.3     1  LIG1       -0.4683
      8 C           3.9330   -1.0420    0.0000 C.3     1  LIG1        0.2526
      9 C          -0.1380    0.5580    0.0000 C.3     1  LIG1        0.0960
     10 N          -0.1380    1.5580    0.0000 N.3     1  LIG1       -0.2890
     11 C          -1.0000    2.0580    0.0000 C.3     1  LIG1        0.1263
     12 C          -1.8710    1.5580    0.0000 C.3     1  LIG1        0.1031
     13 N          -2.7830    1.9630    0.0000 N.4     1  LIG1        0.3740
     14 C          -3.4460    1.2210    0.0000 C.3     1  LIG1        0.1385
     15 C          -2.9460    0.3580    0.0000 C.3     1  LIG1        0.0687
     16 C          -1.9710    0.5630    0.0000 C.3     1  LIG1        0.0643
     17 C          -2.9960    2.9330    0.0000 C.3     1  LIG1        0.1385
     18 C          -3.9380    3.2380    0.0000 C.3     1  LIG1        0.0688
     19 O           0.7710   -2.7960    0.0000 O.3     1  LIG1       -0.4683
     20 C          -0.1960   -3.0460    0.0000 C.3     1  LIG1        0.2526
     21 O           2.7080   -2.2710    0.0000 O.3     1  LIG1       -0.4654
     22 C           2.4500   -3.2330    0.0000 C.3     1  LIG1        0.2528
     23 H           0.7330    2.0580    0.0000 H       1  LIG1        0.1237
@<TRIPOS>BOND
     1     1     2   ar
     2     1     6   ar
     3     1    21    1
     4     2     3   ar
     5     2    19    1
     6     3     4   ar
     7     4     5   ar
     8     4     9    1
     9     5     6   ar
    10     6     7    1
    11     7     8    1
    12     9    10    1
    13    10    11    1
    14    10    23    1
    15    11    12    1
    16    12    13    1
    17    12    16    1
    18    13    14    1
    19    13    17    1
    20    14    15    1
    21    15    16    1
    22    17    18    1
    23    19    20    1
    24    21    22    1
