@<TRIPOS>MOLECULE
27193_ChemDiv_8016-6311
 23 25 0 0 0
SMALL
GASTEIGER
Energy = 0

@<TRIPOS>ATOM
      1 C          -0.4420   -1.0130    0.0000 C.2     1  LIG1        0.2651
      2 N          -1.3210   -0.5040    0.0000 N.am    1  LIG1       -0.1973
      3 C          -2.2040   -1.0130    0.0000 C.3     1  LIG1        0.1525
      4 C          -2.2040   -2.0380    0.0000 C.3     1  LIG1        0.1604
      5 N          -3.0920   -2.5420    0.0000 N.4     1  LIG1        0.3786
      6 C          -3.9790   -2.0380    0.0000 C.3     1  LIG1        0.1387
      7 C          -3.9790   -1.0130    0.0000 C.3     1  LIG1        0.0648
      8 C          -3.0920   -0.4920    0.0000 C.3     1  LIG1        0.0378
      9 C          -3.7170   -1.1380    0.0000 C.3     1  LIG1        0.0648
     10 C          -3.7170   -1.8670    0.0000 C.3     1  LIG1        0.1387
     11 C           0.4420   -0.5040    0.0000 C.ar    1  LIG1        0.0613
     12 C           1.3250   -1.0170    0.0000 C.ar    1  LIG1        0.0448
     13 C           2.2040   -0.5040    0.0000 C.ar    1  LIG1        0.1756
     14 C           2.2040    0.5080    0.0000 C.ar    1  LIG1        0.2061
     15 C           1.3250    1.0210    0.0000 C.ar    1  LIG1        0.1756
     16 C           0.4420    0.5080    0.0000 C.ar    1  LIG1        0.0448
     17 O           1.3290    2.0420    0.0000 O.3     1  LIG1       -0.4683
     18 C           2.2130    2.5460    0.0000 C.3     1  LIG1        0.2526
     19 O           3.0920    1.0170    0.0000 O.3     1  LIG1       -0.4654
     20 C           3.9750    0.5080    0.0000 C.3     1  LIG1        0.2528
     21 O           3.0920   -1.0170    0.0000 O.3     1  LIG1       -0.4683
     22 C           3.0880   -2.0380    0.0000 C.3     1  LIG1        0.2526
     23 O          -0.4420   -2.0290    0.0000 O.2     1  LIG1       -0.2684
@<TRIPOS>BOND
     1     1     2   am
     2     1    11    1
     3     1    23    2
     4     2     3    1
     5     3     4    1
     6     3     8    1
     7     4     5    1
     8     5     6    1
     9     5    10    1
    10     6     7    1
    11     7     8    1
    12     8     9    1
    13     9    10    1
    14    11    12   ar
    15    11    16   ar
    16    12    13   ar
    17    13    14   ar
    18    13    21    1
    19    14    15   ar
    20    14    19    1
    21    15    16   ar
    22    15    17    1
    23    17    18    1
    24    19    20    1
    25    21    22    1
