@<TRIPOS>MOLECULE
27192_ChemDiv_3260-0225
 16 18 0 0 0
SMALL
GASTEIGER
Energy = 0

@<TRIPOS>ATOM
      1 C           0.7960    0.9330    0.0000 C.ar    1  LIG1        0.4334
      2 N           0.7960    1.8540    0.0000 N.ar    1  LIG1       -0.2466
      3 C          -0.8040    1.8670    0.0000 C.ar    1  LIG1        0.0827
      4 C          -0.8040    0.9330    0.0000 C.ar    1  LIG1        0.0825
      5 N          -0.0170    0.4670    0.0000 N.ar    1  LIG1       -0.2541
      6 C          -0.0170   -0.4500    0.0000 C.3     1  LIG1        0.1134
      7 C           0.7830   -0.9170    0.0000 C.3     1  LIG1        0.0247
      8 C           0.7670   -1.8420    0.0000 C.3     1  LIG1        0.0020
      9 C           1.5670   -2.3130    0.0000 C.3     1  LIG1        0.0001
     10 C          -1.6130    0.4670    0.0000 C.ar    1  LIG1        0.0189
     11 C          -2.4080    0.9290    0.0000 C.ar    1  LIG1        0.0016
     12 C          -2.4080    1.8540    0.0000 C.ar    1  LIG1        0.0016
     13 C          -1.6130    2.3170    0.0000 C.ar    1  LIG1        0.0189
     14 C           2.4040    1.8540    0.0000 C.3     1  LIG1        0.2056
     15 C           2.3920    0.9290    0.0000 C.3     1  LIG1        0.4215
     16 N           1.6040    0.4670    0.0000 N.2     1  LIG1        0.0938
@<TRIPOS>BOND
     1     1     2   ar
     2     1     5   ar
     3     1    16    2
     4     2     3   ar
     5     2    14    1
     6     3     4   ar
     7     3    13   ar
     8     4     5   ar
     9     4    10   ar
    10     5     6    1
    11     6     7    1
    12     7     8    1
    13     8     9    1
    14    10    11   ar
    15    11    12   ar
    16    12    13   ar
    17    14    15    1
    18    15    16    1
