@<TRIPOS>MOLECULE
27197_ChemDiv_8017-2694
 28 30 0 0 0
SMALL
GASTEIGER
Energy = 0

@<TRIPOS>ATOM
      1 N          -2.9210    0.2710    0.0000 N.4     1  LIG1        0.3740
      2 C          -2.0080   -0.1380    0.0000 C.3     1  LIG1        0.1031
      3 C          -1.1420    0.3630    0.0000 C.3     1  LIG1        0.1263
      4 N          -0.2790   -0.1380    0.0000 N.3     1  LIG1       -0.2889
      5 C          -0.2790   -1.1290    0.0000 C.3     1  LIG1        0.0989
      6 C           0.4250   -1.8420    0.0000 C.ar    1  LIG1        0.0307
      7 C           1.3880   -1.5790    0.0000 C.ar    1  LIG1        0.1700
      8 O           1.6420   -0.6130    0.0000 O.3     1  LIG1       -0.4679
      9 C           2.6040   -0.3420    0.0000 C.3     1  LIG1        0.2321
     10 C           2.8670    0.6250    0.0000 C.ar    1  LIG1        0.0213
     11 C           3.8290    0.8830    0.0000 C.ar    1  LIG1        0.0016
     12 C           4.0880    1.8500    0.0000 C.ar    1  LIG1        0.0294
     13 C           3.3670    2.5500    0.0000 C.ar    1  LIG1        0.1401
     14 F           3.6290    3.5210    0.0000 F       1  LIG1       -0.2042
     15 C           2.4040    2.2830    0.0000 C.ar    1  LIG1        0.0294
     16 C           2.1540    1.3210    0.0000 C.ar    1  LIG1        0.0016
     17 C           2.1040   -2.2790    0.0000 C.ar    1  LIG1        0.1721
     18 O           3.0750   -2.0170    0.0000 O.3     1  LIG1       -0.4684
     19 C           3.7790   -2.7290    0.0000 C.3     1  LIG1        0.2526
     20 C           1.8500   -3.2540    0.0000 C.ar    1  LIG1        0.0400
     21 C           0.8790   -3.5170    0.0000 C.ar    1  LIG1        0.0030
     22 C           0.1670   -2.8040    0.0000 C.ar    1  LIG1        0.0003
     23 C          -2.1170   -1.1290    0.0000 C.3     1  LIG1        0.0643
     24 C          -3.0920   -1.3420    0.0000 C.3     1  LIG1        0.0687
     25 C          -3.5920   -0.4750    0.0000 C.3     1  LIG1        0.1385
     26 C          -3.1330    1.2460    0.0000 C.3     1  LIG1        0.1385
     27 C          -4.0920    1.5580    0.0000 C.3     1  LIG1        0.0688
     28 H           0.5790    0.3630    0.0000 H       1  LIG1        0.1237
@<TRIPOS>BOND
     1     1     2    1
     2     1    25    1
     3     1    26    1
     4     2     3    1
     5     2    23    1
     6     3     4    1
     7     4     5    1
     8     4    28    1
     9     5     6    1
    10     6     7   ar
    11     6    22   ar
    12     7     8    1
    13     7    17   ar
    14     8     9    1
    15     9    10    1
    16    10    11   ar
    17    10    16   ar
    18    11    12   ar
    19    12    13   ar
    20    13    14    1
    21    13    15   ar
    22    15    16   ar
    23    17    18    1
    24    17    20   ar
    25    18    19    1
    26    20    21   ar
    27    21    22   ar
    28    23    24    1
    29    24    25    1
    30    26    27    1
