@<TRIPOS>MOLECULE
27199_ChemDiv_D090-0164
 25 28 0 0 0
SMALL
GASTEIGER
Energy = 0

@<TRIPOS>ATOM
      1 N          -1.3420    1.0380    0.0000 N.3     1  LIG1       -0.2101
      2 C          -2.2380    0.5250    0.0000 C.3     1  LIG1        0.1301
      3 C          -2.2380   -0.5040    0.0000 C.3     1  LIG1        0.1560
      4 N          -3.1210   -1.0170    0.0000 N.4     1  LIG1        0.3783
      5 C          -4.0130   -0.5040    0.0000 C.3     1  LIG1        0.1387
      6 C          -4.0080    0.5250    0.0000 C.3     1  LIG1        0.0645
      7 C          -3.1210    1.0500    0.0000 C.3     1  LIG1        0.0338
      8 C          -3.4710    0.4880    0.0000 C.3     1  LIG1        0.0645
      9 C          -3.4710   -0.3670    0.0000 C.3     1  LIG1        0.1387
     10 C          -0.4500    0.5170    0.0000 C.3     1  LIG1        0.0994
     11 C           0.4460    1.0290    0.0000 C.ar    1  LIG1       -0.0060
     12 C           1.3250    0.5130    0.0000 C.ar    1  LIG1        0.0002
     13 C           2.2250    1.0250    0.0000 C.ar    1  LIG1        0.0366
     14 C           2.2250    2.0540    0.0000 C.ar    1  LIG1        0.1387
     15 C           1.3250    2.5750    0.0000 C.ar    1  LIG1        0.0366
     16 C           0.4380    2.0540    0.0000 C.ar    1  LIG1        0.0002
     17 O           3.1170    2.5670    0.0000 O.3     1  LIG1       -0.4714
     18 C           4.0080    2.0500    0.0000 C.3     1  LIG1        0.2525
     19 C          -0.4540   -0.5080    0.0000 C.3     1  LIG1        0.0482
     20 C           0.4380   -1.0290    0.0000 C.ar    1  LIG1       -0.0204
     21 C           0.4250   -2.0580    0.0000 C.ar    1  LIG1       -0.0042
     22 C           1.3210   -2.5710    0.0000 C.ar    1  LIG1       -0.0003
     23 C           2.2130   -2.0580    0.0000 C.ar    1  LIG1       -0.0000
     24 C           2.2130   -1.0210    0.0000 C.ar    1  LIG1       -0.0003
     25 C           1.3250   -0.5080    0.0000 C.ar    1  LIG1       -0.0042
@<TRIPOS>BOND
     1     1     2    1
     2     1    10    1
     3     2     3    1
     4     2     7    1
     5     3     4    1
     6     4     5    1
     7     4     9    1
     8     5     6    1
     9     6     7    1
    10     7     8    1
    11     8     9    1
    12    10    11    1
    13    10    19    1
    14    11    12   ar
    15    11    16   ar
    16    12    13   ar
    17    13    14   ar
    18    14    15   ar
    19    14    17    1
    20    15    16   ar
    21    17    18    1
    22    19    20    1
    23    20    21   ar
    24    20    25   ar
    25    21    22   ar
    26    22    23   ar
    27    23    24   ar
    28    24    25   ar
