@<TRIPOS>MOLECULE
27191_ChemDiv_8016-3786
 23 24 0 0 0
SMALL
GASTEIGER
Energy = 0

@<TRIPOS>ATOM
      1 C           0.0040   -0.5330    0.0000 C.2     1  LIG1        0.0848
      2 N           0.8830   -0.0330    0.0000 N.am    1  LIG1       -0.2918
      3 C           0.8830    0.9630    0.0000 C.3     1  LIG1        0.1548
      4 C           1.7420    1.4630    0.0000 C.3     1  LIG1        0.1606
      5 N           2.5960    0.9630    0.0000 N.4     1  LIG1        0.3821
      6 C           2.5960   -0.0330    0.0000 C.3     1  LIG1        0.1606
      7 C           1.7420   -0.5330    0.0000 C.3     1  LIG1        0.1548
      8 C           3.4830    1.4830    0.0000 C.3     1  LIG1        0.1749
      9 C           4.3670    1.0210    0.0000 C.3     1  LIG1        0.2442
     10 O           5.2080    1.5380    0.0000 O.3     1  LIG1       -0.2137
     11 C          -0.8830   -0.0330    0.0000 C.ar    1  LIG1        0.0232
     12 C          -1.7460   -0.5330    0.0000 C.ar    1  LIG1        0.0418
     13 C          -2.6080   -0.0330    0.0000 C.ar    1  LIG1        0.1723
     14 C          -2.6080    0.9750    0.0000 C.ar    1  LIG1        0.1722
     15 C          -1.7460    1.4830    0.0000 C.ar    1  LIG1        0.0401
     16 C          -0.8830    0.9750    0.0000 C.ar    1  LIG1        0.0051
     17 O          -3.4710    1.4830    0.0000 O.3     1  LIG1       -0.4724
     18 C          -4.3290    0.9750    0.0000 C.3     1  LIG1        0.2057
     19 C          -5.2130    1.4830    0.0000 C.3     1  LIG1        0.0512
     20 O          -3.4710   -0.5330    0.0000 O.3     1  LIG1       -0.4724
     21 C          -4.3290   -0.0330    0.0000 C.3     1  LIG1        0.2057
     22 C          -5.1830   -0.5290    0.0000 C.3     1  LIG1        0.0512
     23 S           0.0040   -1.5330    0.0000 S.2     1  LIG1       -0.0347
@<TRIPOS>BOND
     1     1     2    1
     2     1    11    1
     3     1    23    2
     4     2     3    1
     5     2     7    1
     6     3     4    1
     7     4     5    1
     8     5     6    1
     9     5     8    1
    10     6     7    1
    11     8     9    1
    12     9    10    1
    13    11    12   ar
    14    11    16   ar
    15    12    13   ar
    16    13    14   ar
    17    13    20    1
    18    14    15   ar
    19    14    17    1
    20    15    16   ar
    21    17    18    1
    22    18    19    1
    23    20    21    1
    24    21    22    1
