@<TRIPOS>MOLECULE
27194_ChemDiv_3260-0264
 26 30 0 0 0
SMALL
GASTEIGER
Energy = 0

@<TRIPOS>ATOM
      1 C           1.2500    1.7080    0.0000 C.ar    1  LIG1        0.4335
      2 N           0.4040    1.2080    0.0000 N.ar    1  LIG1       -0.2465
      3 C          -0.4290    1.7080    0.0000 C.ar    1  LIG1        0.0829
      4 C          -0.4290    2.6920    0.0000 C.ar    1  LIG1        0.0825
      5 N           1.2630    2.6920    0.0000 N.ar    1  LIG1       -0.2539
      6 C           2.1170    3.1630    0.0000 C.3     1  LIG1        0.1209
      7 C           2.9540    2.6710    0.0000 C.3     1  LIG1        0.1172
      8 C           2.9460    1.6960    0.0000 C.3     1  LIG1        0.3991
      9 N           2.0920    1.2080    0.0000 N.2     1  LIG1        0.0916
     10 C          -1.2830    3.1790    0.0000 C.ar    1  LIG1        0.0189
     11 C          -2.1290    2.6830    0.0000 C.ar    1  LIG1        0.0016
     12 C          -2.1290    1.7080    0.0000 C.ar    1  LIG1        0.0016
     13 C          -1.2830    1.2080    0.0000 C.ar    1  LIG1        0.0189
     14 C           0.4040    0.2420    0.0000 C.3     1  LIG1        0.1824
     15 C          -0.4290   -0.2460    0.0000 C.2     1  LIG1        0.1960
     16 C          -0.4290   -1.2250    0.0000 C.ar    1  LIG1        0.0367
     17 C          -1.2750   -1.7130    0.0000 C.ar    1  LIG1        0.0028
     18 C          -1.2830   -2.6880    0.0000 C.ar    1  LIG1        0.0001
     19 C          -0.4290   -3.1750    0.0000 C.ar    1  LIG1        0.0000
     20 C           0.4040   -2.6880    0.0000 C.ar    1  LIG1        0.0001
     21 C           0.4040   -1.7000    0.0000 C.ar    1  LIG1        0.0029
     22 C          -2.1290   -3.1750    0.0000 C.ar    1  LIG1        0.0000
     23 C          -2.9580   -2.6880    0.0000 C.ar    1  LIG1        0.0000
     24 C          -2.9580   -1.7130    0.0000 C.ar    1  LIG1        0.0000
     25 C          -2.1130   -1.2250    0.0000 C.ar    1  LIG1        0.0001
     26 O          -1.2830    0.2420    0.0000 O.2     1  LIG1       -0.2893
@<TRIPOS>BOND
     1     1     2   ar
     2     1     5   ar
     3     1     9    2
     4     2     3   ar
     5     2    14    1
     6     3     4   ar
     7     3    13   ar
     8     4     5   ar
     9     4    10   ar
    10     5     6    1
    11     6     7    1
    12     7     8    1
    13     8     9    1
    14    10    11   ar
    15    11    12   ar
    16    12    13   ar
    17    14    15    1
    18    15    16    1
    19    15    26    2
    20    16    17   ar
    21    16    21   ar
    22    17    18   ar
    23    17    25   ar
    24    18    19   ar
    25    18    22   ar
    26    19    20   ar
    27    20    21   ar
    28    22    23   ar
    29    23    24   ar
    30    24    25   ar
