@<TRIPOS>MOLECULE
27205_ChemDiv_2516-1988
 28 30 0 0 0
SMALL
GASTEIGER
Energy = 0

@<TRIPOS>ATOM
      1 C           1.6920   -0.4080    0.0000 C.ar    1  LIG1        0.1131
      2 C           2.2670   -1.2290    0.0000 C.ar    1  LIG1        0.1515
      3 O           1.6920   -2.0330    0.0000 O.2     1  LIG1       -0.4533
      4 C           0.7750   -1.7250    0.0000 C.ar    1  LIG1        0.1457
      5 C           0.7750   -0.7170    0.0000 C.ar    1  LIG1        0.0468
      6 C          -0.1210   -0.2040    0.0000 C.ar    1  LIG1        0.0403
      7 C          -0.9920   -0.7170    0.0000 C.ar    1  LIG1        0.1394
      8 O          -1.8380   -0.2040    0.0000 O.3     1  LIG1       -0.4679
      9 C          -1.8380    0.7500    0.0000 C.3     1  LIG1        0.2634
     10 C          -2.7330    1.2630    0.0000 C.2     1  LIG1        0.3576
     11 O          -2.7330    2.2500    0.0000 O.2     1  LIG1       -0.2461
     12 O          -3.6000    0.7500    0.0000 O.3     1  LIG1       -0.4460
     13 C          -4.4540    1.2630    0.0000 C.3     1  LIG1        0.2087
     14 C          -5.3000    0.7500    0.0000 C.3     1  LIG1        0.0513
     15 C          -0.9920    1.2630    0.0000 C.3     1  LIG1        0.0596
     16 C          -0.9920   -1.7250    0.0000 C.ar    1  LIG1        0.0400
     17 C          -0.1210   -2.2460    0.0000 C.ar    1  LIG1        0.0406
     18 C           3.2880   -1.2580    0.0000 C.ar    1  LIG1        0.0348
     19 C           3.8130   -0.3790    0.0000 C.ar    1  LIG1        0.0030
     20 C           4.8000   -0.3790    0.0000 C.ar    1  LIG1        0.0001
     21 C           5.2960   -1.2580    0.0000 C.ar    1  LIG1        0.0000
     22 C           4.8000   -2.1040    0.0000 C.ar    1  LIG1        0.0001
     23 C           3.7830   -2.1040    0.0000 C.ar    1  LIG1        0.0030
     24 C           2.0170    0.5080    0.0000 C.2     1  LIG1        0.3443
     25 O           1.3420    1.2630    0.0000 O.2     1  LIG1       -0.2448
     26 O           3.0040    0.7210    0.0000 O.3     1  LIG1       -0.4454
     27 C           3.3170    1.6880    0.0000 C.3     1  LIG1        0.2089
     28 C           4.2790    1.8960    0.0000 C.3     1  LIG1        0.0513
@<TRIPOS>BOND
     1     1     2   ar
     2     1     5   ar
     3     1    24    1
     4     2     3   ar
     5     2    18    1
     6     3     4   ar
     7     4     5   ar
     8     4    17   ar
     9     5     6   ar
    10     6     7   ar
    11     7     8    1
    12     7    16   ar
    13     8     9    1
    14     9    10    1
    15     9    15    1
    16    10    11    2
    17    10    12    1
    18    12    13    1
    19    13    14    1
    20    16    17   ar
    21    18    19   ar
    22    18    23   ar
    23    19    20   ar
    24    20    21   ar
    25    21    22   ar
    26    22    23   ar
    27    24    25    2
    28    24    26    1
    29    26    27    1
    30    27    28    1
