@<TRIPOS>MOLECULE
27201_ChemDiv_2294-1309
 22 24 0 0 0
SMALL
GASTEIGER
Energy = 0

@<TRIPOS>ATOM
      1 C           0.4040    0.0630    0.0000 C.ar    1  LIG1        0.1131
      2 C           1.0040   -0.7330    0.0000 C.ar    1  LIG1        0.1515
      3 O           0.4040   -1.5460    0.0000 O.2     1  LIG1       -0.4533
      4 C          -0.5420   -1.2330    0.0000 C.ar    1  LIG1        0.1457
      5 C          -0.5420   -0.2380    0.0000 C.ar    1  LIG1        0.0468
      6 C          -1.3920    0.2580    0.0000 C.ar    1  LIG1        0.0402
      7 C          -2.2630   -0.2380    0.0000 C.ar    1  LIG1        0.1389
      8 C          -2.2630   -1.2330    0.0000 C.ar    1  LIG1        0.0400
      9 C          -1.4080   -1.7290    0.0000 C.ar    1  LIG1        0.0406
     10 O          -3.1250    0.2750    0.0000 O.3     1  LIG1       -0.4714
     11 C          -4.0130   -0.2210    0.0000 C.3     1  LIG1        0.2525
     12 C           1.9960   -0.7500    0.0000 C.ar    1  LIG1        0.0348
     13 C           2.4960   -1.6330    0.0000 C.ar    1  LIG1        0.0030
     14 C           3.5040   -1.6330    0.0000 C.ar    1  LIG1        0.0001
     15 C           4.0080   -0.7500    0.0000 C.ar    1  LIG1        0.0000
     16 C           3.5040    0.1000    0.0000 C.ar    1  LIG1        0.0001
     17 C           2.5130    0.1000    0.0000 C.ar    1  LIG1        0.0030
     18 C           1.1170    0.7750    0.0000 C.2     1  LIG1        0.3443
     19 O           0.8630    1.7330    0.0000 O.2     1  LIG1       -0.2448
     20 O           2.0880    0.5250    0.0000 O.3     1  LIG1       -0.4454
     21 C           2.8000    1.2330    0.0000 C.3     1  LIG1        0.2089
     22 C           3.7710    0.9710    0.0000 C.3     1  LIG1        0.0513
@<TRIPOS>BOND
     1     1     2   ar
     2     1     5   ar
     3     1    18    1
     4     2     3   ar
     5     2    12    1
     6     3     4   ar
     7     4     5   ar
     8     4     9   ar
     9     5     6   ar
    10     6     7   ar
    11     7     8   ar
    12     7    10    1
    13     8     9   ar
    14    10    11    1
    15    12    13   ar
    16    12    17   ar
    17    13    14   ar
    18    14    15   ar
    19    15    16   ar
    20    16    17   ar
    21    18    19    2
    22    18    20    1
    23    20    21    1
    24    21    22    1
