@<TRIPOS>MOLECULE
27203_ChemDiv_2516-1960
 29 31 0 0 0
SMALL
GASTEIGER
Energy = 0

@<TRIPOS>ATOM
      1 C           1.2790   -0.4460    0.0000 C.ar    1  LIG1        0.1131
      2 C           1.8630   -1.2580    0.0000 C.ar    1  LIG1        0.1515
      3 O           1.2790   -2.0380    0.0000 O.2     1  LIG1       -0.4533
      4 C           0.3540   -1.7540    0.0000 C.ar    1  LIG1        0.1457
      5 C           0.3540   -0.7580    0.0000 C.ar    1  LIG1        0.0468
      6 C          -0.5290   -0.2630    0.0000 C.ar    1  LIG1        0.0403
      7 C          -1.3790   -0.7580    0.0000 C.ar    1  LIG1        0.1395
      8 O          -2.2630   -0.2630    0.0000 O.3     1  LIG1       -0.4656
      9 C          -3.1210   -0.7630    0.0000 C.3     1  LIG1        0.2896
     10 C          -4.0000   -0.2670    0.0000 C.2     1  LIG1        0.2702
     11 N          -4.0210    0.7420    0.0000 N.am    1  LIG1       -0.2765
     12 C          -3.1500    1.2460    0.0000 C.3     1  LIG1        0.0936
     13 C          -3.1500    2.2500    0.0000 C.3     1  LIG1        0.0233
     14 C          -4.8880    1.2290    0.0000 C.3     1  LIG1        0.0936
     15 C          -4.8920    2.2500    0.0000 C.3     1  LIG1        0.0233
     16 O          -4.8710   -0.7790    0.0000 O.2     1  LIG1       -0.2708
     17 C          -1.3790   -1.7540    0.0000 C.ar    1  LIG1        0.0400
     18 C          -0.5290   -2.2460    0.0000 C.ar    1  LIG1        0.0406
     19 C           2.8750   -1.2750    0.0000 C.ar    1  LIG1        0.0348
     20 C           3.3710   -2.1080    0.0000 C.ar    1  LIG1        0.0030
     21 C           4.3920   -2.1080    0.0000 C.ar    1  LIG1        0.0001
     22 C           4.8880   -1.2960    0.0000 C.ar    1  LIG1        0.0000
     23 C           4.3920   -0.4080    0.0000 C.ar    1  LIG1        0.0001
     24 C           3.4000   -0.4080    0.0000 C.ar    1  LIG1        0.0030
     25 C           1.6000    0.5130    0.0000 C.2     1  LIG1        0.3443
     26 O           0.9210    1.2580    0.0000 O.2     1  LIG1       -0.2448
     27 O           2.5920    0.7250    0.0000 O.3     1  LIG1       -0.4454
     28 C           2.9040    1.6830    0.0000 C.3     1  LIG1        0.2089
     29 C           3.8960    1.8960    0.0000 C.3     1  LIG1        0.0513
@<TRIPOS>BOND
     1     1     2   ar
     2     1     5   ar
     3     1    25    1
     4     2     3   ar
     5     2    19    1
     6     3     4   ar
     7     4     5   ar
     8     4    18   ar
     9     5     6   ar
    10     6     7   ar
    11     7     8    1
    12     7    17   ar
    13     8     9    1
    14     9    10    1
    15    10    11   am
    16    10    16    2
    17    11    12    1
    18    11    14    1
    19    12    13    1
    20    14    15    1
    21    17    18   ar
    22    19    20   ar
    23    19    24   ar
    24    20    21   ar
    25    21    22   ar
    26    22    23   ar
    27    23    24   ar
    28    25    26    2
    29    25    27    1
    30    27    28    1
    31    28    29    1
