@<TRIPOS>MOLECULE
27209_ChemDiv_2516-2040
 26 28 0 0 0
SMALL
GASTEIGER
Energy = 0

@<TRIPOS>ATOM
      1 C           1.2710   -0.2380    0.0000 C.ar    1  LIG1        0.1131
      2 C           1.8420   -1.0830    0.0000 C.ar    1  LIG1        0.1515
      3 O           1.2710   -1.8580    0.0000 O.2     1  LIG1       -0.4533
      4 C           0.3210   -1.5790    0.0000 C.ar    1  LIG1        0.1457
      5 C           0.3210   -0.5580    0.0000 C.ar    1  LIG1        0.0468
      6 C          -0.5630   -0.0630    0.0000 C.ar    1  LIG1        0.0403
      7 C          -1.4170   -0.5580    0.0000 C.ar    1  LIG1        0.1391
      8 O          -2.2960   -0.0630    0.0000 O.3     1  LIG1       -0.4736
      9 C          -3.1790   -0.5580    0.0000 C.3     1  LIG1        0.2020
     10 C          -4.0330   -0.0460    0.0000 C.2     1  LIG1        0.0900
     11 O          -4.0330    0.9630    0.0000 O.co2   1  LIG1       -0.5455
     12 O          -4.8830   -0.5580    0.0000 O.co2   1  LIG1       -0.5455
     13 C          -3.1790   -1.5790    0.0000 C.3     1  LIG1        0.0536
     14 C          -1.4170   -1.5790    0.0000 C.ar    1  LIG1        0.0400
     15 C          -0.5630   -2.0710    0.0000 C.ar    1  LIG1        0.0406
     16 C           2.8500   -1.0830    0.0000 C.ar    1  LIG1        0.0348
     17 C           3.3460   -1.9380    0.0000 C.ar    1  LIG1        0.0030
     18 C           4.3540   -1.9380    0.0000 C.ar    1  LIG1        0.0001
     19 C           4.8790   -1.0830    0.0000 C.ar    1  LIG1        0.0000
     20 C           4.3830   -0.2330    0.0000 C.ar    1  LIG1        0.0001
     21 C           3.3630   -0.2330    0.0000 C.ar    1  LIG1        0.0030
     22 C           1.5790    0.6880    0.0000 C.2     1  LIG1        0.3443
     23 O           0.9170    1.4210    0.0000 O.2     1  LIG1       -0.2448
     24 O           2.5670    0.9290    0.0000 O.3     1  LIG1       -0.4454
     25 C           2.8960    1.8460    0.0000 C.3     1  LIG1        0.2089
     26 C           3.8580    2.0750    0.0000 C.3     1  LIG1        0.0513
@<TRIPOS>BOND
     1     1     2   ar
     2     1     5   ar
     3     1    22    1
     4     2     3   ar
     5     2    16    1
     6     3     4   ar
     7     4     5   ar
     8     4    15   ar
     9     5     6   ar
    10     6     7   ar
    11     7     8    1
    12     7    14   ar
    13     8     9    1
    14     9    10    1
    15     9    13    1
    16    10    11   ar
    17    10    12   ar
    18    14    15   ar
    19    16    17   ar
    20    16    21   ar
    21    17    18   ar
    22    18    19   ar
    23    19    20   ar
    24    20    21   ar
    25    22    23    2
    26    22    24    1
    27    24    25    1
    28    25    26    1
