@<TRIPOS>MOLECULE
27207_ChemDiv_2516-2013
 27 29 0 0 0
SMALL
GASTEIGER
Energy = 0

@<TRIPOS>ATOM
      1 C           1.2750   -0.4170    0.0000 C.ar    1  LIG1        0.1131
      2 C           1.8460   -1.2630    0.0000 C.ar    1  LIG1        0.1515
      3 O           1.2750   -2.0420    0.0000 O.2     1  LIG1       -0.4533
      4 C           0.3210   -1.7580    0.0000 C.ar    1  LIG1        0.1457
      5 C           0.3210   -0.7380    0.0000 C.ar    1  LIG1        0.0468
      6 C          -0.5630   -0.2420    0.0000 C.ar    1  LIG1        0.0403
      7 C          -1.4210   -0.7380    0.0000 C.ar    1  LIG1        0.1394
      8 O          -2.3000   -0.2420    0.0000 O.3     1  LIG1       -0.4679
      9 C          -2.3000    0.7880    0.0000 C.3     1  LIG1        0.2634
     10 C          -3.1880    1.2500    0.0000 C.2     1  LIG1        0.3577
     11 O          -3.1880    2.2580    0.0000 O.2     1  LIG1       -0.2461
     12 O          -4.0420    0.7880    0.0000 O.3     1  LIG1       -0.4419
     13 C          -4.8960    1.2500    0.0000 C.3     1  LIG1        0.2557
     14 C          -1.4210    1.2500    0.0000 C.3     1  LIG1        0.0596
     15 C          -1.4210   -1.7580    0.0000 C.ar    1  LIG1        0.0400
     16 C          -0.5630   -2.2540    0.0000 C.ar    1  LIG1        0.0406
     17 C           2.8580   -1.2630    0.0000 C.ar    1  LIG1        0.0348
     18 C           3.3540   -2.1210    0.0000 C.ar    1  LIG1        0.0030
     19 C           4.3630   -2.1210    0.0000 C.ar    1  LIG1        0.0001
     20 C           4.8920   -1.2630    0.0000 C.ar    1  LIG1        0.0000
     21 C           4.3960   -0.4130    0.0000 C.ar    1  LIG1        0.0001
     22 C           3.3710   -0.4130    0.0000 C.ar    1  LIG1        0.0030
     23 C           1.5830    0.5080    0.0000 C.2     1  LIG1        0.3443
     24 O           0.9210    1.2500    0.0000 O.2     1  LIG1       -0.2448
     25 O           2.5750    0.7540    0.0000 O.3     1  LIG1       -0.4454
     26 C           2.9040    1.6750    0.0000 C.3     1  LIG1        0.2089
     27 C           3.8670    1.9040    0.0000 C.3     1  LIG1        0.0513
@<TRIPOS>BOND
     1     1     2   ar
     2     1     5   ar
     3     1    23    1
     4     2     3   ar
     5     2    17    1
     6     3     4   ar
     7     4     5   ar
     8     4    16   ar
     9     5     6   ar
    10     6     7   ar
    11     7     8    1
    12     7    15   ar
    13     8     9    1
    14     9    10    1
    15     9    14    1
    16    10    11    2
    17    10    12    1
    18    12    13    1
    19    15    16   ar
    20    17    18   ar
    21    17    22   ar
    22    18    19   ar
    23    19    20   ar
    24    20    21   ar
    25    21    22   ar
    26    23    24    2
    27    23    25    1
    28    25    26    1
    29    26    27    1
