@<TRIPOS>MOLECULE
27210_ChemDiv_3448-2564
 22 24 0 0 0
SMALL
GASTEIGER
Energy = 0

@<TRIPOS>ATOM
      1 C           0.8130   -1.2130    0.0000 C.ar    1  LIG1        0.2470
      2 N          -0.0290   -1.7000    0.0000 N.ar    1  LIG1       -0.1779
      3 C          -0.8750   -1.2130    0.0000 C.ar    1  LIG1        0.2426
      4 N          -0.8750   -0.2290    0.0000 N.ar    1  LIG1       -0.1597
      5 C          -0.0290    0.2580    0.0000 C.ar    1  LIG1        0.3248
      6 N           0.8130   -0.2290    0.0000 N.ar    1  LIG1       -0.1594
      7 O          -0.0290    1.2290    0.0000 O.3     1  LIG1       -0.4466
      8 C          -0.8630    1.7040    0.0000 C.3     1  LIG1        0.2088
      9 C          -1.6710    1.2130    0.0000 C.3     1  LIG1        0.0513
     10 N          -1.7210   -1.7000    0.0000 N.pl3   1  LIG1       -0.2055
     11 C          -2.4880   -1.1960    0.0000 C.3     1  LIG1        0.0955
     12 C          -3.3330   -1.6880    0.0000 C.3     1  LIG1        0.0217
     13 C          -4.1670   -1.1960    0.0000 C.3     1  LIG1        0.0018
     14 C          -4.1670   -0.2210    0.0000 C.3     1  LIG1        0.0018
     15 C          -2.4880   -0.2210    0.0000 C.3     1  LIG1        0.0217
     16 N           1.6580   -1.7000    0.0000 N.pl3   1  LIG1       -0.1775
     17 C           2.4920   -1.1960    0.0000 C.ar    1  LIG1        0.0736
     18 C           3.3250   -1.6880    0.0000 C.ar    1  LIG1        0.0166
     19 C           4.1630   -1.1960    0.0000 C.ar    1  LIG1        0.0013
     20 C           4.1630   -0.2210    0.0000 C.ar    1  LIG1        0.0001
     21 C           3.3250    0.2750    0.0000 C.ar    1  LIG1        0.0013
     22 C           2.4920   -0.2210    0.0000 C.ar    1  LIG1        0.0166
@<TRIPOS>BOND
     1     1     2   ar
     2     1     6   ar
     3     1    16    1
     4     2     3   ar
     5     3     4   ar
     6     3    10    1
     7     4     5   ar
     8     5     6   ar
     9     5     7    1
    10     7     8    1
    11     8     9    1
    12    10    11    1
    13    11    12    1
    14    11    15    1
    15    12    13    1
    16    13    14    1
    17    14    15    1
    18    16    17    1
    19    17    18   ar
    20    17    22   ar
    21    18    19   ar
    22    19    20   ar
    23    20    21   ar
    24    21    22   ar
