@<TRIPOS>MOLECULE
27211_ChemDiv_3570-0187
 25 27 0 0 0
SMALL
GASTEIGER
Energy = 0

@<TRIPOS>ATOM
      1 C           1.2790   -0.2670    0.0000 C.ar    1  LIG1        0.1131
      2 C           1.8670   -1.0790    0.0000 C.ar    1  LIG1        0.1515
      3 O           1.2790   -1.8750    0.0000 O.2     1  LIG1       -0.4533
      4 C           0.3380   -1.5750    0.0000 C.ar    1  LIG1        0.1457
      5 C           0.3380   -0.5790    0.0000 C.ar    1  LIG1        0.0468
      6 C          -0.5290   -0.0830    0.0000 C.ar    1  LIG1        0.0403
      7 C          -1.3920   -0.5790    0.0000 C.ar    1  LIG1        0.1395
      8 O          -2.2750   -0.0830    0.0000 O.3     1  LIG1       -0.4655
      9 C          -3.1290   -0.5830    0.0000 C.3     1  LIG1        0.2929
     10 C          -4.0080   -0.0880    0.0000 C.2     1  LIG1        0.3052
     11 O          -4.8750   -0.6040    0.0000 O.2     1  LIG1       -0.2676
     12 N          -4.0290    0.9210    0.0000 N.am    1  LIG1       -0.0845
     13 C          -1.3920   -1.5750    0.0000 C.ar    1  LIG1        0.0400
     14 C          -0.5290   -2.0670    0.0000 C.ar    1  LIG1        0.0406
     15 C           2.8670   -1.1000    0.0000 C.ar    1  LIG1        0.0348
     16 C           3.3630   -1.9460    0.0000 C.ar    1  LIG1        0.0030
     17 C           4.3710   -1.9460    0.0000 C.ar    1  LIG1        0.0001
     18 C           4.8710   -1.1170    0.0000 C.ar    1  LIG1        0.0000
     19 C           4.3710   -0.2290    0.0000 C.ar    1  LIG1        0.0001
     20 C           3.3790   -0.2290    0.0000 C.ar    1  LIG1        0.0030
     21 C           1.5920    0.6880    0.0000 C.2     1  LIG1        0.3443
     22 O           0.9080    1.4330    0.0000 O.2     1  LIG1       -0.2448
     23 O           2.5830    0.9000    0.0000 O.3     1  LIG1       -0.4454
     24 C           2.8830    1.8580    0.0000 C.3     1  LIG1        0.2089
     25 C           3.8750    2.0710    0.0000 C.3     1  LIG1        0.0513
@<TRIPOS>BOND
     1     1     2   ar
     2     1     5   ar
     3     1    21    1
     4     2     3   ar
     5     2    15    1
     6     3     4   ar
     7     4     5   ar
     8     4    14   ar
     9     5     6   ar
    10     6     7   ar
    11     7     8    1
    12     7    13   ar
    13     8     9    1
    14     9    10    1
    15    10    11    2
    16    10    12   am
    17    13    14   ar
    18    15    16   ar
    19    15    20   ar
    20    16    17   ar
    21    17    18   ar
    22    18    19   ar
    23    19    20   ar
    24    21    22    2
    25    21    23    1
    26    23    24    1
    27    24    25    1
