@<TRIPOS>MOLECULE
27218_ChemDiv_7376-0025
 25 27 0 0 0
SMALL
GASTEIGER
Energy = 0

@<TRIPOS>ATOM
      1 N          -0.8670    0.7500    0.0000 N.am    1  LIG1       -0.0022
      2 C          -0.8670   -0.2500    0.0000 C.2     1  LIG1        0.4362
      3 N          -0.0040   -0.7500    0.0000 N.pl3   1  LIG1       -0.0583
      4 C           0.8630   -0.2500    0.0000 C.3     1  LIG1        0.2574
      5 C           1.7330   -0.7500    0.0000 C.2     1  LIG1        0.2795
      6 N           2.5960   -0.2500    0.0000 N.am    1  LIG1       -0.2044
      7 C           3.4580   -0.7500    0.0000 C.3     1  LIG1        0.0954
      8 C           4.3210   -0.2500    0.0000 C.3     1  LIG1        0.0217
      9 C           5.1920   -0.7500    0.0000 C.3     1  LIG1        0.0018
     10 C           5.1960   -1.7540    0.0000 C.3     1  LIG1        0.0001
     11 C           4.3210   -2.2540    0.0000 C.3     1  LIG1        0.0018
     12 C           3.4580   -1.7540    0.0000 C.3     1  LIG1        0.0217
     13 O           1.7210   -1.7540    0.0000 O.2     1  LIG1       -0.2698
     14 C           0.8630    0.7500    0.0000 C.3     1  LIG1        0.1565
     15 C          -0.0040    1.2500    0.0000 C.2     1  LIG1        0.3223
     16 O          -0.0040    2.2580    0.0000 O.2     1  LIG1       -0.2533
     17 N          -1.7380   -0.7500    0.0000 N.pl3   1  LIG1       -0.0395
     18 C          -2.5960   -0.2580    0.0000 C.ar    1  LIG1        0.1481
     19 C          -2.5960    0.7460    0.0000 C.ar    1  LIG1        0.0343
     20 C          -3.4630    1.2460    0.0000 C.ar    1  LIG1       -0.0014
     21 C          -4.3330    0.7380    0.0000 C.ar    1  LIG1       -0.0220
     22 C          -4.3250   -0.2670    0.0000 C.ar    1  LIG1       -0.0014
     23 C          -3.4580   -0.7580    0.0000 C.ar    1  LIG1        0.0343
     24 C          -5.1960    1.2290    0.0000 C.3     1  LIG1        0.0264
     25 C          -5.2000    2.2250    0.0000 C.3     1  LIG1        0.0050
@<TRIPOS>BOND
     1     1     2    2
     2     1    15   am
     3     2     3    1
     4     2    17    1
     5     3     4    1
     6     4     5    1
     7     4    14    1
     8     5     6   am
     9     5    13    2
    10     6     7    1
    11     7     8    1
    12     7    12    1
    13     8     9    1
    14     9    10    1
    15    10    11    1
    16    11    12    1
    17    14    15    1
    18    15    16    2
    19    17    18    1
    20    18    19   ar
    21    18    23   ar
    22    19    20   ar
    23    20    21   ar
    24    21    22   ar
    25    21    24    1
    26    22    23   ar
    27    24    25    1
