@<TRIPOS>MOLECULE
27217_ChemDiv_D090-0165
 24 27 0 0 0
SMALL
GASTEIGER
Energy = 0

@<TRIPOS>ATOM
      1 N          -0.9040    1.0420    0.0000 N.3     1  LIG1       -0.2101
      2 C          -1.7960    0.5290    0.0000 C.3     1  LIG1        0.1301
      3 C          -1.7960   -0.5000    0.0000 C.3     1  LIG1        0.1560
      4 N          -2.6920   -1.0130    0.0000 N.4     1  LIG1        0.3783
      5 C          -3.5790   -0.5000    0.0000 C.3     1  LIG1        0.1387
      6 C          -3.5790    0.5250    0.0000 C.3     1  LIG1        0.0645
      7 C          -2.6920    1.0500    0.0000 C.3     1  LIG1        0.0338
      8 C          -3.0290    0.4880    0.0000 C.3     1  LIG1        0.0645
      9 C          -3.0290   -0.3630    0.0000 C.3     1  LIG1        0.1387
     10 C          -0.0040    0.5250    0.0000 C.3     1  LIG1        0.0994
     11 C           0.8880    1.0380    0.0000 C.ar    1  LIG1       -0.0061
     12 C           1.7750    0.5130    0.0000 C.ar    1  LIG1       -0.0021
     13 C           2.6750    1.0290    0.0000 C.ar    1  LIG1        0.0111
     14 C           2.6750    2.0630    0.0000 C.ar    1  LIG1        0.0577
     15 C           1.7750    2.5790    0.0000 C.ar    1  LIG1        0.0111
     16 C           0.8880    2.0630    0.0000 C.ar    1  LIG1       -0.0021
     17 CL          3.5750    2.5750    0.0000 Cl      1  LIG1       -0.0822
     18 C          -0.0170   -0.5080    0.0000 C.3     1  LIG1        0.0482
     19 C           0.8880   -1.0250    0.0000 C.ar    1  LIG1       -0.0204
     20 C           0.8750   -2.0580    0.0000 C.ar    1  LIG1       -0.0042
     21 C           1.7630   -2.5750    0.0000 C.ar    1  LIG1       -0.0003
     22 C           2.6630   -2.0630    0.0000 C.ar    1  LIG1       -0.0000
     23 C           2.6630   -1.0250    0.0000 C.ar    1  LIG1       -0.0003
     24 C           1.7750   -0.5130    0.0000 C.ar    1  LIG1       -0.0042
@<TRIPOS>BOND
     1     1     2    1
     2     1    10    1
     3     2     3    1
     4     2     7    1
     5     3     4    1
     6     4     5    1
     7     4     9    1
     8     5     6    1
     9     6     7    1
    10     7     8    1
    11     8     9    1
    12    10    11    1
    13    10    18    1
    14    11    12   ar
    15    11    16   ar
    16    12    13   ar
    17    13    14   ar
    18    14    15   ar
    19    14    17    1
    20    15    16   ar
    21    18    19    1
    22    19    20   ar
    23    19    24   ar
    24    20    21   ar
    25    21    22   ar
    26    22    23   ar
    27    23    24   ar
