@<TRIPOS>MOLECULE
27213_ChemDiv_3570-0190
 23 25 0 0 0
SMALL
GASTEIGER
Energy = 0

@<TRIPOS>ATOM
      1 C           0.4250   -0.2630    0.0000 C.ar    1  LIG1        0.1131
      2 C           1.0080   -1.0710    0.0000 C.ar    1  LIG1        0.1515
      3 O           0.4250   -1.8750    0.0000 O.2     1  LIG1       -0.4533
      4 C          -0.5170   -1.5670    0.0000 C.ar    1  LIG1        0.1457
      5 C          -0.5170   -0.5580    0.0000 C.ar    1  LIG1        0.0468
      6 C          -1.3960   -0.0790    0.0000 C.ar    1  LIG1        0.0402
      7 C          -2.2630   -0.5580    0.0000 C.ar    1  LIG1        0.1388
      8 C          -2.2630   -1.5670    0.0000 C.ar    1  LIG1        0.0400
      9 C          -1.3960   -2.0670    0.0000 C.ar    1  LIG1        0.0406
     10 O          -3.1380   -0.0790    0.0000 O.3     1  LIG1       -0.4755
     11 C          -3.1380    0.9290    0.0000 C.3     1  LIG1        0.2055
     12 C          -4.0170    1.4330    0.0000 C.3     1  LIG1        0.0512
     13 C           1.9830   -1.0790    0.0000 C.ar    1  LIG1        0.0348
     14 C           2.4790   -1.9460    0.0000 C.ar    1  LIG1        0.0030
     15 C           3.5000   -1.9460    0.0000 C.ar    1  LIG1        0.0001
     16 C           4.0130   -1.0960    0.0000 C.ar    1  LIG1        0.0000
     17 C           3.5000   -0.2290    0.0000 C.ar    1  LIG1        0.0001
     18 C           2.5080   -0.2290    0.0000 C.ar    1  LIG1        0.0030
     19 C           0.7250    0.6920    0.0000 C.2     1  LIG1        0.3443
     20 O           0.0540    1.4330    0.0000 O.2     1  LIG1       -0.2448
     21 O           1.7000    0.9040    0.0000 O.3     1  LIG1       -0.4454
     22 C           2.0130    1.8580    0.0000 C.3     1  LIG1        0.2089
     23 C           2.9920    2.0710    0.0000 C.3     1  LIG1        0.0513
@<TRIPOS>BOND
     1     1     2   ar
     2     1     5   ar
     3     1    19    1
     4     2     3   ar
     5     2    13    1
     6     3     4   ar
     7     4     5   ar
     8     4     9   ar
     9     5     6   ar
    10     6     7   ar
    11     7     8   ar
    12     7    10    1
    13     8     9   ar
    14    10    11    1
    15    11    12    1
    16    13    14   ar
    17    13    18   ar
    18    14    15   ar
    19    15    16   ar
    20    16    17   ar
    21    17    18   ar
    22    19    20    2
    23    19    21    1
    24    21    22    1
    25    22    23    1
