@<TRIPOS>MOLECULE
27215_ChemDiv_3570-0354
 25 27 0 0 0
SMALL
GASTEIGER
Energy = 0

@<TRIPOS>ATOM
      1 C           1.3000   -0.2460    0.0000 C.ar    1  LIG1        0.1131
      2 C           1.8830   -1.0710    0.0000 C.ar    1  LIG1        0.1515
      3 O           1.3000   -1.8710    0.0000 O.2     1  LIG1       -0.4533
      4 C           0.3500   -1.5670    0.0000 C.ar    1  LIG1        0.1457
      5 C           0.3500   -0.5750    0.0000 C.ar    1  LIG1        0.0468
      6 C          -0.5170   -0.0630    0.0000 C.ar    1  LIG1        0.0403
      7 C          -1.3880   -0.5750    0.0000 C.ar    1  LIG1        0.1393
      8 O          -2.2670   -0.0630    0.0000 O.3     1  LIG1       -0.4694
      9 C          -3.1330   -0.5750    0.0000 C.3     1  LIG1        0.2469
     10 C          -4.0040   -0.0790    0.0000 C.2     1  LIG1        0.0940
     11 O          -4.8830   -0.5830    0.0000 O.co2   1  LIG1       -0.5454
     12 O          -4.0040    0.9080    0.0000 O.co2   1  LIG1       -0.5454
     13 C          -1.3880   -1.5670    0.0000 C.ar    1  LIG1        0.0400
     14 C          -0.5170   -2.0670    0.0000 C.ar    1  LIG1        0.0406
     15 C           2.8790   -1.0750    0.0000 C.ar    1  LIG1        0.0348
     16 C           3.3750   -1.9420    0.0000 C.ar    1  LIG1        0.0030
     17 C           4.3830   -1.9420    0.0000 C.ar    1  LIG1        0.0001
     18 C           4.8790   -1.0960    0.0000 C.ar    1  LIG1        0.0000
     19 C           4.3830   -0.2210    0.0000 C.ar    1  LIG1        0.0001
     20 C           3.3920   -0.2210    0.0000 C.ar    1  LIG1        0.0030
     21 C           1.6080    0.6920    0.0000 C.2     1  LIG1        0.3443
     22 O           0.9460    1.4330    0.0000 O.2     1  LIG1       -0.2448
     23 O           2.5960    0.9040    0.0000 O.3     1  LIG1       -0.4454
     24 C           2.8960    1.8580    0.0000 C.3     1  LIG1        0.2089
     25 C           3.8710    2.0710    0.0000 C.3     1  LIG1        0.0513
@<TRIPOS>BOND
     1     1     2   ar
     2     1     5   ar
     3     1    21    1
     4     2     3   ar
     5     2    15    1
     6     3     4   ar
     7     4     5   ar
     8     4    14   ar
     9     5     6   ar
    10     6     7   ar
    11     7     8    1
    12     7    13   ar
    13     8     9    1
    14     9    10    1
    15    10    11   ar
    16    10    12   ar
    17    13    14   ar
    18    15    16   ar
    19    15    20   ar
    20    16    17   ar
    21    17    18   ar
    22    18    19   ar
    23    19    20   ar
    24    21    22    2
    25    21    23    1
    26    23    24    1
    27    24    25    1
