@<TRIPOS>MOLECULE
27219_ChemDiv_K786-2057
 21 22 0 0 0
SMALL
GASTEIGER
Energy = 0

@<TRIPOS>ATOM
      1 N          -2.2380   -0.0790    0.0000 N.am    1  LIG1       -0.2746
      2 C          -1.2380   -0.0790    0.0000 C.3     1  LIG1        0.1539
      3 C          -0.6540   -0.8830    0.0000 C.2     1  LIG1        0.2598
      4 N           0.3460   -0.7880    0.0000 N.am    1  LIG1       -0.1991
      5 C           0.8330    0.0880    0.0000 C.3     1  LIG1        0.1445
      6 C           1.8330    0.0880    0.0000 C.ar    1  LIG1        0.0334
      7 C           2.3210    0.9420    0.0000 C.ar    1  LIG1        0.1364
      8 O           1.8290    1.8080    0.0000 O.3     1  LIG1       -0.4717
      9 C           0.8290    1.8040    0.0000 C.3     1  LIG1        0.2525
     10 C           3.3210    0.9540    0.0000 C.ar    1  LIG1        0.0366
     11 C           3.8210    0.0880    0.0000 C.ar    1  LIG1        0.0031
     12 C           3.3210   -0.7750    0.0000 C.ar    1  LIG1       -0.0001
     13 C           2.3290   -0.7750    0.0000 C.ar    1  LIG1        0.0005
     14 O          -1.0540   -1.8040    0.0000 O.2     1  LIG1       -0.2715
     15 C          -0.9290    0.8750    0.0000 C.3     1  LIG1        0.0388
     16 C          -1.7380    1.4670    0.0000 C.3     1  LIG1        0.0875
     17 C          -2.5500    0.8750    0.0000 C.2     1  LIG1        0.2260
     18 O          -3.5210    1.1420    0.0000 O.2     1  LIG1       -0.2749
     19 C          -2.8290   -0.8830    0.0000 C.3     1  LIG1        0.0758
     20 C          -3.8250   -0.7750    0.0000 C.3     1  LIG1        0.0215
     21 C          -2.4290   -1.8040    0.0000 C.3     1  LIG1        0.0215
@<TRIPOS>BOND
     1     1     2    1
     2     1    17   am
     3     1    19    1
     4     2     3    1
     5     2    15    1
     6     3     4   am
     7     3    14    2
     8     4     5    1
     9     5     6    1
    10     6     7   ar
    11     6    13   ar
    12     7     8    1
    13     7    10   ar
    14     8     9    1
    15    10    11   ar
    16    11    12   ar
    17    12    13   ar
    18    15    16    1
    19    16    17    1
    20    17    18    2
    21    19    20    1
    22    19    21    1
