@<TRIPOS>MOLECULE
27227_ChemDiv_K786-7803
 23 25 0 0 0
SMALL
GASTEIGER
Energy = 0

@<TRIPOS>ATOM
      1 N          -2.6330    0.4710    0.0000 N.am    1  LIG1       -0.2746
      2 C          -1.7250    0.8960    0.0000 C.3     1  LIG1        0.1539
      3 C          -0.8500    0.4000    0.0000 C.2     1  LIG1        0.2598
      4 N           0.0170    0.9130    0.0000 N.am    1  LIG1       -0.1992
      5 C           0.8880    0.4250    0.0000 C.3     1  LIG1        0.1415
      6 C           1.7330    0.9420    0.0000 C.ar    1  LIG1       -0.0004
      7 C           1.7170    1.9290    0.0000 C.ar    1  LIG1       -0.0002
      8 C           2.5540    2.4460    0.0000 C.ar    1  LIG1        0.0294
      9 C           3.4330    1.9630    0.0000 C.ar    1  LIG1        0.1401
     10 F           4.3000    2.4750    0.0000 F       1  LIG1       -0.2042
     11 C           3.4580    0.9750    0.0000 C.ar    1  LIG1        0.0294
     12 C           2.6080    0.4580    0.0000 C.ar    1  LIG1       -0.0002
     13 O          -0.8330   -0.6000    0.0000 O.2     1  LIG1       -0.2715
     14 C          -1.8460    1.8880    0.0000 C.3     1  LIG1        0.0388
     15 C          -2.8330    2.0790    0.0000 C.3     1  LIG1        0.0875
     16 C          -3.3210    1.2170    0.0000 C.2     1  LIG1        0.2260
     17 O          -4.3040    0.9920    0.0000 O.2     1  LIG1       -0.2749
     18 C          -2.8330   -0.5080    0.0000 C.3     1  LIG1        0.0757
     19 C          -2.0790   -1.1670    0.0000 C.3     1  LIG1        0.0198
     20 C          -2.2880   -2.1540    0.0000 C.3     1  LIG1        0.0017
     21 C          -3.2250   -2.4710    0.0000 C.3     1  LIG1        0.0001
     22 C          -3.9830   -1.8040    0.0000 C.3     1  LIG1        0.0017
     23 C          -3.7880   -0.8330    0.0000 C.3     1  LIG1        0.0198
@<TRIPOS>BOND
     1     1     2    1
     2     1    16   am
     3     1    18    1
     4     2     3    1
     5     2    14    1
     6     3     4   am
     7     3    13    2
     8     4     5    1
     9     5     6    1
    10     6     7   ar
    11     6    12   ar
    12     7     8   ar
    13     8     9   ar
    14     9    10    1
    15     9    11   ar
    16    11    12   ar
    17    14    15    1
    18    15    16    1
    19    16    17    2
    20    18    19    1
    21    18    23    1
    22    19    20    1
    23    20    21    1
    24    21    22    1
    25    22    23    1
