@<TRIPOS>MOLECULE
27224_ChemDiv_7377-5335
 22 24 0 0 0
SMALL
GASTEIGER
Energy = 0

@<TRIPOS>ATOM
      1 C          -1.7290   -0.2380    0.0000 C.2     1  LIG1        0.4008
      2 N          -1.7330    0.7580    0.0000 N.am    1  LIG1       -0.0050
      3 C          -0.8710    1.2540    0.0000 C.2     1  LIG1        0.3222
      4 C           0.0040    0.7580    0.0000 C.3     1  LIG1        0.1565
      5 C           0.0000   -0.2460    0.0000 C.3     1  LIG1        0.2577
      6 N          -0.8710   -0.7460    0.0000 N.pl3   1  LIG1       -0.0611
      7 C           0.8670   -0.7500    0.0000 C.2     1  LIG1        0.2837
      8 N           1.7250   -0.2460    0.0000 N.am    1  LIG1       -0.1764
      9 C           2.6000   -0.7500    0.0000 C.ar    1  LIG1        0.0735
     10 C           3.4580   -0.2500    0.0000 C.ar    1  LIG1        0.0166
     11 C           4.3170   -0.7500    0.0000 C.ar    1  LIG1        0.0013
     12 C           4.3170   -1.7540    0.0000 C.ar    1  LIG1        0.0001
     13 C           3.4540   -2.2500    0.0000 C.ar    1  LIG1        0.0013
     14 C           2.5830   -1.7540    0.0000 C.ar    1  LIG1        0.0166
     15 O           0.8580   -1.7460    0.0000 O.2     1  LIG1       -0.2694
     16 O          -0.8710    2.2540    0.0000 O.2     1  LIG1       -0.2533
     17 N          -2.5880   -0.7460    0.0000 N.pl3   1  LIG1       -0.1975
     18 C          -3.4540   -0.2380    0.0000 C.3     1  LIG1        0.1672
     19 C          -4.3210   -0.7330    0.0000 C.3     1  LIG1        0.0406
     20 C          -4.3210   -1.7380    0.0000 C.3     1  LIG1        0.0067
     21 C          -3.4540   -2.2380    0.0000 C.3     1  LIG1        0.0406
     22 C          -2.5880   -1.7380    0.0000 C.3     1  LIG1        0.1672
@<TRIPOS>BOND
     1     1     2    2
     2     1     6    1
     3     1    17    1
     4     2     3   am
     5     3     4    1
     6     3    16    2
     7     4     5    1
     8     5     6    1
     9     5     7    1
    10     7     8   am
    11     7    15    2
    12     8     9    1
    13     9    10   ar
    14     9    14   ar
    15    10    11   ar
    16    11    12   ar
    17    12    13   ar
    18    13    14   ar
    19    17    18    1
    20    17    22    1
    21    18    19    1
    22    19    20    1
    23    20    21    1
    24    21    22    1
