@<TRIPOS>MOLECULE
27223_ChemDiv_K786-5778
 22 23 0 0 0
SMALL
GASTEIGER
Energy = 0

@<TRIPOS>ATOM
      1 N          -1.9080    0.1290    0.0000 N.am    1  LIG1       -0.2746
      2 C          -1.6000    1.0830    0.0000 C.3     1  LIG1        0.1539
      3 C          -0.6460    1.3880    0.0000 C.2     1  LIG1        0.2598
      4 N           0.0960    0.7210    0.0000 N.am    1  LIG1       -0.1991
      5 C           1.0630    0.9790    0.0000 C.3     1  LIG1        0.1445
      6 C           1.7630    0.2670    0.0000 C.ar    1  LIG1        0.0339
      7 C           2.7210    0.5210    0.0000 C.ar    1  LIG1        0.1364
      8 C           3.4170   -0.1750    0.0000 C.ar    1  LIG1        0.0371
      9 C           3.1580   -1.1460    0.0000 C.ar    1  LIG1        0.0098
     10 C           2.2000   -1.4040    0.0000 C.ar    1  LIG1        0.0345
     11 C           1.4920   -0.6920    0.0000 C.ar    1  LIG1        0.0072
     12 BR          1.9330   -2.3670    0.0000 Br      1  LIG1       -0.0490
     13 O           2.9790    1.4830    0.0000 O.3     1  LIG1       -0.4717
     14 C           2.2750    2.1960    0.0000 C.3     1  LIG1        0.2525
     15 O          -0.4330    2.3710    0.0000 O.2     1  LIG1       -0.2715
     16 C          -2.4130    1.6670    0.0000 C.3     1  LIG1        0.0388
     17 C          -3.2250    1.0830    0.0000 C.3     1  LIG1        0.0875
     18 C          -2.9210    0.1290    0.0000 C.2     1  LIG1        0.2260
     19 O          -3.4210   -0.7380    0.0000 O.2     1  LIG1       -0.2749
     20 C          -1.3290   -0.6880    0.0000 C.3     1  LIG1        0.0758
     21 C          -0.3290   -0.5790    0.0000 C.3     1  LIG1        0.0215
     22 C          -1.7380   -1.6000    0.0000 C.3     1  LIG1        0.0215
@<TRIPOS>BOND
     1     1     2    1
     2     1    18   am
     3     1    20    1
     4     2     3    1
     5     2    16    1
     6     3     4   am
     7     3    15    2
     8     4     5    1
     9     5     6    1
    10     6     7   ar
    11     6    11   ar
    12     7     8   ar
    13     7    13    1
    14     8     9   ar
    15     9    10   ar
    16    10    11   ar
    17    10    12    1
    18    13    14    1
    19    16    17    1
    20    17    18    1
    21    18    19    2
    22    20    21    1
    23    20    22    1
