@<TRIPOS>MOLECULE
27221_ChemDiv_K786-5777
 21 22 0 0 0
SMALL
GASTEIGER
Energy = 0

@<TRIPOS>ATOM
      1 N          -2.6210   -0.1290    0.0000 N.am    1  LIG1       -0.2746
      2 C          -2.3130    0.8250    0.0000 C.3     1  LIG1        0.1539
      3 C          -1.3540    1.1290    0.0000 C.2     1  LIG1        0.2598
      4 N          -0.6130    0.4630    0.0000 N.am    1  LIG1       -0.1992
      5 C           0.3500    0.7210    0.0000 C.3     1  LIG1        0.1415
      6 C           1.0540    0.0080    0.0000 C.ar    1  LIG1       -0.0004
      7 C           0.7830   -0.9500    0.0000 C.ar    1  LIG1        0.0006
      8 C           1.4880   -1.6630    0.0000 C.ar    1  LIG1        0.0366
      9 C           2.4500   -1.4040    0.0000 C.ar    1  LIG1        0.1387
     10 C           2.7080   -0.4330    0.0000 C.ar    1  LIG1        0.0366
     11 C           2.0080    0.2630    0.0000 C.ar    1  LIG1        0.0006
     12 O           3.1580   -2.1080    0.0000 O.3     1  LIG1       -0.4714
     13 C           4.1250   -1.8580    0.0000 C.3     1  LIG1        0.2525
     14 O          -1.1460    2.1130    0.0000 O.2     1  LIG1       -0.2715
     15 C          -3.1210    1.4080    0.0000 C.3     1  LIG1        0.0388
     16 C          -3.9330    0.8250    0.0000 C.3     1  LIG1        0.0875
     17 C          -3.6290   -0.1290    0.0000 C.2     1  LIG1        0.2260
     18 O          -4.1290   -0.9920    0.0000 O.2     1  LIG1       -0.2749
     19 C          -2.0380   -0.9420    0.0000 C.3     1  LIG1        0.0758
     20 C          -2.4500   -1.8580    0.0000 C.3     1  LIG1        0.0215
     21 C          -1.0380   -0.8380    0.0000 C.3     1  LIG1        0.0215
@<TRIPOS>BOND
     1     1     2    1
     2     1    17   am
     3     1    19    1
     4     2     3    1
     5     2    15    1
     6     3     4   am
     7     3    14    2
     8     4     5    1
     9     5     6    1
    10     6     7   ar
    11     6    11   ar
    12     7     8   ar
    13     8     9   ar
    14     9    10   ar
    15     9    12    1
    16    10    11   ar
    17    12    13    1
    18    15    16    1
    19    16    17    1
    20    17    18    2
    21    19    20    1
    22    19    21    1
