@<TRIPOS>MOLECULE
27225_ChemDiv_K786-7273
 26 28 0 0 0
SMALL
GASTEIGER
Energy = 0

@<TRIPOS>ATOM
      1 N          -1.4540   -1.5420    0.0000 N.am    1  LIG1       -0.2746
      2 C          -1.3460   -0.5460    0.0000 C.3     1  LIG1        0.1539
      3 C          -0.4710   -0.0500    0.0000 C.2     1  LIG1        0.2598
      4 N          -0.4710    0.9580    0.0000 N.am    1  LIG1       -0.1991
      5 C           0.3960    1.4540    0.0000 C.3     1  LIG1        0.1445
      6 C           0.4040    2.4500    0.0000 C.ar    1  LIG1        0.0334
      7 C           1.2630    2.9330    0.0000 C.ar    1  LIG1        0.1364
      8 O           2.1210    2.4250    0.0000 O.3     1  LIG1       -0.4717
      9 C           2.9920    2.9170    0.0000 C.3     1  LIG1        0.2525
     10 C           1.2710    3.9290    0.0000 C.ar    1  LIG1        0.0366
     11 C           0.4130    4.4250    0.0000 C.ar    1  LIG1        0.0031
     12 C          -0.4580    3.9330    0.0000 C.ar    1  LIG1       -0.0001
     13 C          -0.4580    2.9460    0.0000 C.ar    1  LIG1        0.0005
     14 O           0.3960   -0.5630    0.0000 O.2     1  LIG1       -0.2715
     15 C          -2.2500   -0.1290    0.0000 C.3     1  LIG1        0.0388
     16 C          -2.9210   -0.8670    0.0000 C.3     1  LIG1        0.0875
     17 C          -2.4380   -1.7420    0.0000 C.2     1  LIG1        0.2260
     18 O          -2.9960   -2.5710    0.0000 O.2     1  LIG1       -0.2749
     19 C          -0.7170   -2.2250    0.0000 C.3     1  LIG1        0.0757
     20 C           0.1920   -1.8040    0.0000 C.3     1  LIG1        0.0198
     21 C           1.1250   -2.1500    0.0000 C.3     1  LIG1        0.0017
     22 C           1.5500   -3.0710    0.0000 C.3     1  LIG1        0.0001
     23 C           1.1960   -4.0040    0.0000 C.3     1  LIG1        0.0000
     24 C           0.2830   -4.4250    0.0000 C.3     1  LIG1        0.0001
     25 C          -0.6540   -4.0750    0.0000 C.3     1  LIG1        0.0017
     26 C          -1.0750   -3.1580    0.0000 C.3     1  LIG1        0.0198
@<TRIPOS>BOND
     1     1     2    1
     2     1    17   am
     3     1    19    1
     4     2     3    1
     5     2    15    1
     6     3     4   am
     7     3    14    2
     8     4     5    1
     9     5     6    1
    10     6     7   ar
    11     6    13   ar
    12     7     8    1
    13     7    10   ar
    14     8     9    1
    15    10    11   ar
    16    11    12   ar
    17    12    13   ar
    18    15    16    1
    19    16    17    1
    20    17    18    2
    21    19    20    1
    22    19    26    1
    23    20    21    1
    24    21    22    1
    25    22    23    1
    26    23    24    1
    27    24    25    1
    28    25    26    1
