@<TRIPOS>MOLECULE
27220_ChemDiv_7376-0026
 24 26 0 0 0
SMALL
GASTEIGER
Energy = 0

@<TRIPOS>ATOM
      1 N          -0.4290    0.5040    0.0000 N.am    1  LIG1       -0.0022
      2 C          -0.4290   -0.4920    0.0000 C.2     1  LIG1        0.4362
      3 N           0.4330   -1.0000    0.0000 N.pl3   1  LIG1       -0.0599
      4 C           1.3000   -0.4920    0.0000 C.3     1  LIG1        0.2414
      5 C           1.3000    0.5040    0.0000 C.3     1  LIG1        0.1549
      6 C           0.4330    1.0040    0.0000 C.2     1  LIG1        0.3222
      7 O           0.4330    2.0080    0.0000 O.2     1  LIG1       -0.2533
      8 C           2.1750   -1.0000    0.0000 C.2     1  LIG1        0.2107
      9 O           2.1630   -2.0040    0.0000 O.2     1  LIG1       -0.2879
     10 C           3.0330   -0.5000    0.0000 C.ar    1  LIG1        0.0380
     11 C           3.8960   -1.0040    0.0000 C.ar    1  LIG1        0.0030
     12 C           4.7630   -0.5080    0.0000 C.ar    1  LIG1        0.0001
     13 C           4.7630    0.4920    0.0000 C.ar    1  LIG1        0.0000
     14 C           3.8960    0.9920    0.0000 C.ar    1  LIG1        0.0001
     15 C           3.0330    0.4920    0.0000 C.ar    1  LIG1        0.0030
     16 N          -1.3000   -1.0000    0.0000 N.pl3   1  LIG1       -0.0395
     17 C          -2.1630   -0.5080    0.0000 C.ar    1  LIG1        0.1481
     18 C          -3.0250   -1.0040    0.0000 C.ar    1  LIG1        0.0343
     19 C          -3.8920   -0.5080    0.0000 C.ar    1  LIG1       -0.0014
     20 C          -3.9000    0.4920    0.0000 C.ar    1  LIG1       -0.0220
     21 C          -3.0290    0.9960    0.0000 C.ar    1  LIG1       -0.0014
     22 C          -2.1630    0.4960    0.0000 C.ar    1  LIG1        0.0343
     23 C          -4.7630    0.9920    0.0000 C.3     1  LIG1        0.0264
     24 C          -4.7670    1.9880    0.0000 C.3     1  LIG1        0.0050
@<TRIPOS>BOND
     1     1     2    2
     2     1     6   am
     3     2     3    1
     4     2    16    1
     5     3     4    1
     6     4     5    1
     7     4     8    1
     8     5     6    1
     9     6     7    2
    10     8     9    2
    11     8    10    1
    12    10    11   ar
    13    10    15   ar
    14    11    12   ar
    15    12    13   ar
    16    13    14   ar
    17    14    15   ar
    18    16    17    1
    19    17    18   ar
    20    17    22   ar
    21    18    19   ar
    22    19    20   ar
    23    20    21   ar
    24    20    23    1
    25    21    22   ar
    26    23    24    1
