@<TRIPOS>MOLECULE
27229_ChemDiv_K786-8589
 25 27 0 0 0
SMALL
GASTEIGER
Energy = 0

@<TRIPOS>ATOM
      1 N           0.0250    1.9290    0.0000 N.am    1  LIG1       -0.2688
      2 C           0.8290    2.5210    0.0000 C.3     1  LIG1        0.1542
      3 C           1.7040    2.0330    0.0000 C.2     1  LIG1        0.2598
      4 N           1.7210    1.0330    0.0000 N.am    1  LIG1       -0.1992
      5 C           2.5880    0.5290    0.0000 C.3     1  LIG1        0.1415
      6 C           2.5750   -0.4710    0.0000 C.ar    1  LIG1       -0.0006
      7 C           1.7130   -0.9580    0.0000 C.ar    1  LIG1       -0.0029
      8 C           1.7040   -1.9580    0.0000 C.ar    1  LIG1       -0.0045
      9 C           2.5630   -2.4580    0.0000 C.ar    1  LIG1       -0.0219
     10 C           3.4380   -1.9580    0.0000 C.ar    1  LIG1       -0.0045
     11 C           3.4380   -0.9670    0.0000 C.ar    1  LIG1       -0.0029
     12 C           2.5630   -3.4630    0.0000 C.3     1  LIG1        0.0310
     13 O           2.5630    2.5500    0.0000 O.2     1  LIG1       -0.2715
     14 C           0.5210    3.4670    0.0000 C.3     1  LIG1        0.0388
     15 C          -0.4750    3.4670    0.0000 C.3     1  LIG1        0.0875
     16 C          -0.7960    2.5210    0.0000 C.2     1  LIG1        0.2263
     17 O          -1.6580    2.0170    0.0000 O.2     1  LIG1       -0.2749
     18 C           0.0250    0.9290    0.0000 C.3     1  LIG1        0.1205
     19 C          -0.8380    0.4290    0.0000 C.ar    1  LIG1       -0.0023
     20 C          -1.7040    0.9290    0.0000 C.ar    1  LIG1       -0.0029
     21 C          -2.5710    0.4290    0.0000 C.ar    1  LIG1       -0.0045
     22 C          -2.5710   -0.5790    0.0000 C.ar    1  LIG1       -0.0219
     23 C          -1.7040   -1.0790    0.0000 C.ar    1  LIG1       -0.0045
     24 C          -0.8380   -0.5790    0.0000 C.ar    1  LIG1       -0.0029
     25 C          -3.4420   -1.0790    0.0000 C.3     1  LIG1        0.0310
@<TRIPOS>BOND
     1     1     2    1
     2     1    16   am
     3     1    18    1
     4     2     3    1
     5     2    14    1
     6     3     4   am
     7     3    13    2
     8     4     5    1
     9     5     6    1
    10     6     7   ar
    11     6    11   ar
    12     7     8   ar
    13     8     9   ar
    14     9    10   ar
    15     9    12    1
    16    10    11   ar
    17    14    15    1
    18    15    16    1
    19    16    17    2
    20    18    19    1
    21    19    20   ar
    22    19    24   ar
    23    20    21   ar
    24    21    22   ar
    25    22    23   ar
    26    22    25    1
    27    23    24   ar
