@<TRIPOS>MOLECULE
27226_ChemDiv_1771-0034
 27 31 0 0 0
SMALL
GASTEIGER
Energy = 0

@<TRIPOS>ATOM
      1 C          -1.1880    0.6880    0.0000 C.ar    1  LIG1        0.2181
      2 N          -1.7710   -0.1130    0.0000 N.ar    1  LIG1       -0.2942
      3 C          -2.7210    0.1830    0.0000 C.ar    1  LIG1        0.0802
      4 C          -2.7210    1.2040    0.0000 C.ar    1  LIG1        0.1000
      5 N          -1.7710    1.5040    0.0000 N.ar    1  LIG1       -0.2124
      6 C          -3.5750    1.7170    0.0000 C.ar    1  LIG1        0.0207
      7 C          -4.4500    1.2040    0.0000 C.ar    1  LIG1        0.0016
      8 C          -4.4500    0.1830    0.0000 C.ar    1  LIG1        0.0016
      9 C          -3.5750   -0.3210    0.0000 C.ar    1  LIG1        0.0188
     10 C          -1.4630   -1.0670    0.0000 C.3     1  LIG1        0.1355
     11 C          -0.4960   -1.2750    0.0000 C.ar    1  LIG1        0.0005
     12 C          -0.1710   -2.2250    0.0000 C.ar    1  LIG1       -0.0024
     13 C           0.8170   -2.4210    0.0000 C.ar    1  LIG1       -0.0003
     14 C           1.4790   -1.6670    0.0000 C.ar    1  LIG1       -0.0000
     15 C           1.1460   -0.7460    0.0000 C.ar    1  LIG1       -0.0003
     16 C           0.1710   -0.5500    0.0000 C.ar    1  LIG1       -0.0024
     17 N          -0.1710    0.6880    0.0000 N.pl3   1  LIG1       -0.2004
     18 C           0.3290    1.5500    0.0000 C.3     1  LIG1        0.1417
     19 C           1.3290    1.5500    0.0000 C.ar    1  LIG1        0.0027
     20 C           1.8460    0.6880    0.0000 C.ar    1  LIG1        0.0376
     21 C           2.8460    0.7040    0.0000 C.ar    1  LIG1        0.1762
     22 C           3.3500    1.5790    0.0000 C.ar    1  LIG1        0.1764
     23 O           4.2960    1.3670    0.0000 O.3     1  LIG1       -0.4346
     24 C           4.4460    0.3960    0.0000 C.3     1  LIG1        0.4294
     25 O           3.5040   -0.0330    0.0000 O.3     1  LIG1       -0.4346
     26 C           2.8250    2.4250    0.0000 C.ar    1  LIG1        0.0399
     27 C           1.8250    2.4250    0.0000 C.ar    1  LIG1        0.0008
@<TRIPOS>BOND
     1     1     2   ar
     2     1     5   ar
     3     1    17    1
     4     2     3   ar
     5     2    10    1
     6     3     4   ar
     7     3     9   ar
     8     4     5   ar
     9     4     6   ar
    10     6     7   ar
    11     7     8   ar
    12     8     9   ar
    13    10    11    1
    14    11    12   ar
    15    11    16   ar
    16    12    13   ar
    17    13    14   ar
    18    14    15   ar
    19    15    16   ar
    20    17    18    1
    21    18    19    1
    22    19    20   ar
    23    19    27   ar
    24    20    21   ar
    25    21    22   ar
    26    21    25    1
    27    22    23    1
    28    22    26   ar
    29    23    24    1
    30    24    25    1
    31    26    27   ar
