@<TRIPOS>MOLECULE
27222_ChemDiv_7377-5332
 27 29 0 0 0
SMALL
GASTEIGER
Energy = 0

@<TRIPOS>ATOM
      1 N          -0.8710    0.5080    0.0000 N.am    1  LIG1       -0.0022
      2 C          -0.8630   -0.4920    0.0000 C.2     1  LIG1        0.4362
      3 N           0.0040   -0.9920    0.0000 N.pl3   1  LIG1       -0.0583
      4 C           0.8540   -0.5000    0.0000 C.3     1  LIG1        0.2578
      5 C           1.7290   -1.0000    0.0000 C.2     1  LIG1        0.2837
      6 N           2.5920   -0.5000    0.0000 N.am    1  LIG1       -0.1764
      7 C           3.4630   -1.0040    0.0000 C.ar    1  LIG1        0.0734
      8 C           4.3210   -0.5040    0.0000 C.ar    1  LIG1        0.0163
      9 C           5.1830   -1.0000    0.0000 C.ar    1  LIG1       -0.0029
     10 C           5.1830   -2.0040    0.0000 C.ar    1  LIG1       -0.0218
     11 C           4.3130   -2.5040    0.0000 C.ar    1  LIG1       -0.0029
     12 C           3.4460   -2.0040    0.0000 C.ar    1  LIG1        0.0163
     13 C           6.0540   -2.5040    0.0000 C.3     1  LIG1        0.0310
     14 O           1.7210   -2.0000    0.0000 O.2     1  LIG1       -0.2694
     15 C           0.8670    0.5080    0.0000 C.3     1  LIG1        0.1565
     16 C           0.0040    1.0080    0.0000 C.2     1  LIG1        0.3223
     17 O           0.0040    2.0080    0.0000 O.2     1  LIG1       -0.2533
     18 N          -1.7250   -0.9920    0.0000 N.pl3   1  LIG1       -0.0395
     19 C          -2.5960   -0.4920    0.0000 C.ar    1  LIG1        0.1483
     20 C          -2.5960    0.5080    0.0000 C.ar    1  LIG1        0.0378
     21 C          -3.4630    1.0080    0.0000 C.ar    1  LIG1        0.0397
     22 C          -4.3250    0.5080    0.0000 C.ar    1  LIG1        0.1387
     23 C          -4.3250   -0.4920    0.0000 C.ar    1  LIG1        0.0397
     24 C          -3.4630   -0.9920    0.0000 C.ar    1  LIG1        0.0378
     25 O          -5.1880    1.0080    0.0000 O.3     1  LIG1       -0.4755
     26 C          -5.1880    2.0080    0.0000 C.3     1  LIG1        0.2055
     27 C          -6.0540    2.5080    0.0000 C.3     1  LIG1        0.0512
@<TRIPOS>BOND
     1     1     2    2
     2     1    16   am
     3     2     3    1
     4     2    18    1
     5     3     4    1
     6     4     5    1
     7     4    15    1
     8     5     6   am
     9     5    14    2
    10     6     7    1
    11     7     8   ar
    12     7    12   ar
    13     8     9   ar
    14     9    10   ar
    15    10    11   ar
    16    10    13    1
    17    11    12   ar
    18    15    16    1
    19    16    17    2
    20    18    19    1
    21    19    20   ar
    22    19    24   ar
    23    20    21   ar
    24    21    22   ar
    25    22    23   ar
    26    22    25    1
    27    23    24   ar
    28    25    26    1
    29    26    27    1
