@<TRIPOS>MOLECULE
27237_ChemDiv_5084-0001
 23 25 0 0 0
SMALL
GASTEIGER
Energy = 0

@<TRIPOS>ATOM
      1 C          -0.7630   -0.2500    0.0000 C.ar    1  LIG1        0.1131
      2 C          -0.1830   -1.0580    0.0000 C.ar    1  LIG1        0.1515
      3 O          -0.7630   -1.8630    0.0000 O.2     1  LIG1       -0.4533
      4 C          -1.7290   -1.5580    0.0000 C.ar    1  LIG1        0.1457
      5 C          -1.7290   -0.5710    0.0000 C.ar    1  LIG1        0.0470
      6 C          -2.5830   -0.0580    0.0000 C.ar    1  LIG1        0.0454
      7 C          -3.4460   -0.5710    0.0000 C.ar    1  LIG1        0.1959
      8 C          -3.4460   -1.5580    0.0000 C.ar    1  LIG1        0.0452
      9 C          -2.5830   -2.0580    0.0000 C.ar    1  LIG1        0.0408
     10 O          -4.3210   -0.0580    0.0000 O.3     1  LIG1       -0.2866
     11 C           0.8210   -1.0580    0.0000 C.ar    1  LIG1        0.0350
     12 C           1.3040   -1.9380    0.0000 C.ar    1  LIG1        0.0061
     13 C           2.3170   -1.9500    0.0000 C.ar    1  LIG1        0.0370
     14 C           2.8170   -1.0750    0.0000 C.ar    1  LIG1        0.1387
     15 C           2.3170   -0.2080    0.0000 C.ar    1  LIG1        0.0370
     16 C           1.3040   -0.2040    0.0000 C.ar    1  LIG1        0.0061
     17 O           3.8040   -1.0750    0.0000 O.3     1  LIG1       -0.4714
     18 C           4.3170   -1.9630    0.0000 C.3     1  LIG1        0.2525
     19 C          -0.4540    0.7000    0.0000 C.2     1  LIG1        0.3443
     20 O          -1.1250    1.4330    0.0000 O.2     1  LIG1       -0.2448
     21 O           0.5170    0.9130    0.0000 O.3     1  LIG1       -0.4454
     22 C           0.8210    1.8580    0.0000 C.3     1  LIG1        0.2089
     23 C           1.7920    2.0630    0.0000 C.3     1  LIG1        0.0513
@<TRIPOS>BOND
     1     1     2   ar
     2     1     5   ar
     3     1    19    1
     4     2     3   ar
     5     2    11    1
     6     3     4   ar
     7     4     5   ar
     8     4     9   ar
     9     5     6   ar
    10     6     7   ar
    11     7     8   ar
    12     7    10    1
    13     8     9   ar
    14    11    12   ar
    15    11    16   ar
    16    12    13   ar
    17    13    14   ar
    18    14    15   ar
    19    14    17    1
    20    15    16   ar
    21    17    18    1
    22    19    20    2
    23    19    21    1
    24    21    22    1
    25    22    23    1
