@<TRIPOS>MOLECULE
27230_ChemDiv_1778-1422
 17 18 0 0 0
SMALL
GASTEIGER
Energy = 0

@<TRIPOS>ATOM
      1 S           0.9080   -0.7170    0.0000 S.O2    1  LIG1       -0.0470
      2 N           1.9080   -0.7170    0.0000 N.pl3   1  LIG1       -0.4651
      3 N           2.4080    0.1540    0.0000 N.ar    1  LIG1       -0.3708
      4 C           2.0000    1.0540    0.0000 C.ar    1  LIG1        0.1879
      5 N           2.7420    1.7210    0.0000 N.ar    1  LIG1       -0.1266
      6 N           3.6080    1.2250    0.0000 N.ar    1  LIG1       -0.1266
      7 C           3.4040    0.2540    0.0000 C.ar    1  LIG1        0.1879
      8 C          -0.0960   -0.7170    0.0000 C.ar    1  LIG1        0.0905
      9 C          -0.6000   -1.5750    0.0000 C.ar    1  LIG1        0.0201
     10 C          -1.6130   -1.5750    0.0000 C.ar    1  LIG1        0.0382
     11 C          -2.0960   -0.7170    0.0000 C.ar    1  LIG1        0.1388
     12 C          -1.6130    0.1540    0.0000 C.ar    1  LIG1        0.0382
     13 C          -0.6000    0.1540    0.0000 C.ar    1  LIG1        0.0201
     14 O          -3.0960   -0.7170    0.0000 O.3     1  LIG1       -0.4714
     15 C          -3.6130    0.1540    0.0000 C.3     1  LIG1        0.2525
     16 O           0.9080   -1.7170    0.0000 O.2     1  LIG1       -0.1833
     17 O           0.9080    0.2880    0.0000 O.2     1  LIG1       -0.1833
@<TRIPOS>BOND
     1     1     2    1
     2     1     8    1
     3     1    16    2
     4     1    17    2
     5     2     3    1
     6     3     4   ar
     7     3     7   ar
     8     4     5   ar
     9     5     6   ar
    10     6     7   ar
    11     8     9   ar
    12     8    13   ar
    13     9    10   ar
    14    10    11   ar
    15    11    12   ar
    16    11    14    1
    17    12    13   ar
    18    14    15    1
