@<TRIPOS>MOLECULE
27239_ChemDiv_5084-0021
 25 27 0 0 0
SMALL
GASTEIGER
Energy = 0

@<TRIPOS>ATOM
      1 C           0.0830   -0.2580    0.0000 C.ar    1  LIG1        0.1131
      2 C           0.6630   -1.0630    0.0000 C.ar    1  LIG1        0.1515
      3 O           0.0830   -1.8750    0.0000 O.2     1  LIG1       -0.4533
      4 C          -0.8710   -1.5710    0.0000 C.ar    1  LIG1        0.1457
      5 C          -0.8710   -0.5630    0.0000 C.ar    1  LIG1        0.0468
      6 C          -1.7330   -0.0710    0.0000 C.ar    1  LIG1        0.0402
      7 C          -2.5920   -0.5630    0.0000 C.ar    1  LIG1        0.1388
      8 C          -2.5920   -1.5710    0.0000 C.ar    1  LIG1        0.0400
      9 C          -1.7330   -2.0710    0.0000 C.ar    1  LIG1        0.0406
     10 O          -3.4710   -0.0710    0.0000 O.3     1  LIG1       -0.4755
     11 C          -4.3250   -0.5630    0.0000 C.3     1  LIG1        0.2055
     12 C          -5.2000   -0.0750    0.0000 C.3     1  LIG1        0.0512
     13 C           1.6750   -1.1210    0.0000 C.ar    1  LIG1        0.0350
     14 C           2.1460   -2.0080    0.0000 C.ar    1  LIG1        0.0061
     15 C           3.1330   -2.0540    0.0000 C.ar    1  LIG1        0.0370
     16 C           3.6790   -1.1960    0.0000 C.ar    1  LIG1        0.1387
     17 C           3.2080   -0.3170    0.0000 C.ar    1  LIG1        0.0370
     18 C           2.2040   -0.2750    0.0000 C.ar    1  LIG1        0.0061
     19 O           4.6790   -1.2210    0.0000 O.3     1  LIG1       -0.4714
     20 C           5.1960   -0.3750    0.0000 C.3     1  LIG1        0.2525
     21 C           0.3750    0.6960    0.0000 C.2     1  LIG1        0.3443
     22 O          -0.2790    1.4380    0.0000 O.2     1  LIG1       -0.2448
     23 O           1.3710    0.9000    0.0000 O.3     1  LIG1       -0.4454
     24 C           1.6750    1.8630    0.0000 C.3     1  LIG1        0.2089
     25 C           2.6460    2.0750    0.0000 C.3     1  LIG1        0.0513
@<TRIPOS>BOND
     1     1     2   ar
     2     1     5   ar
     3     1    21    1
     4     2     3   ar
     5     2    13    1
     6     3     4   ar
     7     4     5   ar
     8     4     9   ar
     9     5     6   ar
    10     6     7   ar
    11     7     8   ar
    12     7    10    1
    13     8     9   ar
    14    10    11    1
    15    11    12    1
    16    13    14   ar
    17    13    18   ar
    18    14    15   ar
    19    15    16   ar
    20    16    17   ar
    21    16    19    1
    22    17    18   ar
    23    19    20    1
    24    21    22    2
    25    21    23    1
    26    23    24    1
    27    24    25    1
