@<TRIPOS>MOLECULE
27231_ChemDiv_K786-9116
 33 36 0 0 0
SMALL
GASTEIGER
Energy = 0

@<TRIPOS>ATOM
      1 N          -3.6040    1.0920    0.0000 N.am    1  LIG1       -0.2688
      2 C          -3.4960    2.0830    0.0000 C.3     1  LIG1        0.1542
      3 C          -2.6170    2.5830    0.0000 C.2     1  LIG1        0.2595
      4 O          -2.6130    3.5830    0.0000 O.2     1  LIG1       -0.2716
      5 N          -1.7500    2.0790    0.0000 N.am    1  LIG1       -0.2038
      6 C          -0.8630    2.5250    0.0000 C.3     1  LIG1        0.1214
      7 C          -0.0250    1.9710    0.0000 C.3     1  LIG1        0.0861
      8 C           0.8380    2.4790    0.0000 C.3     1  LIG1        0.1404
      9 N           1.7040    1.9790    0.0000 N.4     1  LIG1        0.3773
     10 C           1.6960    0.9830    0.0000 C.3     1  LIG1        0.1386
     11 C           2.5630    0.4830    0.0000 C.3     1  LIG1        0.0632
     12 C           3.4290    0.9670    0.0000 C.3     1  LIG1        0.0162
     13 C           4.2960    0.4670    0.0000 C.3     1  LIG1        0.0268
     14 C           4.2960   -0.5330    0.0000 C.ar    1  LIG1       -0.0222
     15 C           3.4290   -1.0210    0.0000 C.ar    1  LIG1       -0.0043
     16 C           3.4130   -2.0130    0.0000 C.ar    1  LIG1       -0.0003
     17 C           4.2830   -2.5170    0.0000 C.ar    1  LIG1       -0.0000
     18 C           5.1500   -2.0130    0.0000 C.ar    1  LIG1       -0.0003
     19 C           5.1500   -1.0250    0.0000 C.ar    1  LIG1       -0.0043
     20 C           3.4290    1.9710    0.0000 C.3     1  LIG1        0.0632
     21 C           2.5630    2.4790    0.0000 C.3     1  LIG1        0.1386
     22 C          -4.4130    2.5040    0.0000 C.3     1  LIG1        0.0388
     23 C          -5.0920    1.7580    0.0000 C.3     1  LIG1        0.0875
     24 C          -4.5960    0.8830    0.0000 C.2     1  LIG1        0.2263
     25 O          -5.1540    0.0460    0.0000 O.2     1  LIG1       -0.2749
     26 C          -2.8710    0.4130    0.0000 C.3     1  LIG1        0.1205
     27 C          -2.9000   -0.5830    0.0000 C.ar    1  LIG1       -0.0023
     28 C          -2.0630   -1.1130    0.0000 C.ar    1  LIG1       -0.0029
     29 C          -2.0830   -2.1040    0.0000 C.ar    1  LIG1       -0.0045
     30 C          -2.9670   -2.5790    0.0000 C.ar    1  LIG1       -0.0219
     31 C          -3.8130   -2.0540    0.0000 C.ar    1  LIG1       -0.0045
     32 C          -3.7830   -1.0540    0.0000 C.ar    1  LIG1       -0.0029
     33 C          -2.9960   -3.5790    0.0000 C.3     1  LIG1        0.0310
@<TRIPOS>BOND
     1     1     2    1
     2     1    24   am
     3     1    26    1
     4     2     3    1
     5     2    22    1
     6     3     4    2
     7     3     5   am
     8     5     6    1
     9     6     7    1
    10     7     8    1
    11     8     9    1
    12     9    10    1
    13     9    21    1
    14    10    11    1
    15    11    12    1
    16    12    13    1
    17    12    20    1
    18    13    14    1
    19    14    15   ar
    20    14    19   ar
    21    15    16   ar
    22    16    17   ar
    23    17    18   ar
    24    18    19   ar
    25    20    21    1
    26    22    23    1
    27    23    24    1
    28    24    25    2
    29    26    27    1
    30    27    28   ar
    31    27    32   ar
    32    28    29   ar
    33    29    30   ar
    34    30    31   ar
    35    30    33    1
    36    31    32   ar
