@<TRIPOS>MOLECULE
27232_ChemDiv_1778-2901
 28 31 0 0 0
SMALL
GASTEIGER
Energy = 0

@<TRIPOS>ATOM
      1 C          -1.6380   -0.4210    0.0000 C.ar    1  LIG1        0.1072
      2 C          -2.6500   -0.4210    0.0000 C.ar    1  LIG1        0.1286
      3 N          -2.9540   -1.3830    0.0000 N.ar    1  LIG1       -0.0772
      4 O          -2.1170   -1.9750    0.0000 O.2     1  LIG1       -0.3576
      5 C          -1.3210   -1.3830    0.0000 C.ar    1  LIG1        0.1591
      6 C          -0.3580   -1.7210    0.0000 C.3     1  LIG1        0.0755
      7 C          -3.3500    0.2790    0.0000 C.ar    1  LIG1        0.0422
      8 C          -3.0790    1.2670    0.0000 C.ar    1  LIG1        0.0600
      9 CL         -2.3630    1.4750    0.0000 Cl      1  LIG1       -0.0822
     10 C          -3.8000    1.9790    0.0000 C.ar    1  LIG1        0.0115
     11 C          -4.7670    1.7080    0.0000 C.ar    1  LIG1        0.0017
     12 C          -5.0210    0.7330    0.0000 C.ar    1  LIG1        0.0115
     13 C          -4.3210    0.0210    0.0000 C.ar    1  LIG1        0.0600
     14 CL         -4.7460   -0.7750    0.0000 Cl      1  LIG1       -0.0822
     15 C          -1.0330    0.3960    0.0000 C.2     1  LIG1        0.2534
     16 N          -0.0330    0.3290    0.0000 N.am    1  LIG1       -0.2725
     17 C           0.5420    1.1670    0.0000 C.3     1  LIG1        0.1151
     18 C           1.5540    1.0880    0.0000 C.3     1  LIG1        0.1123
     19 N           2.0040    0.1880    0.0000 N.pl3   1  LIG1       -0.3041
     20 C           1.4380   -0.6670    0.0000 C.3     1  LIG1        0.1123
     21 C           0.4210   -0.5880    0.0000 C.3     1  LIG1        0.1151
     22 C           2.9880    0.1040    0.0000 C.ar    1  LIG1        0.0479
     23 C           3.4290   -0.8040    0.0000 C.ar    1  LIG1        0.0145
     24 C           4.4420   -0.8710    0.0000 C.ar    1  LIG1        0.0013
     25 C           5.0170   -0.0330    0.0000 C.ar    1  LIG1        0.0001
     26 C           4.5710    0.8710    0.0000 C.ar    1  LIG1        0.0013
     27 C           3.5580    0.9540    0.0000 C.ar    1  LIG1        0.0145
     28 O          -1.5250    1.3210    0.0000 O.2     1  LIG1       -0.2698
@<TRIPOS>BOND
     1     1     2   ar
     2     1     5   ar
     3     1    15    1
     4     2     3   ar
     5     2     7    1
     6     3     4   ar
     7     4     5   ar
     8     5     6    1
     9     7     8   ar
    10     7    13   ar
    11     8     9    1
    12     8    10   ar
    13    10    11   ar
    14    11    12   ar
    15    12    13   ar
    16    13    14    1
    17    15    16   am
    18    15    28    2
    19    16    17    1
    20    16    21    1
    21    17    18    1
    22    18    19    1
    23    19    20    1
    24    19    22    1
    25    20    21    1
    26    22    23   ar
    27    22    27   ar
    28    23    24   ar
    29    24    25   ar
    30    25    26   ar
    31    26    27   ar
