@<TRIPOS>MOLECULE
27233_ChemDiv_3570-0451
 24 26 0 0 0
SMALL
GASTEIGER
Energy = 0

@<TRIPOS>ATOM
      1 C           1.2790   -0.2540    0.0000 C.ar    1  LIG1        0.1131
      2 C           1.8710   -1.0540    0.0000 C.ar    1  LIG1        0.1515
      3 O           1.2790   -1.8670    0.0000 O.2     1  LIG1       -0.4533
      4 C           0.3290   -1.5670    0.0000 C.ar    1  LIG1        0.1457
      5 C           0.3290   -0.5540    0.0000 C.ar    1  LIG1        0.0468
      6 C          -0.5330   -0.0670    0.0000 C.ar    1  LIG1        0.0403
      7 C          -1.4000   -0.5540    0.0000 C.ar    1  LIG1        0.1403
      8 C          -1.4000   -1.5670    0.0000 C.ar    1  LIG1        0.0401
      9 C          -0.5330   -2.0670    0.0000 C.ar    1  LIG1        0.0406
     10 O          -2.2750   -0.0670    0.0000 O.3     1  LIG1       -0.4593
     11 C          -3.1210   -0.5540    0.0000 C.3     1  LIG1        0.3090
     12 C          -3.9920   -0.0710    0.0000 C.1     1  LIG1        0.1218
     13 N          -4.8790    0.4170    0.0000 N.1     1  LIG1       -0.1920
     14 C           2.8630   -1.1170    0.0000 C.ar    1  LIG1        0.0348
     15 C           3.3420   -2.0040    0.0000 C.ar    1  LIG1        0.0030
     16 C           4.3290   -2.0500    0.0000 C.ar    1  LIG1        0.0001
     17 C           4.8750   -1.1920    0.0000 C.ar    1  LIG1        0.0000
     18 C           4.4170   -0.3130    0.0000 C.ar    1  LIG1        0.0001
     19 C           3.4040   -0.2670    0.0000 C.ar    1  LIG1        0.0030
     20 C           1.5880    0.6880    0.0000 C.2     1  LIG1        0.3443
     21 O           0.9170    1.4290    0.0000 O.2     1  LIG1       -0.2448
     22 O           2.5580    0.9040    0.0000 O.3     1  LIG1       -0.4454
     23 C           2.8630    1.8540    0.0000 C.3     1  LIG1        0.2089
     24 C           3.8460    2.0710    0.0000 C.3     1  LIG1        0.0513
@<TRIPOS>BOND
     1     1     2   ar
     2     1     5   ar
     3     1    20    1
     4     2     3   ar
     5     2    14    1
     6     3     4   ar
     7     4     5   ar
     8     4     9   ar
     9     5     6   ar
    10     6     7   ar
    11     7     8   ar
    12     7    10    1
    13     8     9   ar
    14    10    11    1
    15    11    12    1
    16    12    13    3
    17    14    15   ar
    18    14    19   ar
    19    15    16   ar
    20    16    17   ar
    21    17    18   ar
    22    18    19   ar
    23    20    21    2
    24    20    22    1
    25    22    23    1
    26    23    24    1
