@<TRIPOS>MOLECULE
27235_ChemDiv_3570-0473
 29 31 0 0 0
SMALL
GASTEIGER
Energy = 0

@<TRIPOS>ATOM
      1 C           2.1790   -0.2580    0.0000 C.ar    1  LIG1        0.1131
      2 C           2.7500   -1.0670    0.0000 C.ar    1  LIG1        0.1515
      3 O           2.1790   -1.8750    0.0000 O.2     1  LIG1       -0.4533
      4 C           1.2330   -1.5630    0.0000 C.ar    1  LIG1        0.1457
      5 C           1.2330   -0.5750    0.0000 C.ar    1  LIG1        0.0468
      6 C           0.3670   -0.0630    0.0000 C.ar    1  LIG1        0.0403
      7 C          -0.5040   -0.5750    0.0000 C.ar    1  LIG1        0.1396
      8 O          -1.3790   -0.0630    0.0000 O.3     1  LIG1       -0.4638
      9 C          -2.2420   -0.5750    0.0000 C.3     1  LIG1        0.3141
     10 C          -3.1130   -0.0790    0.0000 C.2     1  LIG1        0.3618
     11 O          -3.9920   -0.5880    0.0000 O.3     1  LIG1       -0.4532
     12 C          -4.8540   -0.0790    0.0000 C.3     1  LIG1        0.1364
     13 C          -5.3500   -0.9630    0.0000 C.3     1  LIG1        0.0437
     14 C          -5.7380    0.4130    0.0000 C.3     1  LIG1        0.0437
     15 C          -4.3420    0.7830    0.0000 C.3     1  LIG1        0.0437
     16 O          -3.1130    0.9250    0.0000 O.2     1  LIG1       -0.2459
     17 C          -0.5040   -1.5630    0.0000 C.ar    1  LIG1        0.0400
     18 C           0.3670   -2.0670    0.0000 C.ar    1  LIG1        0.0406
     19 C           3.7380   -1.0790    0.0000 C.ar    1  LIG1        0.0348
     20 C           4.2330   -1.9500    0.0000 C.ar    1  LIG1        0.0030
     21 C           5.2210   -1.9500    0.0000 C.ar    1  LIG1        0.0001
     22 C           5.7330   -1.0960    0.0000 C.ar    1  LIG1        0.0000
     23 C           5.2380   -0.2210    0.0000 C.ar    1  LIG1        0.0001
     24 C           4.2500   -0.2210    0.0000 C.ar    1  LIG1        0.0030
     25 C           2.4670    0.6960    0.0000 C.2     1  LIG1        0.3443
     26 O           1.8250    1.4380    0.0000 O.2     1  LIG1       -0.2448
     27 O           3.4540    0.9080    0.0000 O.3     1  LIG1       -0.4454
     28 C           3.7540    1.8630    0.0000 C.3     1  LIG1        0.2089
     29 C           4.7460    2.0710    0.0000 C.3     1  LIG1        0.0513
@<TRIPOS>BOND
     1     1     2   ar
     2     1     5   ar
     3     1    25    1
     4     2     3   ar
     5     2    19    1
     6     3     4   ar
     7     4     5   ar
     8     4    18   ar
     9     5     6   ar
    10     6     7   ar
    11     7     8    1
    12     7    17   ar
    13     8     9    1
    14     9    10    1
    15    10    11    1
    16    10    16    2
    17    11    12    1
    18    12    13    1
    19    12    14    1
    20    12    15    1
    21    17    18   ar
    22    19    20   ar
    23    19    24   ar
    24    20    21   ar
    25    21    22   ar
    26    22    23   ar
    27    23    24   ar
    28    25    26    2
    29    25    27    1
    30    27    28    1
    31    28    29    1
