@<TRIPOS>MOLECULE
27238_ChemDiv_6412-0009
 23 25 0 0 0
SMALL
GASTEIGER
Energy = 0

@<TRIPOS>ATOM
      1 C          -1.2960    0.4960    0.0000 C.ar    1  LIG1        0.2278
      2 N          -1.2960   -0.5130    0.0000 N.ar    1  LIG1       -0.1609
      3 C          -2.1580   -1.0080    0.0000 C.ar    1  LIG1        0.3262
      4 N          -3.0170   -0.5130    0.0000 N.ar    1  LIG1       -0.1411
      5 C          -3.0170    0.4830    0.0000 C.ar    1  LIG1        0.3262
      6 N          -2.1580    0.9920    0.0000 N.ar    1  LIG1       -0.1609
      7 O          -3.8920    1.0080    0.0000 O.3     1  LIG1       -0.4425
      8 C          -4.7670    0.5080    0.0000 C.3     1  LIG1        0.2559
      9 O          -2.1580   -2.0040    0.0000 O.3     1  LIG1       -0.4425
     10 C          -1.2960   -2.5000    0.0000 C.3     1  LIG1        0.2559
     11 N          -0.4210    0.9960    0.0000 N.pl3   1  LIG1       -0.2780
     12 C           0.4460    0.4960    0.0000 C.3     1  LIG1        0.0936
     13 C           1.3130    0.9960    0.0000 C.3     1  LIG1        0.0219
     14 C           1.3130    2.0040    0.0000 C.3     1  LIG1        0.0078
     15 C           2.1710    2.5000    0.0000 C.3     1  LIG1        0.0265
     16 C           3.0420    2.0040    0.0000 C.ar    1  LIG1       -0.0222
     17 C           3.0330    1.0080    0.0000 C.ar    1  LIG1       -0.0043
     18 C           3.8920    0.5080    0.0000 C.ar    1  LIG1       -0.0003
     19 C           4.7630    1.0080    0.0000 C.ar    1  LIG1       -0.0000
     20 C           4.7500    2.0080    0.0000 C.ar    1  LIG1       -0.0003
     21 C           3.8920    2.5000    0.0000 C.ar    1  LIG1       -0.0043
     22 C           0.4380    2.5040    0.0000 C.3     1  LIG1        0.0219
     23 C          -0.4380    2.0040    0.0000 C.3     1  LIG1        0.0936
@<TRIPOS>BOND
     1     1     2   ar
     2     1     6   ar
     3     1    11    1
     4     2     3   ar
     5     3     4   ar
     6     3     9    1
     7     4     5   ar
     8     5     6   ar
     9     5     7    1
    10     7     8    1
    11     9    10    1
    12    11    12    1
    13    11    23    1
    14    12    13    1
    15    13    14    1
    16    14    15    1
    17    14    22    1
    18    15    16    1
    19    16    17   ar
    20    16    21   ar
    21    17    18   ar
    22    18    19   ar
    23    19    20   ar
    24    20    21   ar
    25    22    23    1
