@<TRIPOS>MOLECULE
27249_ChemDiv_K788-0331
 30 32 0 0 0
SMALL
GASTEIGER
Energy = 0

@<TRIPOS>ATOM
      1 N          -2.8420   -1.3540    0.0000 N.am    1  LIG1       -0.2687
      2 C          -2.5330   -0.4040    0.0000 C.3     1  LIG1        0.1542
      3 C          -1.5750   -0.0920    0.0000 C.2     1  LIG1        0.2595
      4 O          -0.8330   -0.7670    0.0000 O.2     1  LIG1       -0.2716
      5 N          -1.3630    0.8920    0.0000 N.am    1  LIG1       -0.2040
      6 C          -0.4040    1.1920    0.0000 C.3     1  LIG1        0.1170
      7 C          -0.1920    2.1750    0.0000 C.3     1  LIG1        0.0448
      8 C           0.7670    2.4330    0.0000 C.3     1  LIG1        0.0926
      9 N           1.0080    3.3880    0.0000 N.pl3   1  LIG1       -0.3074
     10 C           1.9670    3.6710    0.0000 C.ar    1  LIG1        0.0475
     11 C           2.6750    2.9670    0.0000 C.ar    1  LIG1        0.0103
     12 C           3.6290    3.2460    0.0000 C.ar    1  LIG1       -0.0206
     13 C           3.8790    4.2080    0.0000 C.ar    1  LIG1       -0.0042
     14 C           3.1540    4.9040    0.0000 C.ar    1  LIG1        0.0009
     15 C           2.2040    4.6330    0.0000 C.ar    1  LIG1        0.0145
     16 C           4.3500    2.5540    0.0000 C.3     1  LIG1        0.0311
     17 C           0.2920    4.0790    0.0000 C.3     1  LIG1        0.0908
     18 C          -0.6670    3.8130    0.0000 C.3     1  LIG1        0.0232
     19 C          -3.3420    0.1880    0.0000 C.3     1  LIG1        0.0388
     20 C          -4.1500   -0.4040    0.0000 C.3     1  LIG1        0.0875
     21 C          -3.8500   -1.3540    0.0000 C.2     1  LIG1        0.2263
     22 O          -4.3540   -2.2210    0.0000 O.2     1  LIG1       -0.2749
     23 C          -2.2540   -2.1630    0.0000 C.3     1  LIG1        0.1214
     24 C          -2.6630   -3.0830    0.0000 C.ar    1  LIG1        0.0083
     25 C          -2.0830   -3.8830    0.0000 C.ar    1  LIG1        0.0553
     26 CL         -1.0830   -3.8830    0.0000 Cl      1  LIG1       -0.0825
     27 C          -2.4880   -4.8000    0.0000 C.ar    1  LIG1        0.0111
     28 C          -3.4880   -4.9040    0.0000 C.ar    1  LIG1        0.0008
     29 C          -4.0750   -4.0960    0.0000 C.ar    1  LIG1       -0.0002
     30 C          -3.6580   -3.1710    0.0000 C.ar    1  LIG1       -0.0018
@<TRIPOS>BOND
     1     1     2    1
     2     1    21   am
     3     1    23    1
     4     2     3    1
     5     2    19    1
     6     3     4    2
     7     3     5   am
     8     5     6    1
     9     6     7    1
    10     7     8    1
    11     8     9    1
    12     9    10    1
    13     9    17    1
    14    10    11   ar
    15    10    15   ar
    16    11    12   ar
    17    12    13   ar
    18    12    16    1
    19    13    14   ar
    20    14    15   ar
    21    17    18    1
    22    19    20    1
    23    20    21    1
    24    21    22    2
    25    23    24    1
    26    24    25   ar
    27    24    30   ar
    28    25    26    1
    29    25    27   ar
    30    27    28   ar
    31    28    29   ar
    32    29    30   ar
