@<TRIPOS>MOLECULE
27241_ChemDiv_5084-0024
 28 30 0 0 0
SMALL
GASTEIGER
Energy = 0

@<TRIPOS>ATOM
      1 C           0.9500   -0.2580    0.0000 C.ar    1  LIG1        0.1131
      2 C           1.5290   -1.0630    0.0000 C.ar    1  LIG1        0.1515
      3 O           0.9500   -1.8750    0.0000 O.2     1  LIG1       -0.4533
      4 C          -0.0040   -1.5710    0.0000 C.ar    1  LIG1        0.1457
      5 C          -0.0040   -0.5630    0.0000 C.ar    1  LIG1        0.0468
      6 C          -0.8670   -0.0710    0.0000 C.ar    1  LIG1        0.0403
      7 C          -1.7250   -0.5630    0.0000 C.ar    1  LIG1        0.1396
      8 O          -2.6040   -0.0710    0.0000 O.3     1  LIG1       -0.4638
      9 C          -3.4580   -0.5630    0.0000 C.3     1  LIG1        0.3141
     10 C          -4.3330   -0.0750    0.0000 C.2     1  LIG1        0.3621
     11 O          -4.3460    0.9250    0.0000 O.2     1  LIG1       -0.2459
     12 O          -5.1960   -0.5750    0.0000 O.3     1  LIG1       -0.4418
     13 C          -6.0580   -0.0750    0.0000 C.3     1  LIG1        0.2557
     14 C          -1.7250   -1.5710    0.0000 C.ar    1  LIG1        0.0400
     15 C          -0.8670   -2.0710    0.0000 C.ar    1  LIG1        0.0406
     16 C           2.5420   -1.1210    0.0000 C.ar    1  LIG1        0.0350
     17 C           3.0080   -2.0080    0.0000 C.ar    1  LIG1        0.0061
     18 C           4.0000   -2.0540    0.0000 C.ar    1  LIG1        0.0370
     19 C           4.5460   -1.1960    0.0000 C.ar    1  LIG1        0.1387
     20 C           4.0750   -0.3170    0.0000 C.ar    1  LIG1        0.0370
     21 C           3.0710   -0.2750    0.0000 C.ar    1  LIG1        0.0061
     22 O           5.5460   -1.2210    0.0000 O.3     1  LIG1       -0.4714
     23 C           6.0580   -0.3750    0.0000 C.3     1  LIG1        0.2525
     24 C           1.2420    0.6960    0.0000 C.2     1  LIG1        0.3443
     25 O           0.5880    1.4380    0.0000 O.2     1  LIG1       -0.2448
     26 O           2.2380    0.9000    0.0000 O.3     1  LIG1       -0.4454
     27 C           2.5420    1.8630    0.0000 C.3     1  LIG1        0.2089
     28 C           3.5080    2.0750    0.0000 C.3     1  LIG1        0.0513
@<TRIPOS>BOND
     1     1     2   ar
     2     1     5   ar
     3     1    24    1
     4     2     3   ar
     5     2    16    1
     6     3     4   ar
     7     4     5   ar
     8     4    15   ar
     9     5     6   ar
    10     6     7   ar
    11     7     8    1
    12     7    14   ar
    13     8     9    1
    14     9    10    1
    15    10    11    2
    16    10    12    1
    17    12    13    1
    18    14    15   ar
    19    16    17   ar
    20    16    21   ar
    21    17    18   ar
    22    18    19   ar
    23    19    20   ar
    24    19    22    1
    25    20    21   ar
    26    22    23    1
    27    24    25    2
    28    24    26    1
    29    26    27    1
    30    27    28    1
