@<TRIPOS>MOLECULE
27247_ChemDiv_1683-6179
 20 22 0 0 0
SMALL
GASTEIGER
Energy = 0

@<TRIPOS>ATOM
      1 S          -0.0330   -1.1960    0.0000 S.O2    1  LIG1       -0.0578
      2 N           0.9630   -1.1960    0.0000 N.pl3   1  LIG1       -0.5357
      3 C           1.4750   -0.2920    0.0000 C.ar    1  LIG1       -0.1091
      4 C           2.5000   -0.2920    0.0000 C.ar    1  LIG1        0.0164
      5 C           2.9750    0.5750    0.0000 C.ar    1  LIG1        0.1746
      6 C           2.5000    1.4460    0.0000 C.ar    1  LIG1        0.1763
      7 O           3.1330    2.1920    0.0000 O.3     1  LIG1       -0.4346
      8 C           4.0370    1.7960    0.0000 C.3     1  LIG1        0.4294
      9 O           3.9580    0.8130    0.0000 O.3     1  LIG1       -0.4347
     10 C           1.4750    1.4460    0.0000 C.ar    1  LIG1        0.0383
     11 C           0.9630    0.5750    0.0000 C.ar    1  LIG1       -0.0205
     12 C          -1.0330   -1.2380    0.0000 C.ar    1  LIG1        0.0893
     13 C          -1.5380   -2.0630    0.0000 C.ar    1  LIG1        0.0178
     14 C          -2.5420   -2.0630    0.0000 C.ar    1  LIG1        0.0127
     15 C          -3.0380   -1.2380    0.0000 C.ar    1  LIG1        0.0577
     16 C          -2.5420   -0.3290    0.0000 C.ar    1  LIG1        0.0127
     17 C          -1.5380   -0.3710    0.0000 C.ar    1  LIG1        0.0178
     18 CL         -4.0420   -1.2420    0.0000 Cl      1  LIG1       -0.0822
     19 O          -0.0250   -2.1880    0.0000 O.2     1  LIG1       -0.1842
     20 O          -0.0330   -0.2130    0.0000 O.2     1  LIG1       -0.1842
@<TRIPOS>BOND
     1     1     2    1
     2     1    12    1
     3     1    19    2
     4     1    20    2
     5     2     3    1
     6     3     4   ar
     7     3    11   ar
     8     4     5   ar
     9     5     6   ar
    10     5     9    1
    11     6     7    1
    12     6    10   ar
    13     7     8    1
    14     8     9    1
    15    10    11   ar
    16    12    13   ar
    17    12    17   ar
    18    13    14   ar
    19    14    15   ar
    20    15    16   ar
    21    15    18    1
    22    16    17   ar
