@<TRIPOS>MOLECULE
27243_ChemDiv_5084-0025
 29 31 0 0 0
SMALL
GASTEIGER
Energy = 0

@<TRIPOS>ATOM
      1 C           1.3880   -0.2580    0.0000 C.ar    1  LIG1        0.1131
      2 C           1.9670   -1.0630    0.0000 C.ar    1  LIG1        0.1515
      3 O           1.3880   -1.8750    0.0000 O.2     1  LIG1       -0.4533
      4 C           0.4330   -1.5710    0.0000 C.ar    1  LIG1        0.1457
      5 C           0.4330   -0.5630    0.0000 C.ar    1  LIG1        0.0468
      6 C          -0.4290   -0.0710    0.0000 C.ar    1  LIG1        0.0403
      7 C          -1.2880   -0.5630    0.0000 C.ar    1  LIG1        0.1396
      8 O          -2.1670   -0.0710    0.0000 O.3     1  LIG1       -0.4638
      9 C          -3.0210   -0.5630    0.0000 C.3     1  LIG1        0.3141
     10 C          -3.8920   -0.0750    0.0000 C.2     1  LIG1        0.3620
     11 O          -3.9080    0.9250    0.0000 O.2     1  LIG1       -0.2459
     12 O          -4.7580   -0.5750    0.0000 O.3     1  LIG1       -0.4459
     13 C          -5.6250   -0.0750    0.0000 C.3     1  LIG1        0.2087
     14 C          -6.4920   -0.5920    0.0000 C.3     1  LIG1        0.0513
     15 C          -1.2880   -1.5710    0.0000 C.ar    1  LIG1        0.0400
     16 C          -0.4290   -2.0710    0.0000 C.ar    1  LIG1        0.0406
     17 C           2.9750   -1.1210    0.0000 C.ar    1  LIG1        0.0350
     18 C           3.4460   -2.0080    0.0000 C.ar    1  LIG1        0.0061
     19 C           4.4330   -2.0540    0.0000 C.ar    1  LIG1        0.0370
     20 C           4.9790   -1.1960    0.0000 C.ar    1  LIG1        0.1387
     21 C           4.5080   -0.3170    0.0000 C.ar    1  LIG1        0.0370
     22 C           3.5040   -0.2750    0.0000 C.ar    1  LIG1        0.0061
     23 O           5.9790   -1.2210    0.0000 O.3     1  LIG1       -0.4714
     24 C           6.4920   -0.3750    0.0000 C.3     1  LIG1        0.2525
     25 C           1.6790    0.6960    0.0000 C.2     1  LIG1        0.3443
     26 O           1.0210    1.4380    0.0000 O.2     1  LIG1       -0.2448
     27 O           2.6750    0.9000    0.0000 O.3     1  LIG1       -0.4454
     28 C           2.9750    1.8630    0.0000 C.3     1  LIG1        0.2089
     29 C           3.9460    2.0750    0.0000 C.3     1  LIG1        0.0513
@<TRIPOS>BOND
     1     1     2   ar
     2     1     5   ar
     3     1    25    1
     4     2     3   ar
     5     2    17    1
     6     3     4   ar
     7     4     5   ar
     8     4    16   ar
     9     5     6   ar
    10     6     7   ar
    11     7     8    1
    12     7    15   ar
    13     8     9    1
    14     9    10    1
    15    10    11    2
    16    10    12    1
    17    12    13    1
    18    13    14    1
    19    15    16   ar
    20    17    18   ar
    21    17    22   ar
    22    18    19   ar
    23    19    20   ar
    24    20    21   ar
    25    20    23    1
    26    21    22   ar
    27    23    24    1
    28    25    26    2
    29    25    27    1
    30    27    28    1
    31    28    29    1
