@<TRIPOS>MOLECULE
27245_ChemDiv_5084-0107
 27 29 0 0 0
SMALL
GASTEIGER
Energy = 0

@<TRIPOS>ATOM
      1 C           0.5250   -0.2630    0.0000 C.ar    1  LIG1        0.1131
      2 C           1.1040   -1.0750    0.0000 C.ar    1  LIG1        0.1515
      3 O           0.5250   -1.8750    0.0000 O.2     1  LIG1       -0.4533
      4 C          -0.4290   -1.5710    0.0000 C.ar    1  LIG1        0.1457
      5 C          -0.4290   -0.5670    0.0000 C.ar    1  LIG1        0.0468
      6 C          -1.2920   -0.0670    0.0000 C.ar    1  LIG1        0.0409
      7 C          -2.1630   -0.5670    0.0000 C.ar    1  LIG1        0.1487
      8 O          -3.0290   -0.0670    0.0000 O.3     1  LIG1       -0.4241
      9 C          -3.8920   -0.5790    0.0000 C.2     1  LIG1        0.3215
     10 O          -3.8750   -1.5790    0.0000 O.2     1  LIG1       -0.2497
     11 C          -4.7630   -0.0790    0.0000 C.3     1  LIG1        0.1100
     12 C          -5.6290   -0.5920    0.0000 C.3     1  LIG1        0.0122
     13 C          -2.1630   -1.5710    0.0000 C.ar    1  LIG1        0.0407
     14 C          -1.2920   -2.0630    0.0000 C.ar    1  LIG1        0.0406
     15 C           2.1130   -1.1250    0.0000 C.ar    1  LIG1        0.0350
     16 C           2.5790   -2.0170    0.0000 C.ar    1  LIG1        0.0061
     17 C           3.5670   -2.0540    0.0000 C.ar    1  LIG1        0.0370
     18 C           4.1130   -1.2080    0.0000 C.ar    1  LIG1        0.1387
     19 C           3.6420   -0.3210    0.0000 C.ar    1  LIG1        0.0370
     20 C           2.6420   -0.2880    0.0000 C.ar    1  LIG1        0.0061
     21 O           5.1080   -1.2290    0.0000 O.3     1  LIG1       -0.4714
     22 C           5.6250   -0.3670    0.0000 C.3     1  LIG1        0.2525
     23 C           0.8250    0.6920    0.0000 C.2     1  LIG1        0.3443
     24 O           0.1630    1.4290    0.0000 O.2     1  LIG1       -0.2448
     25 O           1.8080    0.9000    0.0000 O.3     1  LIG1       -0.4454
     26 C           2.1130    1.8540    0.0000 C.3     1  LIG1        0.2089
     27 C           3.0790    2.0670    0.0000 C.3     1  LIG1        0.0513
@<TRIPOS>BOND
     1     1     2   ar
     2     1     5   ar
     3     1    23    1
     4     2     3   ar
     5     2    15    1
     6     3     4   ar
     7     4     5   ar
     8     4    14   ar
     9     5     6   ar
    10     6     7   ar
    11     7     8    1
    12     7    13   ar
    13     8     9    1
    14     9    10    2
    15     9    11    1
    16    11    12    1
    17    13    14   ar
    18    15    16   ar
    19    15    20   ar
    20    16    17   ar
    21    17    18   ar
    22    18    19   ar
    23    18    21    1
    24    19    20   ar
    25    21    22    1
    26    23    24    2
    27    23    25    1
    28    25    26    1
    29    26    27    1
