@<TRIPOS>MOLECULE
27258_ChemDiv_4346-1407
 25 27 0 0 0
SMALL
GASTEIGER
Energy = 0

@<TRIPOS>ATOM
      1 C           1.8580    0.0210    0.0000 C.ar    1  LIG1        0.1086
      2 C           2.0130   -1.0040    0.0000 C.ar    1  LIG1        0.1278
      3 N           3.0500   -1.1250    0.0000 N.ar    1  LIG1       -0.0772
      4 O           3.4420   -0.2380    0.0000 O.2     1  LIG1       -0.3576
      5 C           2.7500    0.4790    0.0000 C.ar    1  LIG1        0.1592
      6 C           2.9170    1.4630    0.0000 C.3     1  LIG1        0.0755
      7 C           1.3380   -1.7250    0.0000 C.ar    1  LIG1        0.0316
      8 C           1.6080   -2.6630    0.0000 C.ar    1  LIG1        0.0592
      9 CL          2.5710   -2.8880    0.0000 Cl      1  LIG1       -0.0822
     10 C           0.9540   -3.3830    0.0000 C.ar    1  LIG1        0.0114
     11 C          -0.0170   -3.1710    0.0000 C.ar    1  LIG1        0.0009
     12 C          -0.2920   -2.2210    0.0000 C.ar    1  LIG1        0.0001
     13 C           0.3710   -1.5040    0.0000 C.ar    1  LIG1        0.0024
     14 C           0.9750    0.4880    0.0000 C.2     1  LIG1        0.2690
     15 N           0.9710    1.4880    0.0000 N.am    1  LIG1       -0.2030
     16 C           0.0880    1.9830    0.0000 C.3     1  LIG1        0.1000
     17 C          -0.7880    1.4630    0.0000 C.3     1  LIG1        0.0480
     18 C          -1.6710    1.9290    0.0000 C.ar    1  LIG1       -0.0205
     19 C          -1.7170    2.9330    0.0000 C.ar    1  LIG1       -0.0042
     20 C          -2.6040    3.3880    0.0000 C.ar    1  LIG1       -0.0003
     21 C          -3.4460    2.8580    0.0000 C.ar    1  LIG1       -0.0000
     22 C          -3.3880    1.8710    0.0000 C.ar    1  LIG1       -0.0003
     23 C          -2.5130    1.4130    0.0000 C.ar    1  LIG1       -0.0042
     24 C           0.0880    2.9920    0.0000 C.3     1  LIG1        0.0238
     25 O           0.0080    0.0210    0.0000 O.2     1  LIG1       -0.2682
@<TRIPOS>BOND
     1     1     2   ar
     2     1     5   ar
     3     1    14    1
     4     2     3   ar
     5     2     7    1
     6     3     4   ar
     7     4     5   ar
     8     5     6    1
     9     7     8   ar
    10     7    13   ar
    11     8     9    1
    12     8    10   ar
    13    10    11   ar
    14    11    12   ar
    15    12    13   ar
    16    14    15   am
    17    14    25    2
    18    15    16    1
    19    16    17    1
    20    16    24    1
    21    17    18    1
    22    18    19   ar
    23    18    23   ar
    24    19    20   ar
    25    20    21   ar
    26    21    22   ar
    27    22    23   ar
