@<TRIPOS>MOLECULE
27255_ChemDiv_1759-0028
 22 24 0 0 0
SMALL
GASTEIGER
Energy = 0

@<TRIPOS>ATOM
      1 C           1.7000   -0.5750    0.0000 C.ar    1  LIG1        0.0654
      2 N           0.8380   -1.0710    0.0000 N.am    1  LIG1       -0.1787
      3 C          -0.0580   -0.5750    0.0000 C.2     1  LIG1        0.2619
      4 C          -0.9170   -1.0500    0.0000 C.3     1  LIG1        0.1609
      5 N          -1.7630   -0.5420    0.0000 N.3     1  LIG1       -0.2550
      6 C          -1.7630    0.4830    0.0000 C.3     1  LIG1        0.1301
      7 C          -2.6420    0.9880    0.0000 C.3     1  LIG1        0.1034
      8 N          -3.5080    0.4580    0.0000 N.4     1  LIG1        0.3751
      9 C          -3.5080   -0.5420    0.0000 C.3     1  LIG1        0.1560
     10 C          -2.6420   -1.0500    0.0000 C.3     1  LIG1        0.1362
     11 C          -4.2540    1.1130    0.0000 C.3     1  LIG1        0.1386
     12 C          -3.9000    2.0460    0.0000 C.3     1  LIG1        0.0687
     13 C          -2.8710    1.9750    0.0000 C.3     1  LIG1        0.0643
     14 O          -0.0580    0.4210    0.0000 O.2     1  LIG1       -0.2715
     15 C           2.5710   -1.0500    0.0000 C.ar    1  LIG1       -0.0071
     16 C           3.4210   -0.5420    0.0000 C.ar    1  LIG1       -0.0072
     17 C           3.4040    0.4580    0.0000 C.ar    1  LIG1       -0.0224
     18 C           2.5210    0.9210    0.0000 C.ar    1  LIG1       -0.0072
     19 C           1.7000    0.4210    0.0000 C.ar    1  LIG1       -0.0071
     20 C           0.8500    0.9210    0.0000 C.3     1  LIG1        0.0324
     21 C           4.2500    0.9830    0.0000 C.3     1  LIG1        0.0310
     22 C           2.5920   -2.0420    0.0000 C.3     1  LIG1        0.0324
@<TRIPOS>BOND
     1     1     2    1
     2     1    15   ar
     3     1    19   ar
     4     2     3   am
     5     3     4    1
     6     3    14    2
     7     4     5    1
     8     5     6    1
     9     5    10    1
    10     6     7    1
    11     7     8    1
    12     7    13    1
    13     8     9    1
    14     8    11    1
    15     9    10    1
    16    11    12    1
    17    12    13    1
    18    15    16   ar
    19    15    22    1
    20    16    17   ar
    21    17    18   ar
    22    17    21    1
    23    18    19   ar
    24    19    20    1
