@<TRIPOS>MOLECULE
27252_ChemDiv_2047-9678
 20 21 0 0 0
SMALL
GASTEIGER
Energy = 0

@<TRIPOS>ATOM
      1 C          -1.2170   -0.0420    0.0000 C.ar    1  LIG1        0.1278
      2 C          -0.3130   -0.4210    0.0000 C.ar    1  LIG1        0.1087
      3 C           0.5330    0.1040    0.0000 C.2     1  LIG1        0.2694
      4 N           1.3960   -0.3960    0.0000 N.am    1  LIG1       -0.1954
      5 C           1.3960   -1.3830    0.0000 C.3     1  LIG1        0.1567
      6 C           2.2540   -1.8710    0.0000 C.2     1  LIG1        0.0723
      7 O           3.1130   -1.3830    0.0000 O.co2   1  LIG1       -0.5474
      8 O           2.2540   -2.9040    0.0000 O.co2   1  LIG1       -0.5474
      9 O           0.5170    1.1080    0.0000 O.2     1  LIG1       -0.2682
     10 C          -0.4330   -1.4420    0.0000 C.ar    1  LIG1        0.1592
     11 O          -1.4170   -1.6380    0.0000 O.2     1  LIG1       -0.3576
     12 N          -1.9000   -0.7250    0.0000 N.ar    1  LIG1       -0.0772
     13 C           0.2880   -2.1210    0.0000 C.3     1  LIG1        0.0755
     14 C          -1.4130    0.9380    0.0000 C.ar    1  LIG1        0.0316
     15 C          -2.3670    1.2630    0.0000 C.ar    1  LIG1        0.0592
     16 CL         -3.1170    0.6170    0.0000 Cl      1  LIG1       -0.0822
     17 C          -2.5580    2.2380    0.0000 C.ar    1  LIG1        0.0114
     18 C          -1.8040    2.9080    0.0000 C.ar    1  LIG1        0.0009
     19 C          -0.8630    2.5880    0.0000 C.ar    1  LIG1        0.0001
     20 C          -0.6580    1.5920    0.0000 C.ar    1  LIG1        0.0024
@<TRIPOS>BOND
     1     1     2   ar
     2     1    12   ar
     3     1    14    1
     4     2     3    1
     5     2    10   ar
     6     3     4   am
     7     3     9    2
     8     4     5    1
     9     5     6    1
    10     6     7   ar
    11     6     8   ar
    12    10    11   ar
    13    10    13    1
    14    11    12   ar
    15    14    15   ar
    16    14    20   ar
    17    15    16    1
    18    15    17   ar
    19    17    18   ar
    20    18    19   ar
    21    19    20   ar
