@<TRIPOS>MOLECULE
27256_ChemDiv_4100-2889
 27 30 0 0 0
SMALL
GASTEIGER
Energy = 0

@<TRIPOS>ATOM
      1 C          -1.4420    1.6380    0.0000 C.ar    1  LIG1        0.1286
      2 C          -0.7040    0.9630    0.0000 C.ar    1  LIG1        0.1087
      3 C          -0.7040   -0.0290    0.0000 C.2     1  LIG1        0.2694
      4 N           0.1460   -0.5380    0.0000 N.am    1  LIG1       -0.1967
      5 C           0.1460   -1.5630    0.0000 C.3     1  LIG1        0.1419
      6 C           1.0380   -2.0790    0.0000 C.ar    1  LIG1        0.0027
      7 C           1.9080   -1.5630    0.0000 C.ar    1  LIG1        0.0376
      8 C           2.7460   -2.0790    0.0000 C.ar    1  LIG1        0.1762
      9 C           2.7460   -3.0750    0.0000 C.ar    1  LIG1        0.1764
     10 O           3.7080   -3.3830    0.0000 O.3     1  LIG1       -0.4346
     11 C           4.2710   -2.5750    0.0000 C.3     1  LIG1        0.4294
     12 O           3.7080   -1.7540    0.0000 O.3     1  LIG1       -0.4346
     13 C           1.9080   -3.5750    0.0000 C.ar    1  LIG1        0.0399
     14 C           1.0380   -3.0750    0.0000 C.ar    1  LIG1        0.0008
     15 O          -1.5750   -0.5380    0.0000 O.2     1  LIG1       -0.2682
     16 C           0.1670    1.4630    0.0000 C.ar    1  LIG1        0.1592
     17 O          -0.0500    2.4500    0.0000 O.2     1  LIG1       -0.3576
     18 N          -1.0330    2.5330    0.0000 N.ar    1  LIG1       -0.0772
     19 C           1.0750    1.0540    0.0000 C.3     1  LIG1        0.0755
     20 C          -2.3960    1.9460    0.0000 C.ar    1  LIG1        0.0422
     21 C          -3.1460    1.2920    0.0000 C.ar    1  LIG1        0.0600
     22 CL         -2.9540    0.2960    0.0000 Cl      1  LIG1       -0.0822
     23 C          -4.0830    1.6170    0.0000 C.ar    1  LIG1        0.0115
     24 C          -4.2750    2.6040    0.0000 C.ar    1  LIG1        0.0017
     25 C          -3.5380    3.2500    0.0000 C.ar    1  LIG1        0.0115
     26 C          -2.6000    2.9170    0.0000 C.ar    1  LIG1        0.0600
     27 CL         -1.8330    3.5790    0.0000 Cl      1  LIG1       -0.0822
@<TRIPOS>BOND
     1     1     2   ar
     2     1    18   ar
     3     1    20    1
     4     2     3    1
     5     2    16   ar
     6     3     4   am
     7     3    15    2
     8     4     5    1
     9     5     6    1
    10     6     7   ar
    11     6    14   ar
    12     7     8   ar
    13     8     9   ar
    14     8    12    1
    15     9    10    1
    16     9    13   ar
    17    10    11    1
    18    11    12    1
    19    13    14   ar
    20    16    17   ar
    21    16    19    1
    22    17    18   ar
    23    20    21   ar
    24    20    26   ar
    25    21    22    1
    26    21    23   ar
    27    23    24   ar
    28    24    25   ar
    29    25    26   ar
    30    26    27    1
