@<TRIPOS>MOLECULE
27254_ChemDiv_2260-6531
 25 28 0 0 0
SMALL
GASTEIGER
Energy = 0

@<TRIPOS>ATOM
      1 C           1.4250    0.5920    0.0000 C.ar    1  LIG1        0.1086
      2 C           2.4500    0.6290    0.0000 C.ar    1  LIG1        0.1270
      3 N           2.6330    1.6290    0.0000 N.ar    1  LIG1       -0.0772
      4 O           1.7710    2.1290    0.0000 O.2     1  LIG1       -0.3576
      5 C           1.0500    1.4630    0.0000 C.ar    1  LIG1        0.1592
      6 C           0.0580    1.7040    0.0000 C.3     1  LIG1        0.0755
      7 C           3.0830   -0.1170    0.0000 C.ar    1  LIG1        0.0211
      8 C           2.8000   -1.0830    0.0000 C.ar    1  LIG1        0.0016
      9 C           3.4420   -1.8210    0.0000 C.ar    1  LIG1        0.0000
     10 C           4.4380   -1.6380    0.0000 C.ar    1  LIG1        0.0000
     11 C           4.7380   -0.6790    0.0000 C.ar    1  LIG1        0.0000
     12 C           4.0790    0.0500    0.0000 C.ar    1  LIG1        0.0016
     13 C           0.8830   -0.3080    0.0000 C.2     1  LIG1        0.2694
     14 N          -0.1380   -0.3080    0.0000 N.am    1  LIG1       -0.1967
     15 C          -0.6330   -1.1920    0.0000 C.3     1  LIG1        0.1419
     16 C          -1.6580   -1.1920    0.0000 C.ar    1  LIG1        0.0027
     17 C          -2.2130   -0.3880    0.0000 C.ar    1  LIG1        0.0376
     18 C          -3.1330   -0.4000    0.0000 C.ar    1  LIG1        0.1762
     19 C          -3.6420   -1.3040    0.0000 C.ar    1  LIG1        0.1764
     20 O          -4.6330   -1.0790    0.0000 O.3     1  LIG1       -0.4346
     21 C          -4.7420   -0.1040    0.0000 C.3     1  LIG1        0.4294
     22 O          -3.8710    0.3040    0.0000 O.3     1  LIG1       -0.4346
     23 C          -3.1500   -2.1250    0.0000 C.ar    1  LIG1        0.0399
     24 C          -2.1500   -2.1170    0.0000 C.ar    1  LIG1        0.0008
     25 O           1.3670   -1.2000    0.0000 O.2     1  LIG1       -0.2682
@<TRIPOS>BOND
     1     1     2   ar
     2     1     5   ar
     3     1    13    1
     4     2     3   ar
     5     2     7    1
     6     3     4   ar
     7     4     5   ar
     8     5     6    1
     9     7     8   ar
    10     7    12   ar
    11     8     9   ar
    12     9    10   ar
    13    10    11   ar
    14    11    12   ar
    15    13    14   am
    16    13    25    2
    17    14    15    1
    18    15    16    1
    19    16    17   ar
    20    16    24   ar
    21    17    18   ar
    22    18    19   ar
    23    18    22    1
    24    19    20    1
    25    19    23   ar
    26    20    21    1
    27    21    22    1
    28    23    24   ar
