@<TRIPOS>MOLECULE
27250_ChemDiv_2043-8158
 24 26 0 0 0
SMALL
GASTEIGER
Energy = 0

@<TRIPOS>ATOM
      1 C          -1.9130   -1.4170    0.0000 C.ar    1  LIG1        0.1086
      2 C          -2.7630   -0.9330    0.0000 C.ar    1  LIG1        0.1270
      3 N          -3.5080   -1.6130    0.0000 N.ar    1  LIG1       -0.0772
      4 O          -3.0670   -2.5290    0.0000 O.2     1  LIG1       -0.3576
      5 C          -2.1130   -2.4080    0.0000 C.ar    1  LIG1        0.1592
      6 C          -1.4500   -3.1540    0.0000 C.3     1  LIG1        0.0755
      7 C          -2.7630    0.0790    0.0000 C.ar    1  LIG1        0.0211
      8 C          -1.9130    0.5630    0.0000 C.ar    1  LIG1        0.0016
      9 C          -1.9130    1.5830    0.0000 C.ar    1  LIG1        0.0000
     10 C          -2.7630    2.0670    0.0000 C.ar    1  LIG1        0.0000
     11 C          -3.6540    1.5630    0.0000 C.ar    1  LIG1        0.0000
     12 C          -3.6290    0.5630    0.0000 C.ar    1  LIG1        0.0016
     13 C          -0.9670   -1.0330    0.0000 C.2     1  LIG1        0.2691
     14 O          -0.1670   -1.6130    0.0000 O.2     1  LIG1       -0.2682
     15 N          -0.8460   -0.0420    0.0000 N.am    1  LIG1       -0.2012
     16 C           0.0750    0.3710    0.0000 C.3     1  LIG1        0.1201
     17 C           0.1960    1.3420    0.0000 C.3     1  LIG1        0.0498
     18 C           1.1080    1.7460    0.0000 C.ar    1  LIG1       -0.0196
     19 C           1.9080    1.1420    0.0000 C.ar    1  LIG1        0.0072
     20 C           2.8330    1.5630    0.0000 C.ar    1  LIG1        0.0574
     21 CL          3.6500    0.9580    0.0000 Cl      1  LIG1       -0.0823
     22 C           2.9540    2.5290    0.0000 C.ar    1  LIG1        0.0114
     23 C           2.1500    3.1580    0.0000 C.ar    1  LIG1        0.0005
     24 C           1.2290    2.7420    0.0000 C.ar    1  LIG1       -0.0042
@<TRIPOS>BOND
     1     1     2   ar
     2     1     5   ar
     3     1    13    1
     4     2     3   ar
     5     2     7    1
     6     3     4   ar
     7     4     5   ar
     8     5     6    1
     9     7     8   ar
    10     7    12   ar
    11     8     9   ar
    12     9    10   ar
    13    10    11   ar
    14    11    12   ar
    15    13    14    2
    16    13    15   am
    17    15    16    1
    18    16    17    1
    19    17    18    1
    20    18    19   ar
    21    18    24   ar
    22    19    20   ar
    23    20    21    1
    24    20    22   ar
    25    22    23   ar
    26    23    24   ar
