@<TRIPOS>MOLECULE
27251_ChemDiv_R052-1646
 19 20 0 0 0
SMALL
GASTEIGER
Energy = 0

@<TRIPOS>ATOM
      1 C          -1.7380   -0.2500    0.0000 C.ar    1  LIG1        0.2059
      2 C          -0.8750   -0.7500    0.0000 C.ar    1  LIG1        0.1769
      3 C           0.0000   -0.2500    0.0000 C.ar    1  LIG1        0.0715
      4 C           0.8710   -0.7500    0.0000 C.3     1  LIG1        0.1695
      5 N           1.7330   -0.2500    0.0000 N.4     1  LIG1        0.3831
      6 C           2.5960   -0.7580    0.0000 C.3     1  LIG1        0.1582
      7 C           3.4630   -0.2580    0.0000 C.3     1  LIG1        0.1514
      8 N           3.4630    0.7420    0.0000 N.3     1  LIG1       -0.2055
      9 C           2.5960    1.2420    0.0000 C.3     1  LIG1        0.1514
     10 C           1.7290    0.7420    0.0000 C.3     1  LIG1        0.1582
     11 C           0.0000    0.7540    0.0000 C.ar    1  LIG1        0.0078
     12 C          -0.8750    1.2540    0.0000 C.ar    1  LIG1        0.0401
     13 C          -1.7380    0.7540    0.0000 C.ar    1  LIG1        0.1754
     14 O          -2.6000    1.2540    0.0000 O.3     1  LIG1       -0.4683
     15 C          -2.6000    2.2540    0.0000 C.3     1  LIG1        0.2526
     16 O          -0.8750   -1.7500    0.0000 O.3     1  LIG1       -0.4684
     17 C          -1.7380   -2.2500    0.0000 C.3     1  LIG1        0.2526
     18 O          -2.6000   -0.7500    0.0000 O.3     1  LIG1       -0.4654
     19 C          -3.4670   -0.2500    0.0000 C.3     1  LIG1        0.2528
@<TRIPOS>BOND
     1     1     2   ar
     2     1    13   ar
     3     1    18    1
     4     2     3   ar
     5     2    16    1
     6     3     4    1
     7     3    11   ar
     8     4     5    1
     9     5     6    1
    10     5    10    1
    11     6     7    1
    12     7     8    1
    13     8     9    1
    14     9    10    1
    15    11    12   ar
    16    12    13   ar
    17    13    14    1
    18    14    15    1
    19    16    17    1
    20    18    19    1
