@<TRIPOS>MOLECULE
27269_ChemDiv_1689-0207
 34 37 0 0 0
SMALL
GASTEIGER
Energy = 0

@<TRIPOS>ATOM
      1 N          -2.9580    2.6960    0.0000 N.ar    1  LIG1       -0.1417
      2 C          -2.9330    1.6830    0.0000 C.ar    1  LIG1        0.2567
      3 C          -1.9750    1.3960    0.0000 C.ar    1  LIG1        0.1489
      4 N          -1.3920    2.2000    0.0000 N.ar    1  LIG1       -0.2624
      5 C          -2.0000    3.0170    0.0000 C.ar    1  LIG1        0.3806
      6 C          -0.3960    2.2290    0.0000 C.3     1  LIG1        0.1121
      7 C           0.1080    3.1130    0.0000 C.3     1  LIG1        0.0247
      8 C           1.1040    3.1290    0.0000 C.3     1  LIG1        0.0021
      9 C           1.6210    2.2630    0.0000 C.3     1  LIG1        0.0021
     10 C           2.6210    2.2830    0.0000 C.3     1  LIG1        0.0247
     11 C           3.0210    1.4830    0.0000 C.3     1  LIG1        0.1121
     12 N           3.9830    1.4630    0.0000 N.ar    1  LIG1       -0.2624
     13 C           4.9710    1.6830    0.0000 C.ar    1  LIG1        0.3806
     14 N           5.5040    0.8460    0.0000 N.ar    1  LIG1       -0.1417
     15 C           4.8670    0.0710    0.0000 C.ar    1  LIG1        0.2567
     16 C           3.9330    0.4630    0.0000 C.ar    1  LIG1        0.1489
     17 C           5.0880   -0.8880    0.0000 C.3     1  LIG1        0.2613
     18 C           4.3710   -1.5960    0.0000 C.ar    1  LIG1        0.0181
     19 C           3.4000   -1.3130    0.0000 C.ar    1  LIG1       -0.0013
     20 C           2.6710   -2.0040    0.0000 C.ar    1  LIG1       -0.0002
     21 C           2.9170   -2.9790    0.0000 C.ar    1  LIG1       -0.0000
     22 C           3.8710   -3.2630    0.0000 C.ar    1  LIG1       -0.0002
     23 C           4.6000   -2.5710    0.0000 C.ar    1  LIG1       -0.0013
     24 O           6.0670   -1.1790    0.0000 O.3     1  LIG1       -0.2067
     25 C           6.5040    0.7630    0.0000 C.3     1  LIG1        0.4094
     26 C          -3.7500    1.0830    0.0000 C.3     1  LIG1        0.2613
     27 C          -4.6670    1.4670    0.0000 C.ar    1  LIG1        0.0181
     28 C          -5.4670    0.8790    0.0000 C.ar    1  LIG1       -0.0013
     29 C          -6.3880    1.2630    0.0000 C.ar    1  LIG1       -0.0002
     30 C          -6.5040    2.2630    0.0000 C.ar    1  LIG1       -0.0000
     31 C          -5.7250    2.8670    0.0000 C.ar    1  LIG1       -0.0002
     32 C          -4.8000    2.4670    0.0000 C.ar    1  LIG1       -0.0013
     33 O          -3.6250    0.0830    0.0000 O.3     1  LIG1       -0.2067
     34 C          -3.7750    3.2670    0.0000 C.3     1  LIG1        0.4094
@<TRIPOS>BOND
     1     1     2   ar
     2     1     5   ar
     3     1    34    1
     4     2     3   ar
     5     2    26    1
     6     3     4   ar
     7     4     5   ar
     8     4     6    1
     9     6     7    1
    10     7     8    1
    11     8     9    1
    12     9    10    1
    13    10    11    1
    14    11    12    1
    15    12    13   ar
    16    12    16   ar
    17    13    14   ar
    18    14    15   ar
    19    14    25    1
    20    15    16   ar
    21    15    17    1
    22    17    18    1
    23    17    24    1
    24    18    19   ar
    25    18    23   ar
    26    19    20   ar
    27    20    21   ar
    28    21    22   ar
    29    22    23   ar
    30    26    27    1
    31    26    33    1
    32    27    28   ar
    33    27    32   ar
    34    28    29   ar
    35    29    30   ar
    36    30    31   ar
    37    31    32   ar
