@<TRIPOS>MOLECULE
27264_ChemDiv_4606-3641
 23 25 0 0 0
SMALL
GASTEIGER
Energy = 0

@<TRIPOS>ATOM
      1 C          -1.1790   -1.0250    0.0000 C.ar    1  LIG1        0.1086
      2 C          -1.9880   -0.5920    0.0000 C.ar    1  LIG1        0.1270
      3 N          -2.7040   -1.2880    0.0000 N.ar    1  LIG1       -0.0772
      4 O          -2.2040   -2.1880    0.0000 O.2     1  LIG1       -0.3576
      5 C          -1.2880   -2.0040    0.0000 C.ar    1  LIG1        0.1592
      6 C          -0.8630   -2.9540    0.0000 C.3     1  LIG1        0.0755
      7 C          -2.5290    0.1750    0.0000 C.ar    1  LIG1        0.0211
      8 C          -3.5460    0.1250    0.0000 C.ar    1  LIG1        0.0016
      9 C          -4.1420    0.9380    0.0000 C.ar    1  LIG1        0.0000
     10 C          -3.7330    1.8460    0.0000 C.ar    1  LIG1        0.0000
     11 C          -2.7040    1.9040    0.0000 C.ar    1  LIG1        0.0000
     12 C          -2.1460    1.0380    0.0000 C.ar    1  LIG1        0.0016
     13 C          -0.2710   -0.5880    0.0000 C.2     1  LIG1        0.2691
     14 O          -0.7130    0.4330    0.0000 O.2     1  LIG1       -0.2682
     15 N           0.7290   -0.5880    0.0000 N.am    1  LIG1       -0.2012
     16 C           1.5960   -0.0540    0.0000 C.3     1  LIG1        0.1201
     17 C           1.5630    0.9290    0.0000 C.3     1  LIG1        0.0498
     18 C           2.3790    1.4330    0.0000 C.ar    1  LIG1       -0.0204
     19 C           3.2420    0.9710    0.0000 C.ar    1  LIG1       -0.0042
     20 C           4.1380    1.4330    0.0000 C.ar    1  LIG1       -0.0003
     21 C           4.1210    2.4330    0.0000 C.ar    1  LIG1       -0.0000
     22 C           3.2250    2.9580    0.0000 C.ar    1  LIG1       -0.0003
     23 C           2.3670    2.4580    0.0000 C.ar    1  LIG1       -0.0042
@<TRIPOS>BOND
     1     1     2   ar
     2     1     5   ar
     3     1    13    1
     4     2     3   ar
     5     2     7    1
     6     3     4   ar
     7     4     5   ar
     8     5     6    1
     9     7     8   ar
    10     7    12   ar
    11     8     9   ar
    12     9    10   ar
    13    10    11   ar
    14    11    12   ar
    15    13    14    2
    16    13    15   am
    17    15    16    1
    18    16    17    1
    19    17    18    1
    20    18    19   ar
    21    18    23   ar
    22    19    20   ar
    23    20    21   ar
    24    21    22   ar
    25    22    23   ar
