@<TRIPOS>MOLECULE
27262_ChemDiv_4606-2659
 23 24 0 0 0
SMALL
GASTEIGER
Energy = 0

@<TRIPOS>ATOM
      1 C          -2.3170   -0.4960    0.0000 C.ar    1  LIG1        0.1086
      2 C          -1.4080   -0.0630    0.0000 C.2     1  LIG1        0.2690
      3 N          -0.4080   -0.0630    0.0000 N.am    1  LIG1       -0.2033
      4 C           0.2880    0.6380    0.0000 C.3     1  LIG1        0.0957
      5 C           1.2580    0.3790    0.0000 C.3     1  LIG1        0.0217
      6 C           1.9630    1.0880    0.0000 C.3     1  LIG1        0.0018
      7 C           2.9460    0.8330    0.0000 C.3     1  LIG1        0.0001
      8 C           3.6290    1.5460    0.0000 C.3     1  LIG1        0.0000
      9 C           4.5920    1.2790    0.0000 C.3     1  LIG1        0.0000
     10 C           5.2750    2.0290    0.0000 C.3     1  LIG1        0.0000
     11 C           0.0290    1.6040    0.0000 C.3     1  LIG1        0.0234
     12 O          -1.8540    0.9580    0.0000 O.2     1  LIG1       -0.2682
     13 C          -3.1250   -0.0670    0.0000 C.ar    1  LIG1        0.1270
     14 N          -3.8420   -0.7630    0.0000 N.ar    1  LIG1       -0.0772
     15 O          -3.3460   -1.6630    0.0000 O.2     1  LIG1       -0.3576
     16 C          -2.4250   -1.4790    0.0000 C.ar    1  LIG1        0.1592
     17 C          -2.0000   -2.4290    0.0000 C.3     1  LIG1        0.0755
     18 C          -3.6670    0.7040    0.0000 C.ar    1  LIG1        0.0211
     19 C          -3.2880    1.5630    0.0000 C.ar    1  LIG1        0.0016
     20 C          -3.8420    2.4330    0.0000 C.ar    1  LIG1        0.0000
     21 C          -4.8710    2.3750    0.0000 C.ar    1  LIG1        0.0000
     22 C          -5.2790    1.4630    0.0000 C.ar    1  LIG1        0.0000
     23 C          -4.6830    0.6500    0.0000 C.ar    1  LIG1        0.0016
@<TRIPOS>BOND
     1     1     2    1
     2     1    13   ar
     3     1    16   ar
     4     2     3   am
     5     2    12    2
     6     3     4    1
     7     4     5    1
     8     4    11    1
     9     5     6    1
    10     6     7    1
    11     7     8    1
    12     8     9    1
    13     9    10    1
    14    13    14   ar
    15    13    18    1
    16    14    15   ar
    17    15    16   ar
    18    16    17    1
    19    18    19   ar
    20    18    23   ar
    21    19    20   ar
    22    20    21   ar
    23    21    22   ar
    24    22    23   ar
