@<TRIPOS>MOLECULE
27260_ChemDiv_4606-2645
 23 24 0 0 0
SMALL
GASTEIGER
Energy = 0

@<TRIPOS>ATOM
      1 C          -2.3830    0.1210    0.0000 C.ar    1  LIG1        0.1086
      2 C          -3.1920    0.5500    0.0000 C.ar    1  LIG1        0.1270
      3 N          -3.9080   -0.1420    0.0000 N.ar    1  LIG1       -0.0772
      4 O          -3.4130   -1.0460    0.0000 O.2     1  LIG1       -0.3576
      5 C          -2.4920   -0.8630    0.0000 C.ar    1  LIG1        0.1592
      6 C          -2.0670   -1.8130    0.0000 C.3     1  LIG1        0.0755
      7 C          -3.7330    1.3210    0.0000 C.ar    1  LIG1        0.0211
      8 C          -3.3540    2.1830    0.0000 C.ar    1  LIG1        0.0016
      9 C          -3.9080    3.0540    0.0000 C.ar    1  LIG1        0.0000
     10 C          -4.9420    2.9960    0.0000 C.ar    1  LIG1        0.0000
     11 C          -5.3500    2.0830    0.0000 C.ar    1  LIG1        0.0000
     12 C          -4.7500    1.2670    0.0000 C.ar    1  LIG1        0.0016
     13 C          -1.4750    0.5540    0.0000 C.2     1  LIG1        0.2691
     14 O          -1.9170    1.5790    0.0000 O.2     1  LIG1       -0.2682
     15 N          -0.4750    0.5540    0.0000 N.am    1  LIG1       -0.2015
     16 C          -0.0170   -0.3380    0.0000 C.3     1  LIG1        0.1181
     17 C           0.9880   -0.3460    0.0000 C.3     1  LIG1        0.0555
     18 C           1.4290   -1.2250    0.0000 C.3     1  LIG1        0.1440
     19 O           2.4290   -1.2580    0.0000 O.3     1  LIG1       -0.3537
     20 C           2.8830   -2.1330    0.0000 C.3     1  LIG1        0.1422
     21 C           3.9080   -2.1540    0.0000 C.3     1  LIG1        0.0321
     22 C           4.3330   -3.0330    0.0000 C.3     1  LIG1        0.0026
     23 C           5.3460   -3.0500    0.0000 C.3     1  LIG1        0.0001
@<TRIPOS>BOND
     1     1     2   ar
     2     1     5   ar
     3     1    13    1
     4     2     3   ar
     5     2     7    1
     6     3     4   ar
     7     4     5   ar
     8     5     6    1
     9     7     8   ar
    10     7    12   ar
    11     8     9   ar
    12     9    10   ar
    13    10    11   ar
    14    11    12   ar
    15    13    14    2
    16    13    15   am
    17    15    16    1
    18    16    17    1
    19    17    18    1
    20    18    19    1
    21    19    20    1
    22    20    21    1
    23    21    22    1
    24    22    23    1
