@<TRIPOS>MOLECULE
27265_ChemDiv_8016-5639
 25 28 0 0 0
SMALL
GASTEIGER
Energy = 0

@<TRIPOS>ATOM
      1 S           0.9290    1.1290    0.0000 S.O2    1  LIG1       -0.0578
      2 N           1.9330    1.1460    0.0000 N.pl3   1  LIG1       -0.5357
      3 C           2.4460    0.2960    0.0000 C.ar    1  LIG1       -0.1091
      4 C           3.4330    0.3170    0.0000 C.ar    1  LIG1        0.0164
      5 C           3.9540   -0.5170    0.0000 C.ar    1  LIG1        0.1746
      6 C           3.4830   -1.4040    0.0000 C.ar    1  LIG1        0.1763
      7 O           4.1710   -2.1250    0.0000 O.3     1  LIG1       -0.4346
      8 C           5.0710   -1.6920    0.0000 C.3     1  LIG1        0.4294
      9 O           4.9420   -0.7000    0.0000 O.3     1  LIG1       -0.4347
     10 C           2.4710   -1.4250    0.0000 C.ar    1  LIG1        0.0383
     11 C           1.9580   -0.5750    0.0000 C.ar    1  LIG1       -0.0205
     12 C          -0.0670    1.1040    0.0000 C.ar    1  LIG1        0.0893
     13 C          -0.5460    0.2290    0.0000 C.ar    1  LIG1        0.0166
     14 C          -1.5540    0.2080    0.0000 C.ar    1  LIG1       -0.0030
     15 C          -2.0710    1.0710    0.0000 C.ar    1  LIG1       -0.0224
     16 C          -1.5830    1.9500    0.0000 C.ar    1  LIG1       -0.0030
     17 C          -0.5790    1.9670    0.0000 C.ar    1  LIG1        0.0166
     18 C          -3.0710    1.0540    0.0000 C.3     1  LIG1        0.0223
     19 C          -3.5830    1.9170    0.0000 C.3     1  LIG1        0.0044
     20 C          -4.5790    1.8960    0.0000 C.3     1  LIG1        0.0003
     21 C          -5.0750    1.0290    0.0000 C.3     1  LIG1        0.0000
     22 C          -4.5540    0.1670    0.0000 C.3     1  LIG1        0.0003
     23 C          -3.5540    0.1830    0.0000 C.3     1  LIG1        0.0044
     24 O           0.9460    0.1330    0.0000 O.2     1  LIG1       -0.1842
     25 O           0.9210    2.1290    0.0000 O.2     1  LIG1       -0.1842
@<TRIPOS>BOND
     1     1     2    1
     2     1    12    1
     3     1    24    2
     4     1    25    2
     5     2     3    1
     6     3     4   ar
     7     3    11   ar
     8     4     5   ar
     9     5     6   ar
    10     5     9    1
    11     6     7    1
    12     6    10   ar
    13     7     8    1
    14     8     9    1
    15    10    11   ar
    16    12    13   ar
    17    12    17   ar
    18    13    14   ar
    19    14    15   ar
    20    15    16   ar
    21    15    18    1
    22    16    17   ar
    23    18    19    1
    24    18    23    1
    25    19    20    1
    26    20    21    1
    27    21    22    1
    28    22    23    1
