@<TRIPOS>MOLECULE
27267_ChemDiv_8016-5640
 21 23 0 0 0
SMALL
GASTEIGER
Energy = 0

@<TRIPOS>ATOM
      1 S           0.1630    1.1290    0.0000 S.O2    1  LIG1       -0.0578
      2 N           1.1540    1.1460    0.0000 N.pl3   1  LIG1       -0.5357
      3 C           1.6790    0.2960    0.0000 C.ar    1  LIG1       -0.1091
      4 C           2.6670    0.3170    0.0000 C.ar    1  LIG1        0.0164
      5 C           3.1880   -0.5170    0.0000 C.ar    1  LIG1        0.1746
      6 C           2.7130   -1.4000    0.0000 C.ar    1  LIG1        0.1763
      7 O           3.4040   -2.1250    0.0000 O.3     1  LIG1       -0.4346
      8 C           4.3130   -1.6920    0.0000 C.3     1  LIG1        0.4294
      9 O           4.1750   -0.7040    0.0000 O.3     1  LIG1       -0.4347
     10 C           1.7040   -1.4290    0.0000 C.ar    1  LIG1        0.0383
     11 C           1.1920   -0.5670    0.0000 C.ar    1  LIG1       -0.0205
     12 C          -0.8290    1.1080    0.0000 C.ar    1  LIG1        0.0893
     13 C          -1.3080    0.2330    0.0000 C.ar    1  LIG1        0.0174
     14 C          -2.3170    0.2130    0.0000 C.ar    1  LIG1        0.0074
     15 C          -2.8420    1.0790    0.0000 C.ar    1  LIG1        0.0253
     16 S          -3.8290    1.0540    0.0000 S.3     1  LIG1       -0.1127
     17 C          -4.3170    0.1920    0.0000 C.3     1  LIG1        0.0742
     18 C          -2.3460    1.9540    0.0000 C.ar    1  LIG1        0.0074
     19 C          -1.3420    1.9710    0.0000 C.ar    1  LIG1        0.0174
     20 O           0.1750    0.1250    0.0000 O.2     1  LIG1       -0.1842
     21 O           0.1540    2.1290    0.0000 O.2     1  LIG1       -0.1842
@<TRIPOS>BOND
     1     1     2    1
     2     1    12    1
     3     1    20    2
     4     1    21    2
     5     2     3    1
     6     3     4   ar
     7     3    11   ar
     8     4     5   ar
     9     5     6   ar
    10     5     9    1
    11     6     7    1
    12     6    10   ar
    13     7     8    1
    14     8     9    1
    15    10    11   ar
    16    12    13   ar
    17    12    19   ar
    18    13    14   ar
    19    14    15   ar
    20    15    16    1
    21    15    18   ar
    22    16    17    1
    23    18    19   ar
