@<TRIPOS>MOLECULE
27278_ChemDiv_8012-7830
 21 22 0 0 0
SMALL
GASTEIGER
Energy = 0

@<TRIPOS>ATOM
      1 N          -0.9830   -0.4460    0.0000 N.ar    1  LIG1       -0.1596
      2 C          -0.5080    0.4460    0.0000 C.ar    1  LIG1        0.2441
      3 N          -0.9960    1.3040    0.0000 N.ar    1  LIG1       -0.1596
      4 C          -2.0130    1.2960    0.0000 C.ar    1  LIG1        0.3261
      5 N          -2.4830    0.4500    0.0000 N.ar    1  LIG1       -0.1411
      6 C          -1.9920   -0.4380    0.0000 C.ar    1  LIG1        0.3261
      7 O          -2.5040   -1.2920    0.0000 O.3     1  LIG1       -0.4466
      8 C          -3.4960   -1.2920    0.0000 C.3     1  LIG1        0.2088
      9 C          -4.0130   -2.1630    0.0000 C.3     1  LIG1        0.0513
     10 O          -2.5040    2.1670    0.0000 O.3     1  LIG1       -0.4466
     11 C          -3.5130    2.1670    0.0000 C.3     1  LIG1        0.2088
     12 C          -3.9920    3.0210    0.0000 C.3     1  LIG1        0.0513
     13 N           0.4960    0.4460    0.0000 N.pl3   1  LIG1       -0.2033
     14 C           1.0000   -0.4130    0.0000 C.3     1  LIG1        0.1197
     15 C           2.0000   -0.4170    0.0000 C.3     1  LIG1        0.0451
     16 C           2.5000   -1.2830    0.0000 C.2     1  LIG1       -0.0467
     17 C           3.5000   -1.2830    0.0000 C.2     1  LIG1       -0.0346
     18 C           4.0080   -2.1380    0.0000 C.3     1  LIG1        0.0254
     19 C           3.5080   -3.0080    0.0000 C.3     1  LIG1        0.0050
     20 C           2.5000   -3.0170    0.0000 C.3     1  LIG1        0.0047
     21 C           2.0000   -2.1380    0.0000 C.3     1  LIG1        0.0218
@<TRIPOS>BOND
     1     1     2   ar
     2     1     6   ar
     3     2     3   ar
     4     2    13    1
     5     3     4   ar
     6     4     5   ar
     7     4    10    1
     8     5     6   ar
     9     6     7    1
    10     7     8    1
    11     8     9    1
    12    10    11    1
    13    11    12    1
    14    13    14    1
    15    14    15    1
    16    15    16    1
    17    16    17    2
    18    16    21    1
    19    17    18    1
    20    18    19    1
    21    19    20    1
    22    20    21    1
