@<TRIPOS>MOLECULE
27277_ChemDiv_1718-0097
 17 18 0 0 0
SMALL
GASTEIGER
Energy = 0

@<TRIPOS>ATOM
      1 S          -0.4040    0.7290    0.0000 S.O2    1  LIG1        0.0875
      2 N          -0.4040    1.7250    0.0000 N.ar    1  LIG1       -0.1929
      3 C           0.4580    2.2250    0.0000 C.ar    1  LIG1        0.1412
      4 N           0.2170    3.2580    0.0000 N.ar    1  LIG1       -0.2277
      5 C          -0.8080    3.2580    0.0000 C.ar    1  LIG1        0.1207
      6 C          -1.1330    2.3420    0.0000 C.ar    1  LIG1        0.1218
      7 C           1.3960    1.8210    0.0000 C.3     1  LIG1        0.0735
      8 C          -0.4040   -0.2710    0.0000 C.ar    1  LIG1        0.1339
      9 C           0.4580   -0.7710    0.0000 C.ar    1  LIG1        0.0541
     10 C           0.4580   -1.7670    0.0000 C.ar    1  LIG1        0.0147
     11 C          -0.4040   -2.2630    0.0000 C.ar    1  LIG1        0.0351
     12 C          -1.2710   -1.7670    0.0000 C.ar    1  LIG1        0.0081
     13 C          -1.2710   -0.7710    0.0000 C.ar    1  LIG1        0.0214
     14 BR         -0.4040   -3.2540    0.0000 Br      1  LIG1       -0.0490
     15 BR          1.3210   -0.2710    0.0000 Br      1  LIG1       -0.0476
     16 O           0.5960    0.7290    0.0000 O.2     1  LIG1       -0.1475
     17 O          -1.4000    0.7290    0.0000 O.2     1  LIG1       -0.1475
@<TRIPOS>BOND
     1     1     2    1
     2     1     8    1
     3     1    16    2
     4     1    17    2
     5     2     3   ar
     6     2     6   ar
     7     3     4   ar
     8     3     7    1
     9     4     5   ar
    10     5     6   ar
    11     8     9   ar
    12     8    13   ar
    13     9    10   ar
    14     9    15    1
    15    10    11   ar
    16    11    12   ar
    17    11    14    1
    18    12    13   ar
