@<TRIPOS>MOLECULE
27279_ChemDiv_8017-2646
 21 22 0 0 0
SMALL
GASTEIGER
Energy = 0

@<TRIPOS>ATOM
      1 S          -0.3330   -0.4330    0.0000 S.O2    1  LIG1        0.0933
      2 N          -1.3330   -0.4330    0.0000 N.ar    1  LIG1       -0.1444
      3 C          -1.9210    0.3830    0.0000 C.ar    1  LIG1        0.3602
      4 N          -2.8710    0.0710    0.0000 N.ar    1  LIG1        0.0889
      5 C          -2.8710   -0.9330    0.0000 C.ar    1  LIG1        0.2950
      6 C          -1.9210   -1.2460    0.0000 C.ar    1  LIG1        0.1767
      7 C          -3.6830   -1.5210    0.0000 C.3     1  LIG1        0.1170
      8 C          -1.6130    1.3250    0.0000 C.3     1  LIG1        0.1258
      9 C          -2.2830    2.0710    0.0000 C.3     1  LIG1        0.0138
     10 C           0.6790   -0.4330    0.0000 C.ar    1  LIG1        0.1620
     11 C           1.1790   -1.2960    0.0000 C.ar    1  LIG1        0.0299
     12 C           2.1790   -1.2960    0.0000 C.ar    1  LIG1        0.0322
     13 C           2.6790   -0.4330    0.0000 C.ar    1  LIG1       -0.0125
     14 C           2.1790    0.4380    0.0000 C.ar    1  LIG1        0.0345
     15 C           1.1790    0.4380    0.0000 C.ar    1  LIG1        0.1574
     16 O           0.6790    1.3000    0.0000 O.3     1  LIG1       -0.4701
     17 C           1.1790    2.1630    0.0000 C.3     1  LIG1        0.2525
     18 C           3.6790   -0.4330    0.0000 C.3     1  LIG1        0.0316
     19 BR          2.6790   -2.1580    0.0000 Br      1  LIG1       -0.0493
     20 O          -0.3330   -1.4330    0.0000 O.2     1  LIG1       -0.1473
     21 O          -0.3330    0.5710    0.0000 O.2     1  LIG1       -0.1473
@<TRIPOS>BOND
     1     1     2    1
     2     1    10    1
     3     1    20    2
     4     1    21    2
     5     2     3   ar
     6     2     6   ar
     7     3     4   ar
     8     3     8    1
     9     4     5   ar
    10     5     6   ar
    11     5     7    1
    12     8     9    1
    13    10    11   ar
    14    10    15   ar
    15    11    12   ar
    16    12    13   ar
    17    12    19    1
    18    13    14   ar
    19    13    18    1
    20    14    15   ar
    21    15    16    1
    22    16    17    1
