@<TRIPOS>MOLECULE
27275_ChemDiv_1712-1666
 24 26 0 0 0
SMALL
GASTEIGER
Energy = 0

@<TRIPOS>ATOM
      1 C          -0.4380   -0.2580    0.0000 C.ar    1  LIG1        0.1518
      2 C          -1.3080    0.2380    0.0000 C.ar    1  LIG1        0.2062
      3 C          -2.1500   -0.2580    0.0000 C.ar    1  LIG1        0.0570
      4 C          -2.1500   -1.2630    0.0000 C.ar    1  LIG1        0.0876
      5 N          -1.3080   -1.7630    0.0000 N.ar    1  LIG1       -0.2076
      6 C          -0.4380   -1.2630    0.0000 C.ar    1  LIG1        0.2868
      7 O           0.4250   -1.7500    0.0000 O.2     1  LIG1       -0.2649
      8 C          -3.0290   -1.7630    0.0000 C.ar    1  LIG1        0.0193
      9 C          -3.9040   -1.2630    0.0000 C.ar    1  LIG1        0.0015
     10 C          -3.9040   -0.2580    0.0000 C.ar    1  LIG1        0.0002
     11 C          -3.0290    0.2380    0.0000 C.ar    1  LIG1        0.0047
     12 O          -1.3080    1.2380    0.0000 O.3     1  LIG1       -0.2862
     13 C           0.4250    0.2420    0.0000 C.2     1  LIG1        0.2768
     14 N           1.2830   -0.2460    0.0000 N.am    1  LIG1       -0.1751
     15 C           2.1460    0.2540    0.0000 C.ar    1  LIG1        0.0781
     16 C           3.0290   -0.2460    0.0000 C.ar    1  LIG1        0.0720
     17 C           3.0290   -1.2420    0.0000 C.2     1  LIG1        0.2854
     18 O           3.8880   -1.7460    0.0000 O.2     1  LIG1       -0.2666
     19 N           2.1670   -1.7330    0.0000 N.am    1  LIG1       -0.0837
     20 C           3.9000    0.2540    0.0000 C.ar    1  LIG1        0.0059
     21 C           3.8880    1.2580    0.0000 C.ar    1  LIG1        0.0002
     22 C           3.0130    1.7670    0.0000 C.ar    1  LIG1        0.0013
     23 C           2.1460    1.2580    0.0000 C.ar    1  LIG1        0.0168
     24 O           0.4250    1.2380    0.0000 O.2     1  LIG1       -0.2677
@<TRIPOS>BOND
     1     1     2   ar
     2     1     6   ar
     3     1    13    1
     4     2     3   ar
     5     2    12    1
     6     3     4   ar
     7     3    11   ar
     8     4     5   ar
     9     4     8   ar
    10     5     6   ar
    11     6     7    2
    12     8     9   ar
    13     9    10   ar
    14    10    11   ar
    15    13    14   am
    16    13    24    2
    17    14    15    1
    18    15    16   ar
    19    15    23   ar
    20    16    17    1
    21    16    20   ar
    22    17    18    2
    23    17    19   am
    24    20    21   ar
    25    21    22   ar
    26    22    23   ar
