@<TRIPOS>MOLECULE
27270_ChemDiv_8012-4360
 30 33 0 0 0
SMALL
GASTEIGER
Energy = 0

@<TRIPOS>ATOM
      1 C           0.4080    0.2500    0.0000 C.ar    1  LIG1        0.2320
      2 N          -0.4630   -0.2630    0.0000 N.ar    1  LIG1       -0.1802
      3 C          -1.3290    0.2500    0.0000 C.ar    1  LIG1        0.2244
      4 N          -1.3290    1.2380    0.0000 N.ar    1  LIG1       -0.1885
      5 C          -0.4630    1.7460    0.0000 C.ar    1  LIG1        0.1953
      6 N           0.4080    1.2380    0.0000 N.ar    1  LIG1       -0.1879
      7 S          -0.4630    2.7540    0.0000 S.3     1  LIG1       -0.0695
      8 C          -1.3290    3.2630    0.0000 C.3     1  LIG1        0.1066
      9 C          -2.1880    2.7540    0.0000 C.2     1  LIG1        0.0617
     10 O          -2.1880    1.7460    0.0000 O.co2   1  LIG1       -0.5483
     11 O          -2.9960    3.2830    0.0000 O.co2   1  LIG1       -0.5483
     12 N          -2.2000   -0.2630    0.0000 N.pl3   1  LIG1       -0.2729
     13 C          -2.2000   -1.2500    0.0000 C.3     1  LIG1        0.1257
     14 C          -3.0710   -1.7630    0.0000 C.3     1  LIG1        0.1637
     15 O          -3.9540   -1.2500    0.0000 O.3     1  LIG1       -0.3501
     16 C          -3.9540   -0.2630    0.0000 C.3     1  LIG1        0.1637
     17 C          -3.0710    0.2500    0.0000 C.3     1  LIG1        0.1257
     18 N           1.3080   -0.2630    0.0000 N.pl3   1  LIG1       -0.2359
     19 C           2.1790    0.2130    0.0000 C.ar    1  LIG1        0.0583
     20 C           2.2210    1.2000    0.0000 C.ar    1  LIG1        0.0152
     21 C           3.1250    1.6790    0.0000 C.ar    1  LIG1        0.0013
     22 C           3.9500    1.1710    0.0000 C.ar    1  LIG1        0.0001
     23 C           3.9130    0.1670    0.0000 C.ar    1  LIG1        0.0013
     24 C           3.0130   -0.2960    0.0000 C.ar    1  LIG1        0.0152
     25 C           1.3380   -1.2630    0.0000 C.ar    1  LIG1        0.0583
     26 C           0.5080   -1.7630    0.0000 C.ar    1  LIG1        0.0152
     27 C           0.5080   -2.7750    0.0000 C.ar    1  LIG1        0.0013
     28 C           1.3750   -3.2790    0.0000 C.ar    1  LIG1        0.0001
     29 C           2.2210   -2.7630    0.0000 C.ar    1  LIG1        0.0013
     30 C           2.1960   -1.7580    0.0000 C.ar    1  LIG1        0.0152
@<TRIPOS>BOND
     1     1     2   ar
     2     1     6   ar
     3     1    18    1
     4     2     3   ar
     5     3     4   ar
     6     3    12    1
     7     4     5   ar
     8     5     6   ar
     9     5     7    1
    10     7     8    1
    11     8     9    1
    12     9    10   ar
    13     9    11   ar
    14    12    13    1
    15    12    17    1
    16    13    14    1
    17    14    15    1
    18    15    16    1
    19    16    17    1
    20    18    19    1
    21    18    25    1
    22    19    20   ar
    23    19    24   ar
    24    20    21   ar
    25    21    22   ar
    26    22    23   ar
    27    23    24   ar
    28    25    26   ar
    29    25    30   ar
    30    26    27   ar
    31    27    28   ar
    32    28    29   ar
    33    29    30   ar
