@<TRIPOS>MOLECULE
27288_ChemDiv_6049-1627
 35 39 0 0 0
SMALL
GASTEIGER
Energy = 0

@<TRIPOS>ATOM
      1 C          -2.4790    0.8750    0.0000 C.ar    1  LIG1        0.1072
      2 C          -2.0920   -0.0580    0.0000 C.2     1  LIG1        0.2534
      3 N          -1.0920   -0.1670    0.0000 N.am    1  LIG1       -0.2741
      4 C          -0.4420    0.6630    0.0000 C.3     1  LIG1        0.1152
      5 C           0.5380    0.6630    0.0000 C.3     1  LIG1        0.1152
      6 N           1.1670   -0.1790    0.0000 N.am    1  LIG1       -0.2741
      7 C           2.1670   -0.1080    0.0000 C.2     1  LIG1        0.2534
      8 C           2.7210   -0.9460    0.0000 C.ar    1  LIG1        0.1072
      9 C           3.7040   -0.9670    0.0000 C.ar    1  LIG1        0.1269
     10 N           4.0000   -1.9170    0.0000 N.ar    1  LIG1       -0.0772
     11 O           3.1960   -2.4830    0.0000 O.2     1  LIG1       -0.3576
     12 C           2.3920   -1.9170    0.0000 C.ar    1  LIG1        0.1591
     13 C           1.4670   -2.2000    0.0000 C.3     1  LIG1        0.0755
     14 C           4.2880   -0.1500    0.0000 C.ar    1  LIG1        0.0211
     15 C           3.8830    0.7540    0.0000 C.ar    1  LIG1        0.0016
     16 C           4.4710    1.5630    0.0000 C.ar    1  LIG1        0.0000
     17 C           5.4540    1.4710    0.0000 C.ar    1  LIG1        0.0000
     18 C           5.8630    0.5460    0.0000 C.ar    1  LIG1        0.0000
     19 C           5.2750   -0.2580    0.0000 C.ar    1  LIG1        0.0016
     20 O           2.5960    0.7830    0.0000 O.2     1  LIG1       -0.2698
     21 C           0.9540   -1.1130    0.0000 C.3     1  LIG1        0.0955
     22 C           0.0250   -1.5750    0.0000 C.3     1  LIG1        0.0430
     23 C          -0.8540   -1.1250    0.0000 C.3     1  LIG1        0.0955
     24 O          -2.6880   -0.8750    0.0000 O.2     1  LIG1       -0.2698
     25 C          -3.4330    1.0670    0.0000 C.ar    1  LIG1        0.1269
     26 N          -3.5580    2.0670    0.0000 N.ar    1  LIG1       -0.0772
     27 O          -2.6540    2.4880    0.0000 O.2     1  LIG1       -0.3576
     28 C          -1.9540    1.7540    0.0000 C.ar    1  LIG1        0.1591
     29 C          -0.9920    1.8750    0.0000 C.3     1  LIG1        0.0755
     30 C          -4.1670    0.3920    0.0000 C.ar    1  LIG1        0.0211
     31 C          -3.9460   -0.5920    0.0000 C.ar    1  LIG1        0.0016
     32 C          -4.6830   -1.2580    0.0000 C.ar    1  LIG1        0.0000
     33 C          -5.6330   -0.9960    0.0000 C.ar    1  LIG1        0.0000
     34 C          -5.8670    0.0000    0.0000 C.ar    1  LIG1        0.0000
     35 C          -5.1290    0.6790    0.0000 C.ar    1  LIG1        0.0016
@<TRIPOS>BOND
     1     1     2    1
     2     1    25   ar
     3     1    28   ar
     4     2     3   am
     5     2    24    2
     6     3     4    1
     7     3    23    1
     8     4     5    1
     9     5     6    1
    10     6     7   am
    11     6    21    1
    12     7     8    1
    13     7    20    2
    14     8     9   ar
    15     8    12   ar
    16     9    10   ar
    17     9    14    1
    18    10    11   ar
    19    11    12   ar
    20    12    13    1
    21    14    15   ar
    22    14    19   ar
    23    15    16   ar
    24    16    17   ar
    25    17    18   ar
    26    18    19   ar
    27    21    22    1
    28    22    23    1
    29    25    26   ar
    30    25    30    1
    31    26    27   ar
    32    27    28   ar
    33    28    29    1
    34    30    31   ar
    35    30    35   ar
    36    31    32   ar
    37    32    33   ar
    38    33    34   ar
    39    34    35   ar
