@<TRIPOS>MOLECULE
27280_ChemDiv_8012-8855
 25 27 0 0 0
SMALL
GASTEIGER
Energy = 0

@<TRIPOS>ATOM
      1 C           2.6500    0.3580    0.0000 C.ar    1  LIG1        0.2238
      2 N           2.6580   -0.6500    0.0000 N.ar    1  LIG1       -0.1782
      3 C           1.7960   -1.1420    0.0000 C.ar    1  LIG1        0.2601
      4 N           0.9210   -0.6500    0.0000 N.ar    1  LIG1       -0.1922
      5 C           0.9330    0.3580    0.0000 C.ar    1  LIG1        0.1889
      6 N           1.7960    0.8580    0.0000 N.ar    1  LIG1       -0.1948
      7 C           0.0630    0.8580    0.0000 C.3     1  LIG1        0.2703
      8 O          -0.8040    0.3580    0.0000 O.3     1  LIG1       -0.4673
      9 C          -1.7130   -0.0630    0.0000 C.ar    1  LIG1        0.1392
     10 C          -2.5420    0.5000    0.0000 C.ar    1  LIG1        0.0366
     11 C          -3.4330    0.0750    0.0000 C.ar    1  LIG1       -0.0012
     12 C          -3.5170   -0.9250    0.0000 C.ar    1  LIG1       -0.0226
     13 C          -4.4210   -1.3500    0.0000 C.3     1  LIG1        0.0189
     14 C          -5.2460   -0.7880    0.0000 C.3     1  LIG1        0.0044
     15 C          -4.4960   -2.3500    0.0000 C.3     1  LIG1        0.0044
     16 C          -4.6040   -0.3670    0.0000 C.3     1  LIG1        0.0044
     17 C          -2.6960   -1.4960    0.0000 C.ar    1  LIG1       -0.0012
     18 C          -1.7920   -1.0750    0.0000 C.ar    1  LIG1        0.0366
     19 N           1.7960   -2.1460    0.0000 N.pl3   1  LIG1       -0.0859
     20 N           3.5210    0.8580    0.0000 N.pl3   1  LIG1       -0.2781
     21 C           4.3790    0.3580    0.0000 C.3     1  LIG1        0.0936
     22 C           5.2420    0.8580    0.0000 C.3     1  LIG1        0.0216
     23 C           5.2420    1.8580    0.0000 C.3     1  LIG1        0.0035
     24 C           4.3790    2.3540    0.0000 C.3     1  LIG1        0.0216
     25 C           3.5080    1.8580    0.0000 C.3     1  LIG1        0.0936
@<TRIPOS>BOND
     1     1     2   ar
     2     1     6   ar
     3     1    20    1
     4     2     3   ar
     5     3     4   ar
     6     3    19    1
     7     4     5   ar
     8     5     6   ar
     9     5     7    1
    10     7     8    1
    11     8     9    1
    12     9    10   ar
    13     9    18   ar
    14    10    11   ar
    15    11    12   ar
    16    12    13    1
    17    12    17   ar
    18    13    14    1
    19    13    15    1
    20    13    16    1
    21    17    18   ar
    22    20    21    1
    23    20    25    1
    24    21    22    1
    25    22    23    1
    26    23    24    1
    27    24    25    1
