@<TRIPOS>MOLECULE
27286_ChemDiv_6049-1290
 26 28 0 0 0
SMALL
GASTEIGER
Energy = 0

@<TRIPOS>ATOM
      1 C           2.6750    1.0630    0.0000 C.ar    1  LIG1        0.1286
      2 C           1.6630    1.0210    0.0000 C.ar    1  LIG1        0.1087
      3 C           1.2920    1.8830    0.0000 C.ar    1  LIG1        0.1592
      4 O           2.0040    2.5460    0.0000 O.2     1  LIG1       -0.3576
      5 N           2.8670    2.0500    0.0000 N.ar    1  LIG1       -0.0772
      6 C           0.3170    2.1290    0.0000 C.3     1  LIG1        0.0755
      7 C           1.1210    0.1250    0.0000 C.2     1  LIG1        0.2691
      8 O           1.6000   -0.7580    0.0000 O.2     1  LIG1       -0.2682
      9 N           0.1170    0.1250    0.0000 N.am    1  LIG1       -0.2013
     10 C          -0.3750   -0.7540    0.0000 C.3     1  LIG1        0.1216
     11 C          -1.3880   -0.7540    0.0000 C.3     1  LIG1        0.0861
     12 C          -1.8960   -1.6290    0.0000 C.3     1  LIG1        0.1407
     13 N          -2.9040   -1.6290    0.0000 N.4     1  LIG1        0.3813
     14 C          -3.4130   -0.7830    0.0000 C.3     1  LIG1        0.1713
     15 C          -4.4250   -0.7830    0.0000 C.3     1  LIG1        0.2047
     16 O          -4.9460   -1.6630    0.0000 O.3     1  LIG1       -0.3411
     17 C          -4.4250   -2.5420    0.0000 C.3     1  LIG1        0.2047
     18 C          -3.3920   -2.5170    0.0000 C.3     1  LIG1        0.1713
     19 C           3.3130    0.3210    0.0000 C.ar    1  LIG1        0.0422
     20 C           3.0170   -0.6420    0.0000 C.ar    1  LIG1        0.0600
     21 CL          2.0710   -0.8750    0.0000 Cl      1  LIG1       -0.0822
     22 C           3.6630   -1.3750    0.0000 C.ar    1  LIG1        0.0115
     23 C           4.6500   -1.1830    0.0000 C.ar    1  LIG1        0.0017
     24 C           4.9420   -0.2330    0.0000 C.ar    1  LIG1        0.0115
     25 C           4.2920    0.4830    0.0000 C.ar    1  LIG1        0.0600
     26 CL          4.6210    1.4080    0.0000 Cl      1  LIG1       -0.0822
@<TRIPOS>BOND
     1     1     2   ar
     2     1     5   ar
     3     1    19    1
     4     2     3   ar
     5     2     7    1
     6     3     4   ar
     7     3     6    1
     8     4     5   ar
     9     7     8    2
    10     7     9   am
    11     9    10    1
    12    10    11    1
    13    11    12    1
    14    12    13    1
    15    13    14    1
    16    13    18    1
    17    14    15    1
    18    15    16    1
    19    16    17    1
    20    17    18    1
    21    19    20   ar
    22    19    25   ar
    23    20    21    1
    24    20    22   ar
    25    22    23   ar
    26    23    24   ar
    27    24    25   ar
    28    25    26    1
