@<TRIPOS>MOLECULE
27284_ChemDiv_6049-0013
 34 38 0 0 0
SMALL
GASTEIGER
Energy = 0

@<TRIPOS>ATOM
      1 C          -3.9000   -0.4330    0.0000 C.ar    1  LIG1        0.1072
      2 C          -3.3580    0.4170    0.0000 C.2     1  LIG1        0.2534
      3 N          -2.3750    0.3580    0.0000 N.am    1  LIG1       -0.2725
      4 C          -1.9210   -0.5500    0.0000 C.3     1  LIG1        0.1151
      5 C          -0.9250   -0.6080    0.0000 C.3     1  LIG1        0.1123
      6 N          -0.3880    0.2750    0.0000 N.pl3   1  LIG1       -0.3041
      7 C           0.6380    0.2460    0.0000 C.ar    1  LIG1        0.0481
      8 C           1.1750    1.0670    0.0000 C.ar    1  LIG1        0.0176
      9 C           2.1710    1.0380    0.0000 C.ar    1  LIG1        0.0382
     10 C           2.6210    0.1630    0.0000 C.ar    1  LIG1        0.1391
     11 O           3.6170    0.1330    0.0000 O.3     1  LIG1       -0.4706
     12 C           4.1250    0.9830    0.0000 C.3     1  LIG1        0.2320
     13 C           5.1210    0.9540    0.0000 C.ar    1  LIG1        0.0212
     14 C           5.6330    1.8040    0.0000 C.ar    1  LIG1       -0.0007
     15 C           6.6210    1.7750    0.0000 C.ar    1  LIG1       -0.0002
     16 C           7.1040    0.9000    0.0000 C.ar    1  LIG1       -0.0000
     17 C           6.5960    0.0460    0.0000 C.ar    1  LIG1       -0.0002
     18 C           5.6040    0.0790    0.0000 C.ar    1  LIG1       -0.0007
     19 C           2.0790   -0.6920    0.0000 C.ar    1  LIG1        0.0382
     20 C           1.0920   -0.6630    0.0000 C.ar    1  LIG1        0.0176
     21 C          -0.8420    1.1500    0.0000 C.3     1  LIG1        0.1123
     22 C          -1.8380    1.2170    0.0000 C.3     1  LIG1        0.1151
     23 O          -3.8170    1.3000    0.0000 O.2     1  LIG1       -0.2698
     24 C          -4.9210   -0.5170    0.0000 C.ar    1  LIG1        0.1269
     25 N          -5.1460   -1.4830    0.0000 N.ar    1  LIG1       -0.0772
     26 O          -4.2710   -1.9960    0.0000 O.2     1  LIG1       -0.3576
     27 C          -3.5250   -1.3710    0.0000 C.ar    1  LIG1        0.1591
     28 C          -2.5750   -1.6540    0.0000 C.3     1  LIG1        0.0755
     29 C          -5.4920    0.3040    0.0000 C.ar    1  LIG1        0.0211
     30 C          -6.4460    0.0790    0.0000 C.ar    1  LIG1        0.0016
     31 C          -7.1040    0.8130    0.0000 C.ar    1  LIG1        0.0000
     32 C          -6.8460    1.7750    0.0000 C.ar    1  LIG1        0.0000
     33 C          -5.8540    2.0000    0.0000 C.ar    1  LIG1        0.0000
     34 C          -5.1710    1.2750    0.0000 C.ar    1  LIG1        0.0016
@<TRIPOS>BOND
     1     1     2    1
     2     1    24   ar
     3     1    27   ar
     4     2     3   am
     5     2    23    2
     6     3     4    1
     7     3    22    1
     8     4     5    1
     9     5     6    1
    10     6     7    1
    11     6    21    1
    12     7     8   ar
    13     7    20   ar
    14     8     9   ar
    15     9    10   ar
    16    10    11    1
    17    10    19   ar
    18    11    12    1
    19    12    13    1
    20    13    14   ar
    21    13    18   ar
    22    14    15   ar
    23    15    16   ar
    24    16    17   ar
    25    17    18   ar
    26    19    20   ar
    27    21    22    1
    28    24    25   ar
    29    24    29    1
    30    25    26   ar
    31    26    27   ar
    32    27    28    1
    33    29    30   ar
    34    29    34   ar
    35    30    31   ar
    36    31    32   ar
    37    32    33   ar
    38    33    34   ar
