@<TRIPOS>MOLECULE
27296_ChemDiv_7067-5254
 24 26 0 0 0
SMALL
GASTEIGER
Energy = 0

@<TRIPOS>ATOM
      1 C          -0.5000   -0.8460    0.0000 C.ar    1  LIG1        0.1072
      2 C           0.3880   -0.4290    0.0000 C.2     1  LIG1        0.2535
      3 N           1.2080   -0.9920    0.0000 N.am    1  LIG1       -0.2727
      4 C           2.0920   -0.5630    0.0000 C.3     1  LIG1        0.1120
      5 C           2.1580    0.4290    0.0000 C.2     1  LIG1        0.0684
      6 O           1.3170    0.9380    0.0000 O.co2   1  LIG1       -0.5475
      7 O           3.0330    0.7880    0.0000 O.co2   1  LIG1       -0.5475
      8 C           2.9080   -1.0960    0.0000 C.3     1  LIG1        0.0256
      9 C           2.8540   -2.0880    0.0000 C.3     1  LIG1        0.0038
     10 C           1.9630   -2.5290    0.0000 C.3     1  LIG1        0.0216
     11 C           1.1670   -1.9960    0.0000 C.3     1  LIG1        0.0940
     12 O           0.4630    0.5460    0.0000 O.2     1  LIG1       -0.2697
     13 C          -1.3540   -0.3130    0.0000 C.ar    1  LIG1        0.1278
     14 N          -2.1790   -0.9630    0.0000 N.ar    1  LIG1       -0.0772
     15 O          -1.7830   -1.9960    0.0000 O.2     1  LIG1       -0.3576
     16 C          -0.7880   -1.8880    0.0000 C.ar    1  LIG1        0.1591
     17 C          -0.1540   -2.7040    0.0000 C.3     1  LIG1        0.0755
     18 C          -1.3750    0.6960    0.0000 C.ar    1  LIG1        0.0316
     19 C          -2.2330    1.1250    0.0000 C.ar    1  LIG1        0.0592
     20 CL         -3.0380    0.5460    0.0000 Cl      1  LIG1       -0.0822
     21 C          -2.3210    2.1170    0.0000 C.ar    1  LIG1        0.0114
     22 C          -1.5330    2.7080    0.0000 C.ar    1  LIG1        0.0009
     23 C          -0.6250    2.2580    0.0000 C.ar    1  LIG1        0.0001
     24 C          -0.5460    1.2830    0.0000 C.ar    1  LIG1        0.0024
@<TRIPOS>BOND
     1     1     2    1
     2     1    13   ar
     3     1    16   ar
     4     2     3   am
     5     2    12    2
     6     3     4    1
     7     3    11    1
     8     4     5    1
     9     4     8    1
    10     5     6   ar
    11     5     7   ar
    12     8     9    1
    13     9    10    1
    14    10    11    1
    15    13    14   ar
    16    13    18    1
    17    14    15   ar
    18    15    16   ar
    19    16    17    1
    20    18    19   ar
    21    18    24   ar
    22    19    20    1
    23    19    21   ar
    24    21    22   ar
    25    22    23   ar
    26    23    24   ar
