@<TRIPOS>MOLECULE
27294_ChemDiv_6368-0026
 25 27 0 0 0
SMALL
GASTEIGER
Energy = 0

@<TRIPOS>ATOM
      1 C          -1.3750   -0.5000    0.0000 C.ar    1  LIG1        0.1072
      2 C          -0.8500    0.3420    0.0000 C.2     1  LIG1        0.2534
      3 N           0.1500    0.3420    0.0000 N.am    1  LIG1       -0.2724
      4 C           0.6540   -0.5380    0.0000 C.3     1  LIG1        0.1153
      5 C           1.6580   -0.5380    0.0000 C.3     1  LIG1        0.1182
      6 N           2.1540    0.3420    0.0000 N.am    1  LIG1       -0.2425
      7 C           3.1580    0.3750    0.0000 C.2     1  LIG1        0.4050
      8 O           3.6580   -0.5000    0.0000 O.2     1  LIG1       -0.2262
      9 O           3.6380    1.2290    0.0000 O.3     1  LIG1       -0.4345
     10 C           4.6580    1.2580    0.0000 C.3     1  LIG1        0.2102
     11 C           5.1630    2.1130    0.0000 C.3     1  LIG1        0.0513
     12 C           1.6580    1.1920    0.0000 C.3     1  LIG1        0.1182
     13 C           0.6540    1.1920    0.0000 C.3     1  LIG1        0.1153
     14 O          -1.3750    1.2290    0.0000 O.2     1  LIG1       -0.2698
     15 C          -2.3540   -0.7330    0.0000 C.ar    1  LIG1        0.1269
     16 N          -2.4420   -1.7130    0.0000 N.ar    1  LIG1       -0.0772
     17 O          -1.5540   -2.1080    0.0000 O.2     1  LIG1       -0.3576
     18 C          -0.8500   -1.3880    0.0000 C.ar    1  LIG1        0.1591
     19 C           0.1500   -1.5170    0.0000 C.3     1  LIG1        0.0755
     20 C          -3.2960   -0.4080    0.0000 C.ar    1  LIG1        0.0211
     21 C          -4.0330   -1.0580    0.0000 C.ar    1  LIG1        0.0016
     22 C          -4.9710   -0.7330    0.0000 C.ar    1  LIG1        0.0000
     23 C          -5.1670    0.2460    0.0000 C.ar    1  LIG1        0.0000
     24 C          -4.4250    0.9000    0.0000 C.ar    1  LIG1        0.0000
     25 C          -3.4880    0.5750    0.0000 C.ar    1  LIG1        0.0016
@<TRIPOS>BOND
     1     1     2    1
     2     1    15   ar
     3     1    18   ar
     4     2     3   am
     5     2    14    2
     6     3     4    1
     7     3    13    1
     8     4     5    1
     9     5     6    1
    10     6     7   am
    11     6    12    1
    12     7     8    2
    13     7     9    1
    14     9    10    1
    15    10    11    1
    16    12    13    1
    17    15    16   ar
    18    15    20    1
    19    16    17   ar
    20    17    18   ar
    21    18    19    1
    22    20    21   ar
    23    20    25   ar
    24    21    22   ar
    25    22    23   ar
    26    23    24   ar
    27    24    25   ar
