@<TRIPOS>MOLECULE
27297_ChemDiv_1724-0236
 18 18 0 0 0
SMALL
GASTEIGER
Energy = 0

@<TRIPOS>ATOM
      1 N           2.9710   -0.4250    0.0000 N.2     1  LIG1        0.0159
      2 C           2.9710    0.5540    0.0000 C.3     1  LIG1        0.2387
      3 C           2.0790    1.0460    0.0000 C.3     1  LIG1        0.1054
      4 C           1.2330    0.5540    0.0000 C.3     1  LIG1        0.1395
      5 C           1.2330   -0.4380    0.0000 C.3     1  LIG1        0.1054
      6 C           2.1040   -0.9130    0.0000 C.3     1  LIG1        0.2387
      7 C           1.2750   -1.5460    0.0000 C.3     1  LIG1        0.0818
      8 C           3.0330   -1.4630    0.0000 C.3     1  LIG1        0.0818
      9 O           1.2460    1.5000    0.0000 O.3     1  LIG1       -0.2252
     10 C           0.3460    1.0420    0.0000 C.3     1  LIG1        0.0309
     11 C          -0.5290    0.5250    0.0000 C.3     1  LIG1        0.0025
     12 C          -1.4000    0.9960    0.0000 C.3     1  LIG1        0.0001
     13 C          -2.2210    0.5040    0.0000 C.3     1  LIG1        0.0000
     14 C          -3.1000    0.9420    0.0000 C.3     1  LIG1        0.0000
     15 C          -3.9420    0.4170    0.0000 C.3     1  LIG1        0.0000
     16 C           2.9710    1.5500    0.0000 C.3     1  LIG1        0.0818
     17 C           3.9380    0.2500    0.0000 C.3     1  LIG1        0.0818
     18 O           3.8580   -0.9170    0.0000 O.2     1  LIG1        0.0210
@<TRIPOS>BOND
     1     1     2    1
     2     1     6    1
     3     1    18    2
     4     2     3    1
     5     2    16    1
     6     2    17    1
     7     3     4    1
     8     4     5    1
     9     4     9    1
    10     4    10    1
    11     5     6    1
    12     6     7    1
    13     6     8    1
    14    10    11    1
    15    11    12    1
    16    12    13    1
    17    13    14    1
    18    14    15    1
