@<TRIPOS>MOLECULE
27290_ChemDiv_6049-2972
 29 32 0 0 0
SMALL
GASTEIGER
Energy = 0

@<TRIPOS>ATOM
      1 C           1.1250   -1.4920    0.0000 C.ar    1  LIG1        0.1072
      2 C           0.6130   -0.6290    0.0000 C.2     1  LIG1        0.2538
      3 N          -0.9330   -0.6290    0.0000 N.am    1  LIG1       -0.2677
      4 C          -1.4330   -1.4710    0.0000 C.3     1  LIG1        0.1208
      5 C          -2.4130   -1.4710    0.0000 C.ar    1  LIG1       -0.0023
      6 C          -2.9080   -0.6210    0.0000 C.ar    1  LIG1       -0.0026
      7 C          -3.8750   -0.6080    0.0000 C.ar    1  LIG1       -0.0003
      8 C          -4.3920   -1.4540    0.0000 C.ar    1  LIG1       -0.0000
      9 C          -3.8830   -2.2920    0.0000 C.ar    1  LIG1       -0.0003
     10 C          -2.9080   -2.3040    0.0000 C.ar    1  LIG1       -0.0026
     11 C          -1.4130    0.2330    0.0000 C.3     1  LIG1        0.1208
     12 C          -1.1250    1.1670    0.0000 C.ar    1  LIG1       -0.0023
     13 C          -1.7880    1.8920    0.0000 C.ar    1  LIG1       -0.0026
     14 C          -1.5170    2.8290    0.0000 C.ar    1  LIG1       -0.0003
     15 C          -0.5580    3.0790    0.0000 C.ar    1  LIG1       -0.0000
     16 C           0.1210    2.3500    0.0000 C.ar    1  LIG1       -0.0003
     17 C          -0.1580    1.3960    0.0000 C.ar    1  LIG1       -0.0026
     18 O           1.1040    0.2380    0.0000 O.2     1  LIG1       -0.2697
     19 C           2.1210   -1.5540    0.0000 C.ar    1  LIG1        0.1269
     20 N           2.3630   -2.5500    0.0000 N.ar    1  LIG1       -0.0772
     21 O           1.5290   -3.0750    0.0000 O.2     1  LIG1       -0.3576
     22 C           0.7540   -2.4420    0.0000 C.ar    1  LIG1        0.1591
     23 C           0.1330   -2.6420    0.0000 C.3     1  LIG1        0.0755
     24 C           2.7580   -0.7790    0.0000 C.ar    1  LIG1        0.0211
     25 C           2.4040    0.1630    0.0000 C.ar    1  LIG1        0.0016
     26 C           3.0330    0.9500    0.0000 C.ar    1  LIG1        0.0000
     27 C           4.0330    0.7920    0.0000 C.ar    1  LIG1        0.0000
     28 C           4.3880   -0.1580    0.0000 C.ar    1  LIG1        0.0000
     29 C           3.7500   -0.9290    0.0000 C.ar    1  LIG1        0.0016
@<TRIPOS>BOND
     1     1     2    1
     2     1    19   ar
     3     1    22   ar
     4     2     3   am
     5     2    18    2
     6     3     4    1
     7     3    11    1
     8     4     5    1
     9     5     6   ar
    10     5    10   ar
    11     6     7   ar
    12     7     8   ar
    13     8     9   ar
    14     9    10   ar
    15    11    12    1
    16    12    13   ar
    17    12    17   ar
    18    13    14   ar
    19    14    15   ar
    20    15    16   ar
    21    16    17   ar
    22    19    20   ar
    23    19    24    1
    24    20    21   ar
    25    21    22   ar
    26    22    23    1
    27    24    25   ar
    28    24    29   ar
    29    25    26   ar
    30    26    27   ar
    31    27    28   ar
    32    28    29   ar
