@<TRIPOS>MOLECULE
27292_ChemDiv_6367-1885
 28 31 0 0 0
SMALL
GASTEIGER
Energy = 0

@<TRIPOS>ATOM
      1 C           2.6080   -1.4330    0.0000 C.ar    1  LIG1        0.1072
      2 C           1.7080   -1.8920    0.0000 C.2     1  LIG1        0.2534
      3 N           0.8670   -1.3460    0.0000 N.am    1  LIG1       -0.2725
      4 C          -0.0170   -1.8000    0.0000 C.3     1  LIG1        0.1151
      5 C          -0.8670   -1.2670    0.0000 C.3     1  LIG1        0.1123
      6 N          -0.8170   -0.2670    0.0000 N.pl3   1  LIG1       -0.3041
      7 C          -1.6460    0.2710    0.0000 C.ar    1  LIG1        0.0481
      8 C          -1.6040    1.2830    0.0000 C.ar    1  LIG1        0.0176
      9 C          -2.4460    1.8130    0.0000 C.ar    1  LIG1        0.0382
     10 C          -3.3330    1.3500    0.0000 C.ar    1  LIG1        0.1388
     11 C          -3.3790    0.3380    0.0000 C.ar    1  LIG1        0.0382
     12 C          -2.5290   -0.1960    0.0000 C.ar    1  LIG1        0.0176
     13 O          -4.1960    1.8880    0.0000 O.3     1  LIG1       -0.4714
     14 C          -4.1500    2.8960    0.0000 C.3     1  LIG1        0.2525
     15 C           0.0790    0.2000    0.0000 C.3     1  LIG1        0.1123
     16 C           0.9170   -0.3460    0.0000 C.3     1  LIG1        0.1151
     17 O           1.6580   -2.8920    0.0000 O.2     1  LIG1       -0.2698
     18 C           2.7670   -0.4500    0.0000 C.ar    1  LIG1        0.1269
     19 N           3.7460   -0.3000    0.0000 N.ar    1  LIG1       -0.0772
     20 O           4.1920   -1.2000    0.0000 O.2     1  LIG1       -0.3576
     21 C           3.4960   -1.8830    0.0000 C.ar    1  LIG1        0.1591
     22 C           3.6630   -2.8670    0.0000 C.3     1  LIG1        0.0755
     23 C           2.1000    0.2830    0.0000 C.ar    1  LIG1        0.0211
     24 C           2.4000    1.2330    0.0000 C.ar    1  LIG1        0.0016
     25 C           1.7330    1.9710    0.0000 C.ar    1  LIG1        0.0000
     26 C           0.7630    1.7630    0.0000 C.ar    1  LIG1        0.0000
     27 C           0.4500    0.8040    0.0000 C.ar    1  LIG1        0.0000
     28 C           1.1170    0.0670    0.0000 C.ar    1  LIG1        0.0016
@<TRIPOS>BOND
     1     1     2    1
     2     1    18   ar
     3     1    21   ar
     4     2     3   am
     5     2    17    2
     6     3     4    1
     7     3    16    1
     8     4     5    1
     9     5     6    1
    10     6     7    1
    11     6    15    1
    12     7     8   ar
    13     7    12   ar
    14     8     9   ar
    15     9    10   ar
    16    10    11   ar
    17    10    13    1
    18    11    12   ar
    19    13    14    1
    20    15    16    1
    21    18    19   ar
    22    18    23    1
    23    19    20   ar
    24    20    21   ar
    25    21    22    1
    26    23    24   ar
    27    23    28   ar
    28    24    25   ar
    29    25    26   ar
    30    26    27   ar
    31    27    28   ar
