@<TRIPOS>MOLECULE
27309_ChemDiv_1726-0007
 22 24 0 0 0
SMALL
GASTEIGER
Energy = 0

@<TRIPOS>ATOM
      1 N           0.3500    0.0000    0.0000 N.am    1  LIG1       -0.2185
      2 C           0.9040    0.7540    0.0000 C.2     1  LIG1        0.2554
      3 C           0.4040    1.6210    0.0000 C.ar    1  LIG1        0.0584
      4 C          -0.5790    1.3500    0.0000 C.ar    1  LIG1        0.0584
      5 C          -0.6420    0.3210    0.0000 C.2     1  LIG1        0.2554
      6 O          -1.4540   -0.1880    0.0000 O.2     1  LIG1       -0.2695
      7 C          -1.3130    2.0710    0.0000 C.ar    1  LIG1        0.0047
      8 C          -1.0130    3.0420    0.0000 C.ar    1  LIG1        0.0001
      9 C          -0.0330    3.2960    0.0000 C.ar    1  LIG1        0.0001
     10 C           0.6420    2.5750    0.0000 C.ar    1  LIG1        0.0047
     11 O           1.9170    0.7210    0.0000 O.2     1  LIG1       -0.2695
     12 C           0.7040   -0.9130    0.0000 C.3     1  LIG1        0.1290
     13 C           0.0500   -1.7420    0.0000 C.ar    1  LIG1        0.0100
     14 C           0.3210   -2.7000    0.0000 C.ar    1  LIG1        0.0519
     15 S          -0.4580   -3.2920    0.0000 S.2     1  LIG1       -0.0853
     16 C          -1.3130   -2.7000    0.0000 C.ar    1  LIG1        0.0075
     17 C          -0.9750   -1.7420    0.0000 C.ar    1  LIG1        0.0006
     18 C          -2.2250   -3.0040    0.0000 C.3     1  LIG1        0.0330
     19 C          -2.9380   -2.3750    0.0000 C.3     1  LIG1        0.0056
     20 S           1.2500   -3.0500    0.0000 S.3     1  LIG1       -0.1075
     21 C           2.0080   -2.4130    0.0000 C.3     1  LIG1        0.0627
     22 C           2.9330   -2.7500    0.0000 C.3     1  LIG1        0.0129
@<TRIPOS>BOND
     1     1     2   am
     2     1     5   am
     3     1    12    1
     4     2     3    1
     5     2    11    2
     6     3     4   ar
     7     3    10   ar
     8     4     5    1
     9     4     7   ar
    10     5     6    2
    11     7     8   ar
    12     8     9   ar
    13     9    10   ar
    14    12    13    1
    15    13    14   ar
    16    13    17   ar
    17    14    15   ar
    18    14    20    1
    19    15    16   ar
    20    16    17   ar
    21    16    18    1
    22    18    19    1
    23    20    21    1
    24    21    22    1
