@<TRIPOS>MOLECULE
27301_ChemDiv_1725-0030
 19 19 0 0 0
SMALL
GASTEIGER
Energy = 0

@<TRIPOS>ATOM
      1 C           1.3040    3.2540    0.0000 C.2     1  LIG1        0.3392
      2 N           0.5000    2.6630    0.0000 N.am    1  LIG1       -0.1872
      3 C           0.8170    1.7170    0.0000 C.3     1  LIG1        0.1168
      4 C           1.7880    1.7330    0.0000 C.3     1  LIG1        0.1168
      5 N           2.1000    2.6790    0.0000 N.am    1  LIG1       -0.1872
      6 C           2.3540    0.8920    0.0000 C.3     1  LIG1        0.0235
      7 C           1.9080   -0.0080    0.0000 C.3     1  LIG1        0.0018
      8 C           2.5000   -0.8330    0.0000 C.3     1  LIG1        0.0004
      9 C           2.0630   -1.7210    0.0000 C.3     1  LIG1        0.0059
     10 C           2.6460   -2.5380    0.0000 C.3     1  LIG1        0.0417
     11 C           2.2250   -3.4460    0.0000 C.2     1  LIG1        0.0503
     12 O           2.8000   -4.2460    0.0000 O.co2   1  LIG1       -0.5492
     13 O           1.2210   -3.5330    0.0000 O.co2   1  LIG1       -0.5492
     14 C           0.2710    0.8710    0.0000 C.3     1  LIG1        0.0235
     15 C          -0.7250    0.9380    0.0000 C.3     1  LIG1        0.0018
     16 C          -1.2670    0.0710    0.0000 C.3     1  LIG1        0.0001
     17 C          -2.2750    0.1380    0.0000 C.3     1  LIG1        0.0000
     18 C          -2.8040   -0.7080    0.0000 C.3     1  LIG1        0.0000
     19 O           1.3040    4.2460    0.0000 O.2     1  LIG1       -0.2492
@<TRIPOS>BOND
     1     1     2   am
     2     1     5   am
     3     1    19    2
     4     2     3    1
     5     3     4    1
     6     3    14    1
     7     4     5    1
     8     4     6    1
     9     6     7    1
    10     7     8    1
    11     8     9    1
    12     9    10    1
    13    10    11    1
    14    11    12   ar
    15    11    13   ar
    16    14    15    1
    17    15    16    1
    18    16    17    1
    19    17    18    1
