@<TRIPOS>MOLECULE
27305_ChemDiv_8017-9539
 15 17 0 0 0
SMALL
GASTEIGER
Energy = 0

@<TRIPOS>ATOM
      1 C           0.4460   -0.0080    0.0000 C.ar    1  LIG1        0.0041
      2 C           0.4460   -0.9420    0.0000 C.ar    1  LIG1        0.1119
      3 S          -0.3710   -1.4080    0.0000 S.2     1  LIG1       -0.0743
      4 C          -1.1750   -0.9420    0.0000 C.ar    1  LIG1        0.0040
      5 C          -1.1750   -0.0080    0.0000 C.ar    1  LIG1       -0.0244
      6 C          -1.9710    0.4630    0.0000 C.3     1  LIG1        0.0260
      7 C          -2.7710   -0.0080    0.0000 C.3     1  LIG1        0.0050
      8 C          -2.7710   -0.9420    0.0000 C.3     1  LIG1        0.0055
      9 C          -1.9710   -1.4080    0.0000 C.3     1  LIG1        0.0327
     10 N           1.2540   -1.4080    0.0000 N.pl3   1  LIG1       -0.1216
     11 C           1.2540    0.4630    0.0000 C.ar    1  LIG1        0.0459
     12 N           1.2540    1.4130    0.0000 N.ar    1  LIG1       -0.2894
     13 N           2.7670    1.4130    0.0000 N.ar    1  LIG1       -0.2180
     14 N           2.7580    0.5460    0.0000 N.ar    1  LIG1       -0.2180
     15 N           2.0580   -0.0080    0.0000 N.ar    1  LIG1       -0.2894
@<TRIPOS>BOND
     1     1     2   ar
     2     1     5   ar
     3     1    11    1
     4     2     3   ar
     5     2    10    1
     6     3     4   ar
     7     4     5   ar
     8     4     9    1
     9     5     6    1
    10     6     7    1
    11     7     8    1
    12     8     9    1
    13    11    12   ar
    14    11    15   ar
    15    12    13   ar
    16    13    14   ar
    17    14    15   ar
