@<TRIPOS>MOLECULE
27303_ChemDiv_1725-0046
 22 24 0 0 0
SMALL
GASTEIGER
Energy = 0

@<TRIPOS>ATOM
      1 C           0.2630   -1.3710    0.0000 C.ar    1  LIG1        0.0519
      2 C          -0.6880   -1.0500    0.0000 C.ar    1  LIG1       -0.0063
      3 C          -1.2670   -1.8710    0.0000 C.ar    1  LIG1        0.0042
      4 S          -0.6880   -2.6790    0.0000 S.2     1  LIG1       -0.0947
      5 C           0.2630   -2.3750    0.0000 C.ar    1  LIG1        0.0203
      6 C           0.9790   -3.0790    0.0000 C.3     1  LIG1        0.0342
      7 C           1.9630   -3.0790    0.0000 C.3     1  LIG1        0.0058
      8 C           2.6790   -2.3750    0.0000 C.3     1  LIG1        0.0099
      9 C           2.6790   -1.3710    0.0000 C.3     1  LIG1        0.0856
     10 C           1.9630   -0.6580    0.0000 C.2     1  LIG1        0.2293
     11 N           0.9790   -0.6580    0.0000 N.am    1  LIG1       -0.2585
     12 C           0.6380    0.2750    0.0000 C.3     1  LIG1        0.1043
     13 C           1.2540    1.0500    0.0000 C.3     1  LIG1        0.0845
     14 C           0.9170    1.9750    0.0000 C.3     1  LIG1        0.1410
     15 N          -0.0630    2.1290    0.0000 N.4     1  LIG1        0.3867
     16 C          -0.4210    3.0830    0.0000 C.3     1  LIG1        0.2025
     17 C          -0.6670    1.3500    0.0000 C.3     1  LIG1        0.2025
     18 O           2.3500    0.2880    0.0000 O.2     1  LIG1       -0.2745
     19 C          -2.2580   -1.7830    0.0000 C.3     1  LIG1        0.0327
     20 C          -2.6830   -0.8830    0.0000 C.3     1  LIG1        0.0055
     21 C          -2.1040   -0.0580    0.0000 C.3     1  LIG1        0.0051
     22 C          -1.1000   -0.1420    0.0000 C.3     1  LIG1        0.0278
@<TRIPOS>BOND
     1     1     2   ar
     2     1     5   ar
     3     1    11    1
     4     2     3   ar
     5     2    22    1
     6     3     4   ar
     7     3    19    1
     8     4     5   ar
     9     5     6    1
    10     6     7    1
    11     7     8    1
    12     8     9    1
    13     9    10    1
    14    10    11   am
    15    10    18    2
    16    11    12    1
    17    12    13    1
    18    13    14    1
    19    14    15    1
    20    15    16    1
    21    15    17    1
    22    19    20    1
    23    20    21    1
    24    21    22    1
