@<TRIPOS>MOLECULE
27314_ChemDiv_8012-6889
 31 36 0 0 0
SMALL
GASTEIGER
Energy = 0

@<TRIPOS>ATOM
      1 C           2.0210    0.4540    0.0000 C.ar    1  LIG1        0.1072
      2 C           3.0250    0.2920    0.0000 C.ar    1  LIG1        0.1278
      3 N           3.4920    1.1830    0.0000 N.ar    1  LIG1       -0.0772
      4 O           2.7920    1.8880    0.0000 O.2     1  LIG1       -0.3576
      5 C           1.9000    1.4500    0.0000 C.ar    1  LIG1        0.1591
      6 C           1.0290    1.9080    0.0000 C.3     1  LIG1        0.0755
      7 C           3.4670   -0.5920    0.0000 C.ar    1  LIG1        0.0316
      8 C           4.4750   -0.6710    0.0000 C.ar    1  LIG1        0.0592
      9 CL          5.0330    0.1500    0.0000 Cl      1  LIG1       -0.0822
     10 C           4.9210   -1.5710    0.0000 C.ar    1  LIG1        0.0114
     11 C           4.3670   -2.4000    0.0000 C.ar    1  LIG1        0.0009
     12 C           3.3710   -2.3210    0.0000 C.ar    1  LIG1        0.0001
     13 C           2.9330   -1.4080    0.0000 C.ar    1  LIG1        0.0024
     14 C           1.3040   -0.2250    0.0000 C.2     1  LIG1        0.2537
     15 N           0.3290    0.0380    0.0000 N.am    1  LIG1       -0.2644
     16 C          -0.3580   -0.6710    0.0000 C.3     1  LIG1        0.1567
     17 C          -1.3080   -0.4250    0.0000 C.3     1  LIG1        0.1600
     18 N          -1.5920    0.5250    0.0000 N.4     1  LIG1        0.3718
     19 C          -2.5380    0.7710    0.0000 C.3     1  LIG1        0.0457
     20 C          -2.1580    1.6790    0.0000 C.3     1  LIG1        0.0512
     21 C          -2.9250    2.3250    0.0000 C.3     1  LIG1        0.0055
     22 C          -3.9210    2.4040    0.0000 C.3     1  LIG1        0.0004
     23 C          -4.2830    1.4580    0.0000 C.3     1  LIG1        0.0055
     24 C          -3.4710    0.8250    0.0000 C.3     1  LIG1        0.0512
     25 C          -5.0380    0.8080    0.0000 C.3     1  LIG1        0.0004
     26 C          -4.0420    0.8080    0.0000 C.3     1  LIG1        0.0055
     27 C          -3.4330    0.0170    0.0000 C.3     1  LIG1        0.0512
     28 C          -3.7380    1.7580    0.0000 C.3     1  LIG1        0.0004
     29 C          -0.9040    1.2540    0.0000 C.3     1  LIG1        0.1600
     30 C           0.0670    1.0130    0.0000 C.3     1  LIG1        0.1567
     31 O           1.5670   -1.1540    0.0000 O.2     1  LIG1       -0.2697
@<TRIPOS>BOND
     1     1     2   ar
     2     1     5   ar
     3     1    14    1
     4     2     3   ar
     5     2     7    1
     6     3     4   ar
     7     4     5   ar
     8     5     6    1
     9     7     8   ar
    10     7    13   ar
    11     8     9    1
    12     8    10   ar
    13    10    11   ar
    14    11    12   ar
    15    12    13   ar
    16    14    15   am
    17    14    31    2
    18    15    16    1
    19    15    30    1
    20    16    17    1
    21    17    18    1
    22    18    19    1
    23    18    29    1
    24    19    20    1
    25    19    24    1
    26    19    27    1
    27    20    21    1
    28    21    22    1
    29    21    28    1
    30    22    23    1
    31    23    24    1
    32    23    25    1
    33    25    26    1
    34    26    27    1
    35    26    28    1
    36    29    30    1
