@<TRIPOS>MOLECULE
27316_ChemDiv_8012-9847
 28 30 0 0 0
SMALL
GASTEIGER
Energy = 0

@<TRIPOS>ATOM
      1 C          -2.9790    0.2040    0.0000 C.ar    1  LIG1        0.1300
      2 C          -1.2920    0.2040    0.0000 C.ar    1  LIG1        0.1087
      3 C          -0.4580    0.7000    0.0000 C.2     1  LIG1        0.2694
      4 N           0.3880    0.2040    0.0000 N.am    1  LIG1       -0.1967
      5 C           1.2380    0.7000    0.0000 C.3     1  LIG1        0.1418
      6 C           2.1210    0.1630    0.0000 C.ar    1  LIG1       -0.0005
      7 C           2.1210   -0.8040    0.0000 C.ar    1  LIG1       -0.0012
      8 C           2.9540   -1.2960    0.0000 C.ar    1  LIG1        0.0197
      9 C           3.7830   -0.8040    0.0000 C.ar    1  LIG1        0.1250
     10 S           4.6460   -1.3170    0.0000 S.O2    1  LIG1        0.0935
     11 O           5.1500   -0.4330    0.0000 O.2     1  LIG1       -0.1503
     12 O           4.1380   -2.1880    0.0000 O.2     1  LIG1       -0.1503
     13 N           5.4710   -1.8460    0.0000 N.3     1  LIG1        0.0392
     14 C           3.7830    0.1630    0.0000 C.ar    1  LIG1        0.0197
     15 C           2.9540    0.6670    0.0000 C.ar    1  LIG1       -0.0012
     16 O          -0.4580    1.6540    0.0000 O.2     1  LIG1       -0.2682
     17 C          -1.2920   -0.7580    0.0000 C.ar    1  LIG1        0.1592
     18 O          -2.1420   -1.2500    0.0000 O.2     1  LIG1       -0.3576
     19 N          -2.9790   -0.7580    0.0000 N.ar    1  LIG1       -0.0771
     20 C          -0.4580   -1.2500    0.0000 C.3     1  LIG1        0.0755
     21 C          -3.8080    0.7290    0.0000 C.ar    1  LIG1        0.0591
     22 C          -3.8080    1.6960    0.0000 C.ar    1  LIG1        0.1425
     23 F          -2.9670    2.1920    0.0000 F       1  LIG1       -0.2041
     24 C          -4.6460    2.1920    0.0000 C.ar    1  LIG1        0.0297
     25 C          -5.4750    1.6960    0.0000 C.ar    1  LIG1        0.0032
     26 C          -5.4750    0.7290    0.0000 C.ar    1  LIG1        0.0116
     27 C          -4.6460    0.2380    0.0000 C.ar    1  LIG1        0.0614
     28 CL         -4.6460   -0.7250    0.0000 Cl      1  LIG1       -0.0821
@<TRIPOS>BOND
     1     1     2   ar
     2     1    19   ar
     3     1    21    1
     4     2     3    1
     5     2    17   ar
     6     3     4   am
     7     3    16    2
     8     4     5    1
     9     5     6    1
    10     6     7   ar
    11     6    15   ar
    12     7     8   ar
    13     8     9   ar
    14     9    10    1
    15     9    14   ar
    16    10    11    2
    17    10    12    2
    18    10    13    1
    19    14    15   ar
    20    17    18   ar
    21    17    20    1
    22    18    19   ar
    23    21    22   ar
    24    21    27   ar
    25    22    23    1
    26    22    24   ar
    27    24    25   ar
    28    25    26   ar
    29    26    27   ar
    30    27    28    1
