@<TRIPOS>MOLECULE
27311_ChemDiv_1726-0042
 16 18 0 0 0
SMALL
GASTEIGER
Energy = 0

@<TRIPOS>ATOM
      1 N           0.6170    0.3250    0.0000 N.ar    1  LIG1       -0.1329
      2 S           0.2830   -0.6170    0.0000 S.2     1  LIG1        0.2084
      3 C          -0.7290   -0.5960    0.0000 C.ar    1  LIG1        0.1287
      4 C          -1.0210    0.3500    0.0000 C.ar    1  LIG1        0.0881
      5 C          -0.2460    0.9420    0.0000 C.ar    1  LIG1        0.2991
      6 C          -2.0250    0.3500    0.0000 C.ar    1  LIG1        0.0095
      7 C          -2.3380   -0.5790    0.0000 C.ar    1  LIG1        0.0081
      8 S          -1.5330   -1.1710    0.0000 S.2     1  LIG1       -0.0790
      9 C          -3.2920   -0.8630    0.0000 C.3     1  LIG1        0.0330
     10 C          -3.5210   -1.8250    0.0000 C.3     1  LIG1        0.0056
     11 C           1.5750    0.5960    0.0000 C.3     1  LIG1        0.2599
     12 C           2.2880   -0.1040    0.0000 C.3     1  LIG1        0.0785
     13 C           3.2580    0.1710    0.0000 C.3     1  LIG1        0.0070
     14 C           3.5170    1.1380    0.0000 C.3     1  LIG1        0.0005
     15 C           2.7920    1.8290    0.0000 C.3     1  LIG1        0.0070
     16 C           1.8210    1.5540    0.0000 C.3     1  LIG1        0.0785
@<TRIPOS>BOND
     1     1     2   ar
     2     1     5   ar
     3     1    11    1
     4     2     3   ar
     5     3     4   ar
     6     3     8   ar
     7     4     5   ar
     8     4     6   ar
     9     6     7   ar
    10     7     8   ar
    11     7     9    1
    12     9    10    1
    13    11    12    1
    14    11    16    1
    15    12    13    1
    16    13    14    1
    17    14    15    1
    18    15    16    1
