@<TRIPOS>MOLECULE
27318_ChemDiv_8015-5830
 28 32 0 0 0
SMALL
GASTEIGER
Energy = 0

@<TRIPOS>ATOM
      1 C           2.1580    0.4330    0.0000 C.ar    1  LIG1        0.1300
      2 C           1.2580    0.4460    0.0000 C.ar    1  LIG1        0.1087
      3 C           0.8080   -0.3710    0.0000 C.2     1  LIG1        0.2691
      4 N          -0.1500   -0.3710    0.0000 N.am    1  LIG1       -0.2015
      5 C          -0.6460    0.4460    0.0000 C.3     1  LIG1        0.1154
      6 C          -1.6330    0.4330    0.0000 C.3     1  LIG1        0.0201
      7 C          -2.5460    0.2580    0.0000 C.3     1  LIG1        0.0017
      8 C          -3.3830    0.8000    0.0000 C.3     1  LIG1        0.0001
      9 C          -4.0080   -0.0170    0.0000 C.3     1  LIG1        0.0000
     10 C          -3.1580    0.2080    0.0000 C.3     1  LIG1        0.0001
     11 C          -2.3580   -0.3580    0.0000 C.3     1  LIG1        0.0017
     12 C          -2.9710    1.2380    0.0000 C.3     1  LIG1        0.0000
     13 C          -2.3330    2.0380    0.0000 C.3     1  LIG1        0.0001
     14 C          -1.4830    1.3710    0.0000 C.3     1  LIG1        0.0017
     15 C          -3.2210    1.8210    0.0000 C.3     1  LIG1        0.0000
     16 O           1.2580   -1.1080    0.0000 O.2     1  LIG1       -0.2682
     17 C           0.7170    1.3080    0.0000 C.ar    1  LIG1        0.1592
     18 O           1.2080    2.1960    0.0000 O.2     1  LIG1       -0.3576
     19 N           2.1580    2.1960    0.0000 N.ar    1  LIG1       -0.0771
     20 C          -0.2580    1.2960    0.0000 C.3     1  LIG1        0.0755
     21 C           2.5960   -0.4420    0.0000 C.ar    1  LIG1        0.0591
     22 C           3.5330   -0.4540    0.0000 C.ar    1  LIG1        0.1425
     23 F           4.0040    0.4000    0.0000 F       1  LIG1       -0.2041
     24 C           4.0040   -1.3420    0.0000 C.ar    1  LIG1        0.0297
     25 C           3.4960   -2.1790    0.0000 C.ar    1  LIG1        0.0032
     26 C           2.5330   -2.1920    0.0000 C.ar    1  LIG1        0.0116
     27 C           2.0830   -1.2670    0.0000 C.ar    1  LIG1        0.0614
     28 CL          1.5540   -2.0330    0.0000 Cl      1  LIG1       -0.0821
@<TRIPOS>BOND
     1     1     2   ar
     2     1    19   ar
     3     1    21    1
     4     2     3    1
     5     2    17   ar
     6     3     4   am
     7     3    16    2
     8     4     5    1
     9     5     6    1
    10     6     7    1
    11     6    11    1
    12     6    14    1
    13     7     8    1
    14     8     9    1
    15     8    15    1
    16     9    10    1
    17    10    11    1
    18    10    12    1
    19    12    13    1
    20    13    14    1
    21    13    15    1
    22    17    18   ar
    23    17    20    1
    24    18    19   ar
    25    21    22   ar
    26    21    27   ar
    27    22    23    1
    28    22    24   ar
    29    24    25   ar
    30    25    26   ar
    31    26    27   ar
    32    27    28    1
