@<TRIPOS>MOLECULE
27328_ChemDiv_1798-0060
 26 30 0 0 0
SMALL
GASTEIGER
Energy = 0

@<TRIPOS>ATOM
      1 N           0.4290   -0.4750    0.0000 N.ar    1  LIG1       -0.2588
      2 C           0.4290   -1.4790    0.0000 C.ar    1  LIG1        0.1559
      3 N          -0.4330   -1.9630    0.0000 N.ar    1  LIG1       -0.2272
      4 C          -1.3080   -1.4790    0.0000 C.ar    1  LIG1        0.0875
      5 C          -1.3080   -0.4750    0.0000 C.ar    1  LIG1        0.0742
      6 C          -0.4330    0.0580    0.0000 C.ar    1  LIG1        0.2672
      7 O          -0.4330    1.0830    0.0000 O.2     1  LIG1       -0.2665
      8 C          -2.1830    0.0580    0.0000 C.ar    1  LIG1        0.0063
      9 C          -3.0380   -0.4750    0.0000 C.ar    1  LIG1        0.0003
     10 C          -3.0380   -1.4790    0.0000 C.ar    1  LIG1        0.0015
     11 C          -2.1830   -1.9630    0.0000 C.ar    1  LIG1        0.0193
     12 C           1.3040   -1.9630    0.0000 C.ar    1  LIG1        0.0640
     13 S           1.5880   -2.9290    0.0000 S.2     1  LIG1       -0.0834
     14 C           2.5500   -2.9790    0.0000 C.ar    1  LIG1        0.0355
     15 C           2.9420   -2.1130    0.0000 C.ar    1  LIG1        0.0076
     16 C           2.1580   -1.4420    0.0000 C.ar    1  LIG1        0.0100
     17 C           1.3040    0.0580    0.0000 C.ar    1  LIG1        0.0682
     18 C           1.3040    1.0210    0.0000 C.ar    1  LIG1        0.0163
     19 C           2.1580    1.5670    0.0000 C.ar    1  LIG1        0.0014
     20 C           3.0330    1.0210    0.0000 C.ar    1  LIG1        0.0001
     21 C           3.0330    0.0580    0.0000 C.ar    1  LIG1        0.0015
     22 C           2.1580   -0.4750    0.0000 C.ar    1  LIG1        0.0177
     23 C           2.1500    2.5290    0.0000 C.ar    1  LIG1        0.0000
     24 C           1.2540    2.9830    0.0000 C.ar    1  LIG1        0.0000
     25 C           0.4080    2.4710    0.0000 C.ar    1  LIG1        0.0000
     26 C           0.4080    1.5040    0.0000 C.ar    1  LIG1        0.0014
@<TRIPOS>BOND
     1     1     2   ar
     2     1     6   ar
     3     1    17    1
     4     2     3   ar
     5     2    12    1
     6     3     4   ar
     7     4     5   ar
     8     4    11   ar
     9     5     6   ar
    10     5     8   ar
    11     6     7    2
    12     8     9   ar
    13     9    10   ar
    14    10    11   ar
    15    12    13   ar
    16    12    16   ar
    17    13    14   ar
    18    14    15   ar
    19    15    16   ar
    20    17    18   ar
    21    17    22   ar
    22    18    19   ar
    23    18    26   ar
    24    19    20   ar
    25    19    23   ar
    26    20    21   ar
    27    21    22   ar
    28    23    24   ar
    29    24    25   ar
    30    25    26   ar
