@<TRIPOS>MOLECULE
27320_ChemDiv_8015-6263
 29 32 0 0 0
SMALL
GASTEIGER
Energy = 0

@<TRIPOS>ATOM
      1 C          -3.3630   -0.2880    0.0000 C.ar    1  LIG1        0.1278
      2 C          -2.5580    0.2960    0.0000 C.ar    1  LIG1        0.1087
      3 C          -1.6880   -0.2040    0.0000 C.2     1  LIG1        0.2694
      4 N          -0.8210    0.2960    0.0000 N.am    1  LIG1       -0.1967
      5 C           0.0420   -0.2040    0.0000 C.3     1  LIG1        0.1418
      6 C           0.9040    0.2960    0.0000 C.ar    1  LIG1       -0.0005
      7 C           0.9040    1.2960    0.0000 C.ar    1  LIG1       -0.0013
      8 C           1.7750    1.7960    0.0000 C.ar    1  LIG1        0.0146
      9 C           2.6420    1.2960    0.0000 C.ar    1  LIG1        0.0538
     10 N           3.5040    1.7960    0.0000 N.am    1  LIG1       -0.2586
     11 C           3.6130    2.7920    0.0000 C.2     1  LIG1        0.2294
     12 O           2.7420    3.2920    0.0000 O.2     1  LIG1       -0.2745
     13 C           4.5920    2.9960    0.0000 C.3     1  LIG1        0.0874
     14 C           5.0920    2.1290    0.0000 C.3     1  LIG1        0.0315
     15 C           4.4170    1.3920    0.0000 C.3     1  LIG1        0.0987
     16 C           2.6420    0.2960    0.0000 C.ar    1  LIG1        0.0146
     17 C           1.7750   -0.2040    0.0000 C.ar    1  LIG1       -0.0013
     18 O          -1.6880   -1.2000    0.0000 O.2     1  LIG1       -0.2682
     19 C          -2.8630    1.2460    0.0000 C.ar    1  LIG1        0.1592
     20 O          -3.8630    1.2460    0.0000 O.2     1  LIG1       -0.3576
     21 N          -4.1710    0.2960    0.0000 N.ar    1  LIG1       -0.0772
     22 C          -2.3630    2.1170    0.0000 C.3     1  LIG1        0.0755
     23 C          -3.3630   -1.2880    0.0000 C.ar    1  LIG1        0.0316
     24 C          -4.2330   -1.7880    0.0000 C.ar    1  LIG1        0.0592
     25 CL         -5.0960   -1.2880    0.0000 Cl      1  LIG1       -0.0822
     26 C          -4.2330   -2.7880    0.0000 C.ar    1  LIG1        0.0114
     27 C          -3.3630   -3.2880    0.0000 C.ar    1  LIG1        0.0009
     28 C          -2.4960   -2.7880    0.0000 C.ar    1  LIG1        0.0001
     29 C          -2.4960   -1.7880    0.0000 C.ar    1  LIG1        0.0024
@<TRIPOS>BOND
     1     1     2   ar
     2     1    21   ar
     3     1    23    1
     4     2     3    1
     5     2    19   ar
     6     3     4   am
     7     3    18    2
     8     4     5    1
     9     5     6    1
    10     6     7   ar
    11     6    17   ar
    12     7     8   ar
    13     8     9   ar
    14     9    10    1
    15     9    16   ar
    16    10    11   am
    17    10    15    1
    18    11    12    2
    19    11    13    1
    20    13    14    1
    21    14    15    1
    22    16    17   ar
    23    19    20   ar
    24    19    22    1
    25    20    21   ar
    26    23    24   ar
    27    23    29   ar
    28    24    25    1
    29    24    26   ar
    30    26    27   ar
    31    27    28   ar
    32    28    29   ar
