@<TRIPOS>MOLECULE
27334_ChemDiv_1822-0385
 19 22 0 0 0
SMALL
GASTEIGER
Energy = 0

@<TRIPOS>ATOM
      1 C          -0.3000    0.5500    0.0000 C.ar    1  LIG1        0.0738
      2 C           0.5630    0.0500    0.0000 C.ar    1  LIG1        0.1518
      3 O           0.5630   -0.9580    0.0000 O.2     1  LIG1       -0.4209
      4 C          -0.3000   -1.4540    0.0000 C.ar    1  LIG1        0.3457
      5 C          -1.1670   -0.9580    0.0000 C.ar    1  LIG1        0.0762
      6 C          -1.1670    0.0500    0.0000 C.ar    1  LIG1        0.0123
      7 C          -2.0330    0.5500    0.0000 C.ar    1  LIG1        0.0004
      8 C          -2.8920    0.0500    0.0000 C.ar    1  LIG1        0.0000
      9 C          -2.8920   -0.9580    0.0000 C.ar    1  LIG1        0.0002
     10 C          -2.0330   -1.4540    0.0000 C.ar    1  LIG1        0.0065
     11 O          -0.3000   -2.4500    0.0000 O.2     1  LIG1       -0.2445
     12 C           1.3210    0.7290    0.0000 C.ar    1  LIG1        0.0379
     13 C           0.9000    1.6210    0.0000 C.ar    1  LIG1        0.0420
     14 C          -0.0790    1.5420    0.0000 C.2     1  LIG1        0.1986
     15 O          -0.7040    2.3130    0.0000 O.2     1  LIG1       -0.2865
     16 C           1.4580    2.4540    0.0000 C.ar    1  LIG1        0.0033
     17 C           2.4580    2.3710    0.0000 C.ar    1  LIG1        0.0001
     18 C           2.8880    1.4540    0.0000 C.ar    1  LIG1        0.0001
     19 C           2.3210    0.6380    0.0000 C.ar    1  LIG1        0.0031
@<TRIPOS>BOND
     1     1     2   ar
     2     1     6   ar
     3     1    14    1
     4     2     3   ar
     5     2    12    1
     6     3     4   ar
     7     4     5   ar
     8     4    11    2
     9     5     6   ar
    10     5    10   ar
    11     6     7   ar
    12     7     8   ar
    13     8     9   ar
    14     9    10   ar
    15    12    13   ar
    16    12    19   ar
    17    13    14    1
    18    13    16   ar
    19    14    15    2
    20    16    17   ar
    21    17    18   ar
    22    18    19   ar
