@<TRIPOS>MOLECULE
27335_ChemDiv_1743-0156
 20 22 0 0 0
SMALL
GASTEIGER
Energy = 0

@<TRIPOS>ATOM
      1 C           0.9330    1.3420    0.0000 C.ar    1  LIG1        0.1031
      2 C           0.9330    2.3540    0.0000 C.ar    1  LIG1        0.1790
      3 N           0.0750    2.8420    0.0000 N.ar    1  LIG1       -0.2313
      4 C          -0.8040    2.3290    0.0000 C.ar    1  LIG1        0.0602
      5 C          -0.8040    1.3420    0.0000 C.ar    1  LIG1        0.0155
      6 C           0.0750    0.8460    0.0000 C.ar    1  LIG1        0.0136
      7 C           0.0750   -0.1460    0.0000 C.ar    1  LIG1        0.0010
      8 C          -0.7830   -0.6540    0.0000 C.ar    1  LIG1        0.0031
      9 C          -0.7830   -1.6710    0.0000 C.ar    1  LIG1        0.0369
     10 C           0.0920   -2.1580    0.0000 C.ar    1  LIG1        0.1387
     11 C           0.9500   -1.6460    0.0000 C.ar    1  LIG1        0.0369
     12 C           0.9500   -0.6540    0.0000 C.ar    1  LIG1        0.0031
     13 O           0.0920   -3.1540    0.0000 O.3     1  LIG1       -0.4714
     14 C           0.9500   -3.6580    0.0000 C.3     1  LIG1        0.2525
     15 C          -1.6830    2.8170    0.0000 C.3     1  LIG1        0.0403
     16 C          -2.1880    3.6630    0.0000 C.3     1  LIG1        0.0063
     17 C          -2.6750    2.8080    0.0000 C.3     1  LIG1        0.0063
     18 N           1.7920    2.8790    0.0000 N.pl3   1  LIG1       -0.1065
     19 C           1.8130    0.8290    0.0000 C.1     1  LIG1        0.1033
     20 N           2.6710    0.3040    0.0000 N.1     1  LIG1       -0.1907
@<TRIPOS>BOND
     1     1     2   ar
     2     1     6   ar
     3     1    19    1
     4     2     3   ar
     5     2    18    1
     6     3     4   ar
     7     4     5   ar
     8     4    15    1
     9     5     6   ar
    10     6     7    1
    11     7     8   ar
    12     7    12   ar
    13     8     9   ar
    14     9    10   ar
    15    10    11   ar
    16    10    13    1
    17    11    12   ar
    18    13    14    1
    19    15    16    1
    20    15    17    1
    21    16    17    1
    22    19    20    3
