@<TRIPOS>MOLECULE
27338_ChemDiv_1822-0552
 16 18 0 0 0
SMALL
GASTEIGER
Energy = 0

@<TRIPOS>ATOM
      1 C          -1.8420    0.5040    0.0000 C.ar    1  LIG1        0.1763
      2 C          -1.8420   -0.5000    0.0000 C.ar    1  LIG1        0.1764
      3 O          -2.7960   -0.8170    0.0000 O.3     1  LIG1       -0.4346
      4 C          -3.3750    0.0080    0.0000 C.3     1  LIG1        0.4294
      5 O          -2.7960    0.8000    0.0000 O.3     1  LIG1       -0.4346
      6 C          -1.0040   -1.0000    0.0000 C.ar    1  LIG1        0.0401
      7 C          -0.1290   -0.5000    0.0000 C.ar    1  LIG1        0.0048
      8 C          -0.1290    0.5040    0.0000 C.ar    1  LIG1        0.0376
      9 C          -1.0040    1.0040    0.0000 C.ar    1  LIG1        0.0416
     10 C           0.7670    1.0040    0.0000 C.3     1  LIG1        0.1664
     11 N           1.6380    0.5040    0.0000 N.4     1  LIG1        0.3830
     12 C           2.5080    1.0040    0.0000 C.3     1  LIG1        0.1582
     13 C           3.3710    0.5040    0.0000 C.3     1  LIG1        0.1514
     14 N           3.3710   -0.5000    0.0000 N.3     1  LIG1       -0.2055
     15 C           2.5080   -1.0000    0.0000 C.3     1  LIG1        0.1514
     16 C           1.6380   -0.5000    0.0000 C.3     1  LIG1        0.1582
@<TRIPOS>BOND
     1     1     2   ar
     2     1     5    1
     3     1     9   ar
     4     2     3    1
     5     2     6   ar
     6     3     4    1
     7     4     5    1
     8     6     7   ar
     9     7     8   ar
    10     8     9   ar
    11     8    10    1
    12    10    11    1
    13    11    12    1
    14    11    16    1
    15    12    13    1
    16    13    14    1
    17    14    15    1
    18    15    16    1
