@<TRIPOS>MOLECULE
27333_ChemDiv_1743-0078
 19 21 0 0 0
SMALL
GASTEIGER
Energy = 0

@<TRIPOS>ATOM
      1 C           0.9130    0.5790    0.0000 C.ar    1  LIG1        0.1031
      2 C           0.0380    0.0920    0.0000 C.ar    1  LIG1        0.0145
      3 C          -0.8290    0.5790    0.0000 C.ar    1  LIG1        0.0155
      4 C          -0.8290    1.5830    0.0000 C.ar    1  LIG1        0.0602
      5 N           0.0380    2.0710    0.0000 N.ar    1  LIG1       -0.2313
      6 C           0.9130    1.5830    0.0000 C.ar    1  LIG1        0.1790
      7 N           1.7630    2.0830    0.0000 N.pl3   1  LIG1       -0.1065
      8 C          -1.6880    2.0830    0.0000 C.3     1  LIG1        0.0403
      9 C          -2.1750    2.9380    0.0000 C.3     1  LIG1        0.0063
     10 C          -2.6880    2.0960    0.0000 C.3     1  LIG1        0.0063
     11 C           0.0380   -0.9170    0.0000 C.ar    1  LIG1        0.0114
     12 C          -0.8290   -1.4420    0.0000 C.ar    1  LIG1        0.0577
     13 CL         -1.7000   -0.9920    0.0000 Cl      1  LIG1       -0.0822
     14 C          -0.8290   -2.4170    0.0000 C.ar    1  LIG1        0.0114
     15 C           0.0380   -2.9330    0.0000 C.ar    1  LIG1        0.0009
     16 C           0.9130   -2.4170    0.0000 C.ar    1  LIG1        0.0001
     17 C           0.9130   -1.4420    0.0000 C.ar    1  LIG1        0.0009
     18 C           1.7790    0.0920    0.0000 C.1     1  LIG1        0.1033
     19 N           2.6830   -0.4380    0.0000 N.1     1  LIG1       -0.1907
@<TRIPOS>BOND
     1     1     2   ar
     2     1     6   ar
     3     1    18    1
     4     2     3   ar
     5     2    11    1
     6     3     4   ar
     7     4     5   ar
     8     4     8    1
     9     5     6   ar
    10     6     7    1
    11     8     9    1
    12     8    10    1
    13     9    10    1
    14    11    12   ar
    15    11    17   ar
    16    12    13    1
    17    12    14   ar
    18    14    15   ar
    19    15    16   ar
    20    16    17   ar
    21    18    19    3
