@<TRIPOS>MOLECULE
27339_ChemDiv_3483-0404
 20 21 0 0 0
SMALL
GASTEIGER
Energy = 0

@<TRIPOS>ATOM
      1 C           0.7630   -0.8710    0.0000 C.ar    1  LIG1        0.1031
      2 C           1.7630   -0.8710    0.0000 C.ar    1  LIG1        0.1790
      3 N           2.2580   -0.0250    0.0000 N.ar    1  LIG1       -0.2313
      4 C           1.7630    0.8630    0.0000 C.ar    1  LIG1        0.0605
      5 C           0.7750    0.8630    0.0000 C.ar    1  LIG1        0.0155
      6 C           0.2790   -0.0250    0.0000 C.ar    1  LIG1        0.0136
      7 C          -0.7210    0.0000    0.0000 C.ar    1  LIG1        0.0008
      8 C          -1.2290   -0.8710    0.0000 C.ar    1  LIG1       -0.0003
      9 C          -2.2330   -0.8580    0.0000 C.ar    1  LIG1       -0.0043
     10 C          -2.7420    0.0000    0.0000 C.ar    1  LIG1       -0.0218
     11 C          -2.2290    0.8920    0.0000 C.ar    1  LIG1       -0.0043
     12 C          -1.2290    0.8630    0.0000 C.ar    1  LIG1       -0.0003
     13 C          -3.7540    0.0000    0.0000 C.3     1  LIG1        0.0310
     14 C           2.2460    1.7290    0.0000 C.3     1  LIG1        0.0458
     15 C           3.2500    1.7210    0.0000 C.3     1  LIG1        0.0059
     16 C           3.7500    2.5880    0.0000 C.3     1  LIG1        0.0004
     17 C           3.7500    0.8630    0.0000 C.3     1  LIG1        0.0004
     18 N           2.2580   -1.7380    0.0000 N.pl3   1  LIG1       -0.1065
     19 C           0.2790   -1.7170    0.0000 C.1     1  LIG1        0.1033
     20 N          -0.2380   -2.5830    0.0000 N.1     1  LIG1       -0.1907
@<TRIPOS>BOND
     1     1     2   ar
     2     1     6   ar
     3     1    19    1
     4     2     3   ar
     5     2    18    1
     6     3     4   ar
     7     4     5   ar
     8     4    14    1
     9     5     6   ar
    10     6     7    1
    11     7     8   ar
    12     7    12   ar
    13     8     9   ar
    14     9    10   ar
    15    10    11   ar
    16    10    13    1
    17    11    12   ar
    18    14    15    1
    19    15    16    1
    20    15    17    1
    21    19    20    3
