@<TRIPOS>MOLECULE
27336_ChemDiv_3448-0338
 24 26 0 0 0
SMALL
GASTEIGER
Energy = 0

@<TRIPOS>ATOM
      1 C           1.4830   -0.9000    0.0000 C.ar    1  LIG1        0.1536
      2 C           0.9710   -1.7630    0.0000 C.ar    1  LIG1        0.3520
      3 O          -0.0170   -1.7630    0.0000 O.2     1  LIG1       -0.4208
      4 C          -0.5250   -0.9000    0.0000 C.ar    1  LIG1        0.1519
      5 C          -0.0170   -0.0420    0.0000 C.ar    1  LIG1        0.0799
      6 C           0.9710   -0.0420    0.0000 C.ar    1  LIG1        0.2081
      7 O           1.4630    0.8210    0.0000 O.3     1  LIG1       -0.2861
      8 C          -1.5250   -0.9000    0.0000 C.ar    1  LIG1        0.0348
      9 C          -2.0290   -0.0420    0.0000 C.ar    1  LIG1        0.0039
     10 C          -3.0290   -0.0420    0.0000 C.ar    1  LIG1        0.0115
     11 C          -3.5380   -0.9000    0.0000 C.ar    1  LIG1        0.0577
     12 C          -3.0290   -1.7630    0.0000 C.ar    1  LIG1        0.0115
     13 C          -2.0290   -1.7630    0.0000 C.ar    1  LIG1        0.0039
     14 CL         -4.5290   -0.9000    0.0000 Cl      1  LIG1       -0.0822
     15 O           1.4630   -2.6210    0.0000 O.2     1  LIG1       -0.2443
     16 C           2.4710   -0.9000    0.0000 C.2     1  LIG1        0.2050
     17 C           3.0170    0.0040    0.0000 C.ar    1  LIG1        0.0393
     18 C           2.5130    0.8790    0.0000 C.ar    1  LIG1        0.0040
     19 C           3.0290    1.7500    0.0000 C.ar    1  LIG1        0.0115
     20 C           4.0130    1.7500    0.0000 C.ar    1  LIG1        0.0577
     21 C           4.5250    0.8790    0.0000 C.ar    1  LIG1        0.0115
     22 C           4.0130    0.0040    0.0000 C.ar    1  LIG1        0.0040
     23 CL          4.4960    2.6250    0.0000 Cl      1  LIG1       -0.0822
     24 O           2.9670   -1.7540    0.0000 O.2     1  LIG1       -0.2862
@<TRIPOS>BOND
     1     1     2   ar
     2     1     6   ar
     3     1    16    1
     4     2     3   ar
     5     2    15    2
     6     3     4   ar
     7     4     5   ar
     8     4     8    1
     9     5     6   ar
    10     6     7    1
    11     8     9   ar
    12     8    13   ar
    13     9    10   ar
    14    10    11   ar
    15    11    12   ar
    16    11    14    1
    17    12    13   ar
    18    16    17    1
    19    16    24    2
    20    17    18   ar
    21    17    22   ar
    22    18    19   ar
    23    19    20   ar
    24    20    21   ar
    25    20    23    1
    26    21    22   ar
