@<TRIPOS>MOLECULE
27343_ChemDiv_6233-0355
 19 21 0 0 0
SMALL
GASTEIGER
Energy = 0

@<TRIPOS>ATOM
      1 C           0.9040   -0.9130    0.0000 C.ar    1  LIG1        0.1028
      2 C           0.9040   -1.9420    0.0000 C.ar    1  LIG1        0.1790
      3 N           0.0380   -2.4380    0.0000 N.ar    1  LIG1       -0.2316
      4 C          -0.8170   -1.9420    0.0000 C.ar    1  LIG1        0.0565
      5 C          -0.8330   -0.9170    0.0000 C.ar    1  LIG1       -0.0078
      6 C           0.0330   -0.5040    0.0000 C.ar    1  LIG1        0.0097
      7 C           0.0210    0.4830    0.0000 C.ar    1  LIG1        0.0036
      8 C          -0.8330    0.9790    0.0000 C.ar    1  LIG1        0.0207
      9 C          -0.8380    1.9750    0.0000 C.ar    1  LIG1        0.0989
     10 N           0.0080    2.4710    0.0000 N.ar    1  LIG1       -0.2423
     11 C           0.8750    1.9880    0.0000 C.ar    1  LIG1        0.0989
     12 C           0.8830    0.9880    0.0000 C.ar    1  LIG1        0.0207
     13 C          -1.6830   -0.4960    0.0000 C.3     1  LIG1        0.0276
     14 C          -2.6000   -0.9460    0.0000 C.3     1  LIG1        0.0051
     15 C          -2.5790   -1.9710    0.0000 C.3     1  LIG1        0.0066
     16 C          -1.6830   -2.4670    0.0000 C.3     1  LIG1        0.0455
     17 N           1.7710   -2.4380    0.0000 N.pl3   1  LIG1       -0.1065
     18 C           1.5420   -0.4500    0.0000 C.1     1  LIG1        0.1033
     19 N           2.5960    0.2750    0.0000 N.1     1  LIG1       -0.1907
@<TRIPOS>BOND
     1     1     2   ar
     2     1     6   ar
     3     1    18    1
     4     2     3   ar
     5     2    17    1
     6     3     4   ar
     7     4     5   ar
     8     4    16    1
     9     5     6   ar
    10     5    13    1
    11     6     7    1
    12     7     8   ar
    13     7    12   ar
    14     8     9   ar
    15     9    10   ar
    16    10    11   ar
    17    11    12   ar
    18    13    14    1
    19    14    15    1
    20    15    16    1
    21    18    19    3
