@<TRIPOS>MOLECULE
27341_ChemDiv_3829-0613
 24 27 0 0 0
SMALL
GASTEIGER
Energy = 0

@<TRIPOS>ATOM
      1 C           1.2040   -1.4460    0.0000 C.ar    1  LIG1        0.1028
      2 C           0.3380   -0.9580    0.0000 C.ar    1  LIG1        0.0097
      3 C           0.3380    0.0540    0.0000 C.ar    1  LIG1        0.0037
      4 C           1.2040    0.5630    0.0000 C.ar    1  LIG1        0.0402
      5 C           1.2040    1.5630    0.0000 C.ar    1  LIG1        0.1764
      6 C           0.3380    2.0630    0.0000 C.ar    1  LIG1        0.1764
      7 O           0.5330    3.0040    0.0000 O.3     1  LIG1       -0.4346
      8 C           1.5080    3.1580    0.0000 C.3     1  LIG1        0.4294
      9 O           1.9460    2.2210    0.0000 O.3     1  LIG1       -0.4346
     10 C          -0.5330    1.5630    0.0000 C.ar    1  LIG1        0.0402
     11 C          -0.5330    0.5630    0.0000 C.ar    1  LIG1        0.0033
     12 C          -0.5330   -1.4460    0.0000 C.ar    1  LIG1       -0.0078
     13 C          -0.5330   -2.4540    0.0000 C.ar    1  LIG1        0.0565
     14 N           0.3380   -2.9460    0.0000 N.ar    1  LIG1       -0.2316
     15 C           1.2040   -2.4540    0.0000 C.ar    1  LIG1        0.1790
     16 N           2.0670   -2.9670    0.0000 N.pl3   1  LIG1       -0.1065
     17 C          -1.2500   -3.1540    0.0000 C.3     1  LIG1        0.0455
     18 C          -2.2420   -3.1540    0.0000 C.3     1  LIG1        0.0063
     19 C          -2.9380   -2.4540    0.0000 C.3     1  LIG1        0.0004
     20 C          -2.9380   -1.4460    0.0000 C.3     1  LIG1        0.0004
     21 C          -2.2420   -0.7460    0.0000 C.3     1  LIG1        0.0047
     22 C          -1.2500   -0.7460    0.0000 C.3     1  LIG1        0.0276
     23 C           2.0670   -0.9380    0.0000 C.1     1  LIG1        0.1033
     24 N           2.9330   -0.4290    0.0000 N.1     1  LIG1       -0.1907
@<TRIPOS>BOND
     1     1     2   ar
     2     1    15   ar
     3     1    23    1
     4     2     3    1
     5     2    12   ar
     6     3     4   ar
     7     3    11   ar
     8     4     5   ar
     9     5     6   ar
    10     5     9    1
    11     6     7    1
    12     6    10   ar
    13     7     8    1
    14     8     9    1
    15    10    11   ar
    16    12    13   ar
    17    12    22    1
    18    13    14   ar
    19    13    17    1
    20    14    15   ar
    21    15    16    1
    22    17    18    1
    23    18    19    1
    24    19    20    1
    25    20    21    1
    26    21    22    1
    27    23    24    3
