@<TRIPOS>MOLECULE
27340_ChemDiv_2294-0552
 30 33 0 0 0
SMALL
GASTEIGER
Energy = 0

@<TRIPOS>ATOM
      1 N           1.5170    2.5880    0.0000 N.am    1  LIG1       -0.2645
      2 C           2.5250    2.5880    0.0000 C.2     1  LIG1        0.2495
      3 C           3.0170    1.7290    0.0000 C.2     1  LIG1        0.0580
      4 C           2.5250    0.8630    0.0000 C.2     1  LIG1        0.0048
      5 C           3.0170    0.0000    0.0000 C.ar    1  LIG1        0.0034
      6 C           2.5250   -0.8580    0.0000 C.ar    1  LIG1        0.0400
      7 C           3.0170   -1.7290    0.0000 C.ar    1  LIG1        0.1724
      8 C           4.0460   -1.7290    0.0000 C.ar    1  LIG1        0.1724
      9 C           4.5250   -0.8580    0.0000 C.ar    1  LIG1        0.0400
     10 C           4.0460    0.0000    0.0000 C.ar    1  LIG1        0.0033
     11 O           4.5580   -2.5920    0.0000 O.3     1  LIG1       -0.4684
     12 C           4.0790   -3.4580    0.0000 C.3     1  LIG1        0.2526
     13 O           2.5040   -2.5920    0.0000 O.3     1  LIG1       -0.4684
     14 C           2.9830   -3.4580    0.0000 C.3     1  LIG1        0.2526
     15 O           3.0170    3.4630    0.0000 O.2     1  LIG1       -0.2699
     16 C           1.0380    3.4630    0.0000 C.3     1  LIG1        0.1567
     17 C           0.0040    3.4630    0.0000 C.3     1  LIG1        0.1610
     18 N          -0.5000    2.5880    0.0000 N.4     1  LIG1        0.3834
     19 C          -1.4960    2.5880    0.0000 C.3     1  LIG1        0.1664
     20 C          -2.0000    1.7290    0.0000 C.ar    1  LIG1        0.0376
     21 C          -2.9960    1.7290    0.0000 C.ar    1  LIG1        0.0416
     22 C          -3.5170    0.8630    0.0000 C.ar    1  LIG1        0.1763
     23 C          -2.9960    0.0000    0.0000 C.ar    1  LIG1        0.1764
     24 O          -3.7000   -0.7380    0.0000 O.3     1  LIG1       -0.4346
     25 C          -4.5630   -0.3500    0.0000 C.3     1  LIG1        0.4294
     26 O          -4.4750    0.6420    0.0000 O.3     1  LIG1       -0.4346
     27 C          -2.0000    0.0000    0.0000 C.ar    1  LIG1        0.0401
     28 C          -1.4960    0.8630    0.0000 C.ar    1  LIG1        0.0048
     29 C           0.0040    1.7290    0.0000 C.3     1  LIG1        0.1610
     30 C           1.0380    1.7290    0.0000 C.3     1  LIG1        0.1567
@<TRIPOS>BOND
     1     1     2   am
     2     1    16    1
     3     1    30    1
     4     2     3    1
     5     2    15    2
     6     3     4    2
     7     4     5    1
     8     5     6   ar
     9     5    10   ar
    10     6     7   ar
    11     7     8   ar
    12     7    13    1
    13     8     9   ar
    14     8    11    1
    15     9    10   ar
    16    11    12    1
    17    13    14    1
    18    16    17    1
    19    17    18    1
    20    18    19    1
    21    18    29    1
    22    19    20    1
    23    20    21   ar
    24    20    28   ar
    25    21    22   ar
    26    22    23   ar
    27    22    26    1
    28    23    24    1
    29    23    27   ar
    30    24    25    1
    31    25    26    1
    32    27    28   ar
    33    29    30    1
