@<TRIPOS>MOLECULE
27365_ChemDiv_6233-1094
 20 22 0 0 0
SMALL
GASTEIGER
Energy = 0

@<TRIPOS>ATOM
      1 C           0.4880    0.3460    0.0000 C.ar    1  LIG1        0.1453
      2 C           0.5080   -0.6630    0.0000 C.ar    1  LIG1        0.0442
      3 C           1.4290   -1.0920    0.0000 C.ar    1  LIG1        0.1057
      4 C           1.4290   -2.1630    0.0000 C.ar    1  LIG1        0.1791
      5 N           0.5210   -2.6880    0.0000 N.ar    1  LIG1       -0.2316
      6 C          -0.3830   -2.1540    0.0000 C.ar    1  LIG1        0.0566
      7 C          -0.3830   -1.1290    0.0000 C.ar    1  LIG1       -0.0049
      8 C          -1.2330   -0.7000    0.0000 C.3     1  LIG1        0.0277
      9 C          -2.1630   -1.1380    0.0000 C.3     1  LIG1        0.0048
     10 C          -2.1460   -2.1630    0.0000 C.3     1  LIG1        0.0066
     11 C          -1.2580   -2.6710    0.0000 C.3     1  LIG1        0.0455
     12 C          -3.0130   -0.5960    0.0000 C.3     1  LIG1        0.0004
     13 N           2.3420   -2.6880    0.0000 N.pl3   1  LIG1       -0.1065
     14 C           2.2380   -0.8670    0.0000 C.1     1  LIG1        0.1034
     15 N           3.0080   -0.7330    0.0000 N.1     1  LIG1       -0.1907
     16 O          -0.3500    0.9290    0.0000 O.2     1  LIG1       -0.4577
     17 C          -0.0630    1.8880    0.0000 C.ar    1  LIG1        0.1233
     18 C           0.9460    1.9210    0.0000 C.ar    1  LIG1        0.0361
     19 C           1.2790    0.9670    0.0000 C.ar    1  LIG1        0.0403
     20 C          -0.6710    2.6920    0.0000 C.3     1  LIG1        0.0725
@<TRIPOS>BOND
     1     1     2    1
     2     1    16   ar
     3     1    19   ar
     4     2     3   ar
     5     2     7   ar
     6     3     4   ar
     7     3    14    1
     8     4     5   ar
     9     4    13    1
    10     5     6   ar
    11     6     7   ar
    12     6    11    1
    13     7     8    1
    14     8     9    1
    15     9    10    1
    16     9    12    1
    17    10    11    1
    18    14    15    3
    19    16    17   ar
    20    17    18   ar
    21    17    20    1
    22    18    19   ar
