@<TRIPOS>MOLECULE
27361_ChemDiv_6233-0418
 19 21 0 0 0
SMALL
GASTEIGER
Energy = 0

@<TRIPOS>ATOM
      1 C           0.0580    0.3500    0.0000 C.ar    1  LIG1        0.1453
      2 C           0.0750   -0.6580    0.0000 C.ar    1  LIG1        0.0442
      3 C           1.0040   -1.0830    0.0000 C.ar    1  LIG1        0.1057
      4 C           1.0040   -2.1670    0.0000 C.ar    1  LIG1        0.1791
      5 N           0.0960   -2.6830    0.0000 N.ar    1  LIG1       -0.2316
      6 C          -0.8130   -2.1540    0.0000 C.ar    1  LIG1        0.0566
      7 C          -0.8130   -1.1250    0.0000 C.ar    1  LIG1       -0.0049
      8 C          -1.6710   -0.6960    0.0000 C.3     1  LIG1        0.0277
      9 C          -2.5830   -1.1290    0.0000 C.3     1  LIG1        0.0051
     10 C          -2.5790   -2.1670    0.0000 C.3     1  LIG1        0.0066
     11 C          -1.6880   -2.6670    0.0000 C.3     1  LIG1        0.0455
     12 N           1.9080   -2.6830    0.0000 N.pl3   1  LIG1       -0.1065
     13 C           1.8080   -0.8710    0.0000 C.1     1  LIG1        0.1034
     14 N           2.5790   -0.7330    0.0000 N.1     1  LIG1       -0.1907
     15 O          -0.7790    0.9290    0.0000 O.2     1  LIG1       -0.4577
     16 C          -0.4880    1.8920    0.0000 C.ar    1  LIG1        0.1233
     17 C           0.5250    1.9210    0.0000 C.ar    1  LIG1        0.0361
     18 C           0.8500    0.9670    0.0000 C.ar    1  LIG1        0.0403
     19 C          -1.1040    2.6880    0.0000 C.3     1  LIG1        0.0725
@<TRIPOS>BOND
     1     1     2    1
     2     1    15   ar
     3     1    18   ar
     4     2     3   ar
     5     2     7   ar
     6     3     4   ar
     7     3    13    1
     8     4     5   ar
     9     4    12    1
    10     5     6   ar
    11     6     7   ar
    12     6    11    1
    13     7     8    1
    14     8     9    1
    15     9    10    1
    16    10    11    1
    17    13    14    3
    18    15    16   ar
    19    16    17   ar
    20    16    19    1
    21    17    18   ar
