@<TRIPOS>MOLECULE
27367_ChemDiv_6233-5058
 22 24 0 0 0
SMALL
GASTEIGER
Energy = 0

@<TRIPOS>ATOM
      1 C           1.3040   -0.9790    0.0000 C.ar    1  LIG1        0.1032
      2 C           0.4250   -0.4830    0.0000 C.ar    1  LIG1        0.0151
      3 C          -0.4380   -0.9960    0.0000 C.ar    1  LIG1        0.0144
      4 C          -0.4380   -1.9830    0.0000 C.ar    1  LIG1        0.0609
      5 N           0.4250   -2.4960    0.0000 N.ar    1  LIG1       -0.2313
      6 C           1.3040   -1.9960    0.0000 C.ar    1  LIG1        0.1790
      7 N           2.1710   -2.4960    0.0000 N.pl3   1  LIG1       -0.1065
      8 C          -1.3000   -2.4830    0.0000 C.3     1  LIG1        0.0521
      9 C          -1.3000   -0.5000    0.0000 C.ar    1  LIG1        0.0012
     10 C          -1.3040    0.4960    0.0000 C.ar    1  LIG1        0.0000
     11 C          -2.1670    0.9920    0.0000 C.ar    1  LIG1        0.0000
     12 C          -3.0380    0.4880    0.0000 C.ar    1  LIG1        0.0000
     13 C          -3.0250   -0.5170    0.0000 C.ar    1  LIG1        0.0000
     14 C          -2.1580   -1.0080    0.0000 C.ar    1  LIG1        0.0000
     15 C           0.4250    0.5040    0.0000 C.ar    1  LIG1        0.0200
     16 C          -0.4380    1.0040    0.0000 C.ar    1  LIG1        0.0989
     17 N          -0.4540    2.0000    0.0000 N.ar    1  LIG1       -0.2423
     18 C           0.4130    2.5000    0.0000 C.ar    1  LIG1        0.0989
     19 C           1.2880    2.0170    0.0000 C.ar    1  LIG1        0.0207
     20 C           1.2880    1.0170    0.0000 C.ar    1  LIG1        0.0032
     21 C           2.1710   -0.4830    0.0000 C.1     1  LIG1        0.1033
     22 N           3.0330    0.0170    0.0000 N.1     1  LIG1       -0.1907
@<TRIPOS>BOND
     1     1     2   ar
     2     1     6   ar
     3     1    21    1
     4     2     3   ar
     5     2    15    1
     6     3     4   ar
     7     3     9    1
     8     4     5   ar
     9     4     8    1
    10     5     6   ar
    11     6     7    1
    12     9    10   ar
    13     9    14   ar
    14    10    11   ar
    15    11    12   ar
    16    12    13   ar
    17    13    14   ar
    18    15    16   ar
    19    15    20   ar
    20    16    17   ar
    21    17    18   ar
    22    18    19   ar
    23    19    20   ar
    24    21    22    3
