@<TRIPOS>MOLECULE
27369_ChemDiv_6233-5122
 21 23 0 0 0
SMALL
GASTEIGER
Energy = 0

@<TRIPOS>ATOM
      1 C           1.3040   -0.7630    0.0000 C.ar    1  LIG1        0.1036
      2 C           0.4250   -0.2670    0.0000 C.ar    1  LIG1        0.0196
      3 C          -0.4380   -0.7750    0.0000 C.ar    1  LIG1        0.0148
      4 C          -0.4380   -1.7710    0.0000 C.ar    1  LIG1        0.0609
      5 N           0.4250   -2.2710    0.0000 N.ar    1  LIG1       -0.2313
      6 C           1.3040   -1.7710    0.0000 C.ar    1  LIG1        0.1790
      7 N           2.1710   -2.2710    0.0000 N.pl3   1  LIG1       -0.1065
      8 C          -1.3000   -2.2670    0.0000 C.3     1  LIG1        0.0521
      9 C          -1.3000   -0.2790    0.0000 C.ar    1  LIG1        0.0012
     10 C          -1.3040    0.7170    0.0000 C.ar    1  LIG1        0.0000
     11 C          -2.1670    1.2130    0.0000 C.ar    1  LIG1        0.0000
     12 C          -3.0380    0.7080    0.0000 C.ar    1  LIG1        0.0000
     13 C          -3.0250   -0.2960    0.0000 C.ar    1  LIG1        0.0000
     14 C          -2.1580   -0.7880    0.0000 C.ar    1  LIG1        0.0000
     15 C           0.4250    0.7330    0.0000 C.ar    1  LIG1        0.0303
     16 S          -0.3750    1.3250    0.0000 S.2     1  LIG1       -0.0864
     17 C          -0.0710    2.2710    0.0000 C.ar    1  LIG1        0.0354
     18 C           0.9290    2.2750    0.0000 C.ar    1  LIG1        0.0075
     19 C           1.2330    1.3250    0.0000 C.ar    1  LIG1        0.0070
     20 C           2.1710   -0.2670    0.0000 C.1     1  LIG1        0.1034
     21 N           3.0330    0.2330    0.0000 N.1     1  LIG1       -0.1907
@<TRIPOS>BOND
     1     1     2   ar
     2     1     6   ar
     3     1    20    1
     4     2     3   ar
     5     2    15    1
     6     3     4   ar
     7     3     9    1
     8     4     5   ar
     9     4     8    1
    10     5     6   ar
    11     6     7    1
    12     9    10   ar
    13     9    14   ar
    14    10    11   ar
    15    11    12   ar
    16    12    13   ar
    17    13    14   ar
    18    15    16   ar
    19    15    19   ar
    20    16    17   ar
    21    17    18   ar
    22    18    19   ar
    23    20    21    3
