@<TRIPOS>MOLECULE
27363_ChemDiv_6233-1031
 20 22 0 0 0
SMALL
GASTEIGER
Energy = 0

@<TRIPOS>ATOM
      1 C           1.3380   -0.9130    0.0000 C.ar    1  LIG1        0.1028
      2 C           0.4630   -0.4960    0.0000 C.ar    1  LIG1        0.0097
      3 C          -0.4130   -0.9170    0.0000 C.ar    1  LIG1       -0.0078
      4 C          -0.3830   -1.9420    0.0000 C.ar    1  LIG1        0.0565
      5 N           0.4750   -2.4380    0.0000 N.ar    1  LIG1       -0.2316
      6 C           1.3380   -1.9420    0.0000 C.ar    1  LIG1        0.1790
      7 N           2.1960   -2.4380    0.0000 N.pl3   1  LIG1       -0.1065
      8 C          -1.2540   -2.4670    0.0000 C.3     1  LIG1        0.0455
      9 C          -2.1540   -1.9710    0.0000 C.3     1  LIG1        0.0066
     10 C          -2.1710   -0.9460    0.0000 C.3     1  LIG1        0.0048
     11 C          -1.2540   -0.4960    0.0000 C.3     1  LIG1        0.0276
     12 C          -3.0290   -0.4380    0.0000 C.3     1  LIG1        0.0004
     13 C           0.4460    0.4830    0.0000 C.ar    1  LIG1        0.0036
     14 C          -0.4130    0.9790    0.0000 C.ar    1  LIG1        0.0207
     15 C          -0.4130    1.9710    0.0000 C.ar    1  LIG1        0.0989
     16 N           0.4460    2.4710    0.0000 N.ar    1  LIG1       -0.2423
     17 C           1.3040    1.9830    0.0000 C.ar    1  LIG1        0.0989
     18 C           1.3170    0.9880    0.0000 C.ar    1  LIG1        0.0207
     19 C           1.9790   -0.4500    0.0000 C.1     1  LIG1        0.1033
     20 N           3.0250    0.2710    0.0000 N.1     1  LIG1       -0.1907
@<TRIPOS>BOND
     1     1     2   ar
     2     1     6   ar
     3     1    19    1
     4     2     3   ar
     5     2    13    1
     6     3     4   ar
     7     3    11    1
     8     4     5   ar
     9     4     8    1
    10     5     6   ar
    11     6     7    1
    12     8     9    1
    13     9    10    1
    14    10    11    1
    15    10    12    1
    16    13    14   ar
    17    13    18   ar
    18    14    15   ar
    19    15    16   ar
    20    16    17   ar
    21    17    18   ar
    22    19    20    3
