@<TRIPOS>MOLECULE
27376_ChemDiv_3647-5045
 28 32 0 0 0
SMALL
GASTEIGER
Energy = 0

@<TRIPOS>ATOM
      1 N           0.0330   -0.1420    0.0000 N.am    1  LIG1       -0.2351
      2 C          -0.8580    0.3380    0.0000 C.2     1  LIG1        0.2554
      3 C          -1.7210   -0.1710    0.0000 C.ar    1  LIG1        0.0688
      4 C          -1.7210   -1.1830    0.0000 C.ar    1  LIG1        0.0718
      5 N          -0.8580   -1.6830    0.0000 N.pl3   1  LIG1       -0.2144
      6 C           0.0330   -1.1880    0.0000 C.3     1  LIG1        0.1965
      7 C           0.8750   -1.6830    0.0000 C.ar    1  LIG1        0.0168
      8 C           1.7330   -1.1880    0.0000 C.ar    1  LIG1        0.0023
      9 C           2.6080   -1.6830    0.0000 C.ar    1  LIG1        0.0418
     10 C           2.5880   -2.7170    0.0000 C.ar    1  LIG1        0.1957
     11 C           1.7330   -3.2130    0.0000 C.ar    1  LIG1        0.0418
     12 C           0.8750   -2.6830    0.0000 C.ar    1  LIG1        0.0023
     13 O           3.4500   -3.2420    0.0000 O.3     1  LIG1       -0.2866
     14 C          -2.5880   -1.6830    0.0000 C.ar    1  LIG1        0.0163
     15 C          -3.4540   -1.1880    0.0000 C.ar    1  LIG1        0.0013
     16 C          -3.4540   -0.1420    0.0000 C.ar    1  LIG1        0.0002
     17 C          -2.5880    0.3380    0.0000 C.ar    1  LIG1        0.0058
     18 O          -0.8580    1.3380    0.0000 O.2     1  LIG1       -0.2695
     19 C           0.8920    0.3380    0.0000 C.ar    1  LIG1        0.0559
     20 C           0.6790    1.3130    0.0000 C.ar    1  LIG1        0.0138
     21 C           1.4080    1.9880    0.0000 C.ar    1  LIG1        0.0012
     22 C           2.3290    1.6880    0.0000 C.ar    1  LIG1        0.0001
     23 C           2.5580    0.7130    0.0000 C.ar    1  LIG1        0.0013
     24 C           1.8170    0.0250    0.0000 C.ar    1  LIG1        0.0150
     25 C           1.1880    2.9420    0.0000 C.ar    1  LIG1        0.0000
     26 C           0.2580    3.2460    0.0000 C.ar    1  LIG1        0.0000
     27 C          -0.4830    2.5960    0.0000 C.ar    1  LIG1        0.0000
     28 C          -0.2460    1.6130    0.0000 C.ar    1  LIG1        0.0012
@<TRIPOS>BOND
     1     1     2   am
     2     1     6    1
     3     1    19    1
     4     2     3    1
     5     2    18    2
     6     3     4   ar
     7     3    17   ar
     8     4     5    1
     9     4    14   ar
    10     5     6    1
    11     6     7    1
    12     7     8   ar
    13     7    12   ar
    14     8     9   ar
    15     9    10   ar
    16    10    11   ar
    17    10    13    1
    18    11    12   ar
    19    14    15   ar
    20    15    16   ar
    21    16    17   ar
    22    19    20   ar
    23    19    24   ar
    24    20    21   ar
    25    20    28   ar
    26    21    22   ar
    27    21    25   ar
    28    22    23   ar
    29    23    24   ar
    30    25    26   ar
    31    26    27   ar
    32    27    28   ar
