@<TRIPOS>MOLECULE
27373_ChemDiv_8001-1342
 19 21 0 0 0
SMALL
GASTEIGER
Energy = 0

@<TRIPOS>ATOM
      1 C           0.9040   -0.4750    0.0000 C.ar    1  LIG1        0.0919
      2 C           0.9040   -1.4880    0.0000 C.ar    1  LIG1        0.1159
      3 N           0.0250   -1.9710    0.0000 N.ar    1  LIG1       -0.2428
      4 C          -0.8290   -1.4880    0.0000 C.ar    1  LIG1        0.0592
      5 C          -0.8290   -0.4750    0.0000 C.ar    1  LIG1        0.0154
      6 C           0.0250    0.0040    0.0000 C.ar    1  LIG1        0.0128
      7 C           0.0250    1.0170    0.0000 C.ar    1  LIG1        0.0008
      8 C          -0.8290    1.5250    0.0000 C.ar    1  LIG1        0.0000
      9 C          -0.8290    2.5080    0.0000 C.ar    1  LIG1        0.0000
     10 C           0.0250    3.0170    0.0000 C.ar    1  LIG1        0.0000
     11 C           0.9040    2.5080    0.0000 C.ar    1  LIG1        0.0000
     12 C           0.9040    1.5250    0.0000 C.ar    1  LIG1        0.0000
     13 C          -1.6830   -1.9710    0.0000 C.3     1  LIG1        0.0403
     14 C          -2.6710   -1.9710    0.0000 C.3     1  LIG1        0.0063
     15 C          -2.1630   -2.8250    0.0000 C.3     1  LIG1        0.0063
     16 S           1.7830   -1.9960    0.0000 S.3     1  LIG1       -0.0934
     17 C           1.7830   -3.0130    0.0000 C.3     1  LIG1        0.0757
     18 C           1.7830    0.0330    0.0000 C.1     1  LIG1        0.1024
     19 N           2.6670    0.5670    0.0000 N.1     1  LIG1       -0.1908
@<TRIPOS>BOND
     1     1     2   ar
     2     1     6   ar
     3     1    18    1
     4     2     3   ar
     5     2    16    1
     6     3     4   ar
     7     4     5   ar
     8     4    13    1
     9     5     6   ar
    10     6     7    1
    11     7     8   ar
    12     7    12   ar
    13     8     9   ar
    14     9    10   ar
    15    10    11   ar
    16    11    12   ar
    17    13    14    1
    18    13    15    1
    19    14    15    1
    20    16    17    1
    21    18    19    3
