@<TRIPOS>MOLECULE
27375_ChemDiv_8002-7804
 24 26 0 0 0
SMALL
GASTEIGER
Energy = 0

@<TRIPOS>ATOM
      1 C           1.0750    1.6920    0.0000 C.ar    1  LIG1        0.1028
      2 C           1.0750    2.6790    0.0000 C.ar    1  LIG1        0.1790
      3 N           0.1960    3.1920    0.0000 N.ar    1  LIG1       -0.2316
      4 C          -0.6630    2.6790    0.0000 C.ar    1  LIG1        0.0565
      5 C          -0.6630    1.6920    0.0000 C.ar    1  LIG1       -0.0078
      6 C           0.1960    1.1830    0.0000 C.ar    1  LIG1        0.0096
      7 C           0.1960    0.1960    0.0000 C.ar    1  LIG1        0.0005
      8 C          -0.6630   -0.3130    0.0000 C.ar    1  LIG1        0.0002
      9 C          -0.6630   -1.3000    0.0000 C.ar    1  LIG1        0.0064
     10 C           0.2170   -1.8080    0.0000 C.ar    1  LIG1        0.0756
     11 C           0.2170   -2.7960    0.0000 C.2     1  LIG1        0.3413
     12 O          -0.6630   -3.3080    0.0000 O.2     1  LIG1       -0.2449
     13 O           1.0750   -3.3080    0.0000 O.3     1  LIG1       -0.4413
     14 C           1.9330   -2.7960    0.0000 C.3     1  LIG1        0.2560
     15 C           1.0750   -1.3000    0.0000 C.ar    1  LIG1        0.0064
     16 C           1.0750   -0.3130    0.0000 C.ar    1  LIG1        0.0002
     17 C          -1.4380    1.0630    0.0000 C.3     1  LIG1        0.0276
     18 C          -2.4000    1.3040    0.0000 C.3     1  LIG1        0.0047
     19 C          -2.8330    2.2040    0.0000 C.3     1  LIG1        0.0007
     20 C          -2.4000    3.1000    0.0000 C.3     1  LIG1        0.0063
     21 C          -1.4380    3.3130    0.0000 C.3     1  LIG1        0.0455
     22 N           1.9540    3.1920    0.0000 N.pl3   1  LIG1       -0.1065
     23 C           1.9540    1.1830    0.0000 C.1     1  LIG1        0.1033
     24 N           2.8290    0.7080    0.0000 N.1     1  LIG1       -0.1907
@<TRIPOS>BOND
     1     1     2   ar
     2     1     6   ar
     3     1    23    1
     4     2     3   ar
     5     2    22    1
     6     3     4   ar
     7     4     5   ar
     8     4    21    1
     9     5     6   ar
    10     5    17    1
    11     6     7    1
    12     7     8   ar
    13     7    16   ar
    14     8     9   ar
    15     9    10   ar
    16    10    11    1
    17    10    15   ar
    18    11    12    2
    19    11    13    1
    20    13    14    1
    21    15    16   ar
    22    17    18    1
    23    18    19    1
    24    19    20    1
    25    20    21    1
    26    23    24    3
