@<TRIPOS>MOLECULE
27370_ChemDiv_1822-0906
 15 16 0 0 0
SMALL
GASTEIGER
Energy = 0

@<TRIPOS>ATOM
      1 C          -0.8000   -0.4790    0.0000 C.ar    1  LIG1        0.0677
      2 C           0.2170   -0.4790    0.0000 C.ar    1  LIG1        0.1236
      3 N           0.5210   -1.4330    0.0000 N.ar    1  LIG1       -0.0773
      4 O          -0.2960   -2.0210    0.0000 O.2     1  LIG1       -0.3577
      5 C          -1.1210   -1.4130    0.0000 C.ar    1  LIG1        0.1558
      6 C          -2.0750   -1.6880    0.0000 C.3     1  LIG1        0.0754
      7 C           0.7960    0.3210    0.0000 C.ar    1  LIG1        0.0210
      8 C           1.8170    0.2170    0.0000 C.ar    1  LIG1        0.0016
      9 C           2.3960    1.0000    0.0000 C.ar    1  LIG1        0.0000
     10 C           1.9790    1.9250    0.0000 C.ar    1  LIG1        0.0000
     11 C           0.9670    2.0250    0.0000 C.ar    1  LIG1        0.0000
     12 C           0.4080    1.2250    0.0000 C.ar    1  LIG1        0.0016
     13 C          -1.3790    0.3210    0.0000 C.2     1  LIG1        0.0771
     14 O          -2.4000    0.1630    0.0000 O.co2   1  LIG1       -0.5445
     15 O          -0.9420    1.1880    0.0000 O.co2   1  LIG1       -0.5445
@<TRIPOS>BOND
     1     1     2   ar
     2     1     5   ar
     3     1    13    1
     4     2     3   ar
     5     2     7    1
     6     3     4   ar
     7     4     5   ar
     8     5     6    1
     9     7     8   ar
    10     7    12   ar
    11     8     9   ar
    12     9    10   ar
    13    10    11   ar
    14    11    12   ar
    15    13    14   ar
    16    13    15   ar
