@<TRIPOS>MOLECULE
27374_ChemDiv_3118-0084
 28 32 0 0 0
SMALL
GASTEIGER
Energy = 0

@<TRIPOS>ATOM
      1 N          -0.4420    1.0580    0.0000 N.am    1  LIG1       -0.2351
      2 C          -1.3130    1.5630    0.0000 C.2     1  LIG1        0.2554
      3 C          -2.1830    1.0580    0.0000 C.ar    1  LIG1        0.0688
      4 C          -2.1830    0.0750    0.0000 C.ar    1  LIG1        0.0718
      5 N          -1.3130   -0.4330    0.0000 N.pl3   1  LIG1       -0.2144
      6 C          -0.4420    0.0750    0.0000 C.3     1  LIG1        0.1966
      7 C           0.4330   -0.4330    0.0000 C.ar    1  LIG1        0.0199
      8 C           0.4330   -1.4380    0.0000 C.ar    1  LIG1        0.0392
      9 C           1.2880   -1.9420    0.0000 C.ar    1  LIG1        0.1762
     10 C           2.1750   -1.4380    0.0000 C.ar    1  LIG1        0.1764
     11 O           2.9130   -2.1170    0.0000 O.3     1  LIG1       -0.4346
     12 C           2.4830   -3.0500    0.0000 C.3     1  LIG1        0.4294
     13 O           1.4960   -2.9290    0.0000 O.3     1  LIG1       -0.4346
     14 C           2.1580   -0.4330    0.0000 C.ar    1  LIG1        0.0400
     15 C           1.2880    0.0500    0.0000 C.ar    1  LIG1        0.0024
     16 C          -3.0330   -0.4330    0.0000 C.ar    1  LIG1        0.0163
     17 C          -3.9040    0.0750    0.0000 C.ar    1  LIG1        0.0013
     18 C          -3.9040    1.0580    0.0000 C.ar    1  LIG1        0.0002
     19 C          -3.0330    1.5630    0.0000 C.ar    1  LIG1        0.0058
     20 O          -1.3130    2.5540    0.0000 O.2     1  LIG1       -0.2695
     21 C           0.4330    1.5630    0.0000 C.ar    1  LIG1        0.0561
     22 C           1.2880    1.0580    0.0000 C.ar    1  LIG1        0.0181
     23 C           2.1580    1.5630    0.0000 C.ar    1  LIG1        0.0382
     24 C           2.1580    2.5540    0.0000 C.ar    1  LIG1        0.1388
     25 C           1.2880    3.0540    0.0000 C.ar    1  LIG1        0.0382
     26 C           0.4330    2.5540    0.0000 C.ar    1  LIG1        0.0181
     27 O           3.0290    3.0540    0.0000 O.3     1  LIG1       -0.4714
     28 C           3.9000    2.5670    0.0000 C.3     1  LIG1        0.2525
@<TRIPOS>BOND
     1     1     2   am
     2     1     6    1
     3     1    21    1
     4     2     3    1
     5     2    20    2
     6     3     4   ar
     7     3    19   ar
     8     4     5    1
     9     4    16   ar
    10     5     6    1
    11     6     7    1
    12     7     8   ar
    13     7    15   ar
    14     8     9   ar
    15     9    10   ar
    16     9    13    1
    17    10    11    1
    18    10    14   ar
    19    11    12    1
    20    12    13    1
    21    14    15   ar
    22    16    17   ar
    23    17    18   ar
    24    18    19   ar
    25    21    22   ar
    26    21    26   ar
    27    22    23   ar
    28    23    24   ar
    29    24    25   ar
    30    24    27    1
    31    25    26   ar
    32    27    28    1
