@<TRIPOS>MOLECULE
27371_ChemDiv_6233-5126
 22 24 0 0 0
SMALL
GASTEIGER
Energy = 0

@<TRIPOS>ATOM
      1 C           0.4250   -0.6670    0.0000 C.ar    1  LIG1        0.0481
      2 C           0.4250    0.3330    0.0000 C.ar    1  LIG1        0.1456
      3 O          -0.3750    0.9210    0.0000 O.2     1  LIG1       -0.4577
      4 C          -0.0710    1.8670    0.0000 C.ar    1  LIG1        0.1233
      5 C           0.9290    1.8790    0.0000 C.ar    1  LIG1        0.0361
      6 C           1.2290    0.9210    0.0000 C.ar    1  LIG1        0.0403
      7 C          -0.6630    2.6790    0.0000 C.3     1  LIG1        0.0725
      8 C           1.3040   -1.1670    0.0000 C.ar    1  LIG1        0.1060
      9 C           1.3040   -2.1790    0.0000 C.ar    1  LIG1        0.1791
     10 N           0.4250   -2.6750    0.0000 N.ar    1  LIG1       -0.2313
     11 C          -0.4380   -2.1670    0.0000 C.ar    1  LIG1        0.0610
     12 C          -0.4380   -1.1790    0.0000 C.ar    1  LIG1        0.0173
     13 C          -1.3000   -0.6830    0.0000 C.ar    1  LIG1        0.0013
     14 C          -1.3040    0.3210    0.0000 C.ar    1  LIG1        0.0000
     15 C          -2.1670    0.8130    0.0000 C.ar    1  LIG1        0.0000
     16 C          -3.0380    0.3040    0.0000 C.ar    1  LIG1        0.0000
     17 C          -3.0250   -0.6960    0.0000 C.ar    1  LIG1        0.0000
     18 C          -2.1580   -1.1830    0.0000 C.ar    1  LIG1        0.0000
     19 C          -1.3000   -2.6670    0.0000 C.3     1  LIG1        0.0521
     20 N           2.1710   -2.6750    0.0000 N.pl3   1  LIG1       -0.1065
     21 C           2.1710   -0.6670    0.0000 C.1     1  LIG1        0.1034
     22 N           3.0330   -0.1670    0.0000 N.1     1  LIG1       -0.1907
@<TRIPOS>BOND
     1     1     2    1
     2     1     8   ar
     3     1    12   ar
     4     2     3   ar
     5     2     6   ar
     6     3     4   ar
     7     4     5   ar
     8     4     7    1
     9     5     6   ar
    10     8     9   ar
    11     8    21    1
    12     9    10   ar
    13     9    20    1
    14    10    11   ar
    15    11    12   ar
    16    11    19    1
    17    12    13    1
    18    13    14   ar
    19    13    18   ar
    20    14    15   ar
    21    15    16   ar
    22    16    17   ar
    23    17    18   ar
    24    21    22    3
