@<TRIPOS>MOLECULE
27395_ChemDiv_4333-6693
 32 36 0 0 0
SMALL
GASTEIGER
Energy = 0

@<TRIPOS>ATOM
      1 N          -1.3170    0.7420    0.0000 N.am    1  LIG1       -0.2351
      2 C          -2.1880    1.2380    0.0000 C.2     1  LIG1        0.2554
      3 C          -3.0500    0.7420    0.0000 C.ar    1  LIG1        0.0688
      4 C          -3.0500   -0.2540    0.0000 C.ar    1  LIG1        0.0718
      5 N          -2.1880   -0.7540    0.0000 N.pl3   1  LIG1       -0.2144
      6 C          -1.3170   -0.2540    0.0000 C.3     1  LIG1        0.1965
      7 C          -0.4250   -0.7540    0.0000 C.ar    1  LIG1        0.0167
      8 C           0.4380   -0.2540    0.0000 C.ar    1  LIG1        0.0035
      9 C           1.3080   -0.7540    0.0000 C.ar    1  LIG1        0.0681
     10 C           2.2000   -0.2750    0.0000 C.3     1  LIG1        0.1694
     11 N           3.0500   -0.8000    0.0000 N.4     1  LIG1        0.3848
     12 C           3.9040   -1.3420    0.0000 C.3     1  LIG1        0.1718
     13 C           3.9330   -2.3130    0.0000 C.3     1  LIG1        0.2048
     14 O           4.7830   -1.7880    0.0000 O.3     1  LIG1       -0.3411
     15 C           4.7830   -0.8000    0.0000 C.3     1  LIG1        0.2048
     16 C           3.9330   -0.3080    0.0000 C.3     1  LIG1        0.1718
     17 C           1.3080   -1.7380    0.0000 C.ar    1  LIG1        0.1402
     18 C           0.4380   -2.2630    0.0000 C.ar    1  LIG1        0.0366
     19 C          -0.4250   -1.7790    0.0000 C.ar    1  LIG1        0.0022
     20 O           2.2250   -2.2130    0.0000 O.3     1  LIG1       -0.4715
     21 C           3.0500   -1.6880    0.0000 C.3     1  LIG1        0.2525
     22 C          -3.9210   -0.7540    0.0000 C.ar    1  LIG1        0.0163
     23 C          -4.7880   -0.2540    0.0000 C.ar    1  LIG1        0.0013
     24 C          -4.7880    0.7420    0.0000 C.ar    1  LIG1        0.0002
     25 C          -3.9210    1.2380    0.0000 C.ar    1  LIG1        0.0058
     26 O          -2.1880    2.2670    0.0000 O.2     1  LIG1       -0.2695
     27 C          -0.3500    1.0330    0.0000 C.ar    1  LIG1        0.0559
     28 C           0.3790    0.3790    0.0000 C.ar    1  LIG1        0.0150
     29 C           1.3290    0.6630    0.0000 C.ar    1  LIG1        0.0013
     30 C           1.5420    1.6330    0.0000 C.ar    1  LIG1        0.0001
     31 C           0.8040    2.3170    0.0000 C.ar    1  LIG1        0.0013
     32 C          -0.1380    2.0040    0.0000 C.ar    1  LIG1        0.0150
@<TRIPOS>BOND
     1     1     2   am
     2     1     6    1
     3     1    27    1
     4     2     3    1
     5     2    26    2
     6     3     4   ar
     7     3    25   ar
     8     4     5    1
     9     4    22   ar
    10     5     6    1
    11     6     7    1
    12     7     8   ar
    13     7    19   ar
    14     8     9   ar
    15     9    10    1
    16     9    17   ar
    17    10    11    1
    18    11    12    1
    19    11    16    1
    20    12    13    1
    21    13    14    1
    22    14    15    1
    23    15    16    1
    24    17    18   ar
    25    17    20    1
    26    18    19   ar
    27    20    21    1
    28    22    23   ar
    29    23    24   ar
    30    24    25   ar
    31    27    28   ar
    32    27    32   ar
    33    28    29   ar
    34    29    30   ar
    35    30    31   ar
    36    31    32   ar
