@<TRIPOS>MOLECULE
27394_ChemDiv_2253-0134
 27 30 0 0 0
SMALL
GASTEIGER
Energy = 0

@<TRIPOS>ATOM
      1 N          -2.5960   -0.6540    0.0000 N.am    1  LIG1       -0.2187
      2 C          -2.5960    0.2960    0.0000 C.2     1  LIG1        0.2321
      3 C          -3.4960    0.6080    0.0000 C.3     1  LIG1        0.0900
      4 C          -4.0830   -0.1920    0.0000 C.3     1  LIG1        0.0900
      5 C          -3.5130   -0.9540    0.0000 C.2     1  LIG1        0.2321
      6 O          -3.9630   -1.7540    0.0000 O.2     1  LIG1       -0.2744
      7 C          -5.0960   -0.1080    0.0000 C.3     1  LIG1        0.0311
      8 C          -5.5250    0.8040    0.0000 C.2     1  LIG1       -0.0305
      9 C          -4.9250    1.6580    0.0000 C.2     1  LIG1       -0.0305
     10 C          -3.9000    1.5380    0.0000 C.3     1  LIG1        0.0311
     11 C          -4.0830    0.3580    0.0000 C.3     1  LIG1        0.0096
     12 O          -1.8500    0.9630    0.0000 O.2     1  LIG1       -0.2744
     13 C          -1.8250   -1.1330    0.0000 C.3     1  LIG1        0.2101
     14 C          -0.9500   -0.6710    0.0000 C.2     1  LIG1        0.3384
     15 O          -0.0750   -1.1710    0.0000 O.3     1  LIG1       -0.4387
     16 C           0.7080   -0.5250    0.0000 C.3     1  LIG1        0.2766
     17 C           1.6380   -0.8540    0.0000 C.2     1  LIG1        0.2170
     18 C           2.3540   -0.1920    0.0000 C.ar    1  LIG1        0.0387
     19 C           2.1500    0.7830    0.0000 C.ar    1  LIG1        0.0061
     20 C           2.8790    1.4500    0.0000 C.ar    1  LIG1        0.0370
     21 C           3.8330    1.1420    0.0000 C.ar    1  LIG1        0.1387
     22 C           4.0540    0.1710    0.0000 C.ar    1  LIG1        0.0370
     23 C           3.3080   -0.4880    0.0000 C.ar    1  LIG1        0.0061
     24 O           4.5670    1.8210    0.0000 O.3     1  LIG1       -0.4714
     25 C           5.5210    1.5250    0.0000 C.3     1  LIG1        0.2525
     26 O           1.8670   -1.8170    0.0000 O.2     1  LIG1       -0.2874
     27 O          -0.9000    0.3330    0.0000 O.2     1  LIG1       -0.2482
@<TRIPOS>BOND
     1     1     2   am
     2     1     5   am
     3     1    13    1
     4     2     3    1
     5     2    12    2
     6     3     4    1
     7     3    10    1
     8     4     5    1
     9     4     7    1
    10     5     6    2
    11     7     8    1
    12     7    11    1
    13     8     9    2
    14     9    10    1
    15    10    11    1
    16    13    14    1
    17    14    15    1
    18    14    27    2
    19    15    16    1
    20    16    17    1
    21    17    18    1
    22    17    26    2
    23    18    19   ar
    24    18    23   ar
    25    19    20   ar
    26    20    21   ar
    27    21    22   ar
    28    21    24    1
    29    22    23   ar
    30    24    25    1
