@<TRIPOS>MOLECULE
27401_ChemDiv_8008-8377
 28 32 0 0 0
SMALL
GASTEIGER
Energy = 0

@<TRIPOS>ATOM
      1 N          -0.3710    0.4750    0.0000 N.am    1  LIG1       -0.2351
      2 C          -1.2380    0.9920    0.0000 C.2     1  LIG1        0.2554
      3 C          -2.0790    0.5000    0.0000 C.ar    1  LIG1        0.0688
      4 C          -2.0790   -0.5040    0.0000 C.ar    1  LIG1        0.0718
      5 N          -1.2380   -0.9960    0.0000 N.pl3   1  LIG1       -0.2144
      6 C          -0.3710   -0.4790    0.0000 C.3     1  LIG1        0.1966
      7 C           0.5000   -0.9960    0.0000 C.ar    1  LIG1        0.0199
      8 C           1.3960   -0.4790    0.0000 C.ar    1  LIG1        0.0392
      9 C           2.2710   -0.9960    0.0000 C.ar    1  LIG1        0.1762
     10 C           2.2710   -1.9750    0.0000 C.ar    1  LIG1        0.1764
     11 O           3.2500   -2.2880    0.0000 O.3     1  LIG1       -0.4346
     12 C           3.8210   -1.4710    0.0000 C.3     1  LIG1        0.4294
     13 O           3.1960   -0.6420    0.0000 O.3     1  LIG1       -0.4346
     14 C           1.3710   -2.4670    0.0000 C.ar    1  LIG1        0.0400
     15 C           0.5000   -1.9750    0.0000 C.ar    1  LIG1        0.0024
     16 C          -2.9540   -0.9960    0.0000 C.ar    1  LIG1        0.0163
     17 C          -3.8250   -0.4790    0.0000 C.ar    1  LIG1        0.0013
     18 C          -3.8250    0.4750    0.0000 C.ar    1  LIG1        0.0002
     19 C          -2.9540    0.9920    0.0000 C.ar    1  LIG1        0.0058
     20 O          -1.2380    2.0000    0.0000 O.2     1  LIG1       -0.2695
     21 C           0.5000    0.9670    0.0000 C.ar    1  LIG1        0.0569
     22 C           1.3710    0.4750    0.0000 C.ar    1  LIG1        0.0286
     23 C           2.2420    0.9670    0.0000 C.ar    1  LIG1        0.0863
     24 C           2.2420    1.9750    0.0000 C.ar    1  LIG1        0.1507
     25 C           1.3710    2.4580    0.0000 C.ar    1  LIG1        0.0318
     26 C           0.5000    1.9750    0.0000 C.ar    1  LIG1        0.0173
     27 F           3.0960    2.4710    0.0000 F       1  LIG1       -0.2033
     28 CL          3.0960    0.4630    0.0000 Cl      1  LIG1       -0.0799
@<TRIPOS>BOND
     1     1     2   am
     2     1     6    1
     3     1    21    1
     4     2     3    1
     5     2    20    2
     6     3     4   ar
     7     3    19   ar
     8     4     5    1
     9     4    16   ar
    10     5     6    1
    11     6     7    1
    12     7     8   ar
    13     7    15   ar
    14     8     9   ar
    15     9    10   ar
    16     9    13    1
    17    10    11    1
    18    10    14   ar
    19    11    12    1
    20    12    13    1
    21    14    15   ar
    22    16    17   ar
    23    17    18   ar
    24    18    19   ar
    25    21    22   ar
    26    21    26   ar
    27    22    23   ar
    28    23    24   ar
    29    23    28    1
    30    24    25   ar
    31    24    27    1
    32    25    26   ar
