@<TRIPOS>MOLECULE
27407_ChemDiv_8013-1868
 22 25 0 0 0
SMALL
GASTEIGER
Energy = 0

@<TRIPOS>ATOM
      1 C           0.3960   -0.4670    0.0000 C.3     1  LIG1        0.1311
      2 N          -0.4420   -0.9460    0.0000 N.am    1  LIG1       -0.2460
      3 C          -1.2830   -0.4670    0.0000 C.ar    1  LIG1        0.0595
      4 C          -1.2830    0.4880    0.0000 C.ar    1  LIG1        0.0676
      5 C          -0.4420    0.9670    0.0000 C.2     1  LIG1        0.2550
      6 N           0.3960    0.4880    0.0000 N.am    1  LIG1       -0.2427
      7 C           1.2790    0.9830    0.0000 C.ar    1  LIG1        0.0555
      8 C           1.2790    1.9630    0.0000 C.ar    1  LIG1        0.0150
      9 C           2.1210    2.4290    0.0000 C.ar    1  LIG1        0.0013
     10 C           2.9630    1.9630    0.0000 C.ar    1  LIG1        0.0001
     11 C           2.9630    0.9830    0.0000 C.ar    1  LIG1        0.0013
     12 C           2.1210    0.5040    0.0000 C.ar    1  LIG1        0.0150
     13 O          -0.4420    1.9210    0.0000 O.2     1  LIG1       -0.2695
     14 C          -2.1250    0.9670    0.0000 C.ar    1  LIG1        0.0058
     15 C          -2.9670    0.4880    0.0000 C.ar    1  LIG1        0.0002
     16 C          -2.9670   -0.4670    0.0000 C.ar    1  LIG1        0.0013
     17 C          -2.1250   -0.9460    0.0000 C.ar    1  LIG1        0.0151
     18 C          -0.4420   -1.9330    0.0000 C.2     1  LIG1        0.2305
     19 C           1.2500   -1.9330    0.0000 C.3     1  LIG1        0.0891
     20 C           1.2500   -0.9580    0.0000 C.3     1  LIG1        0.0478
     21 O          -1.2830   -2.4250    0.0000 O.2     1  LIG1       -0.2745
     22 C           1.2790   -0.0040    0.0000 C.3     1  LIG1        0.0416
@<TRIPOS>BOND
     1     1     2    1
     2     1     6    1
     3     1    20    1
     4     1    22    1
     5     2     3    1
     6     2    18   am
     7     3     4   ar
     8     3    17   ar
     9     4     5    1
    10     4    14   ar
    11     5     6   am
    12     5    13    2
    13     6     7    1
    14     7     8   ar
    15     7    12   ar
    16     8     9   ar
    17     9    10   ar
    18    10    11   ar
    19    11    12   ar
    20    14    15   ar
    21    15    16   ar
    22    16    17   ar
    23    18    19    1
    24    18    21    2
    25    19    20    1
