@<TRIPOS>MOLECULE
27409_ChemDiv_8017-7485
 31 34 0 0 0
SMALL
GASTEIGER
Energy = 0

@<TRIPOS>ATOM
      1 C          -1.5880   -0.5710    0.0000 C.ar    1  LIG1       -0.0397
      2 C          -2.4330   -0.8330    0.0000 C.ar    1  LIG1        0.2577
      3 N          -2.9460   -0.1170    0.0000 N.ar    1  LIG1       -0.2160
      4 N          -2.4130    0.5960    0.0000 N.ar    1  LIG1       -0.2677
      5 C          -1.5830    0.3130    0.0000 C.ar    1  LIG1        0.0371
      6 C          -0.8580    0.8210    0.0000 C.3     1  LIG1        0.0499
      7 C          -2.6750    1.4380    0.0000 C.3     1  LIG1        0.1517
      8 C          -3.8210   -0.0960    0.0000 C.ar    1  LIG1        0.0840
      9 C          -4.2670   -0.8580    0.0000 C.ar    1  LIG1        0.0192
     10 C          -5.1500   -0.8580    0.0000 C.ar    1  LIG1        0.0015
     11 C          -5.5880   -0.0960    0.0000 C.ar    1  LIG1        0.0001
     12 C          -5.1460    0.6710    0.0000 C.ar    1  LIG1        0.0015
     13 C          -4.2580    0.6710    0.0000 C.ar    1  LIG1        0.0192
     14 O          -2.7130   -1.6710    0.0000 O.2     1  LIG1       -0.2672
     15 N          -0.9380   -1.1710    0.0000 N.pl3   1  LIG1       -0.5312
     16 S          -0.0960   -0.9080    0.0000 S.O2    1  LIG1       -0.0579
     17 C           0.8630   -0.3580    0.0000 C.ar    1  LIG1        0.0868
     18 C           1.8170   -0.9080    0.0000 C.ar    1  LIG1        0.0354
     19 C           2.7790   -0.3540    0.0000 C.ar    1  LIG1        0.0810
     20 N           3.8290   -0.6920    0.0000 N.ar    1  LIG1       -0.2779
     21 C           4.4790    0.2130    0.0000 C.ar    1  LIG1        0.3316
     22 N           3.8170    1.1080    0.0000 N.ar    1  LIG1       -0.2779
     23 C           2.7670    0.7580    0.0000 C.ar    1  LIG1        0.0795
     24 C           1.8170    1.3080    0.0000 C.ar    1  LIG1        0.0158
     25 C           0.8630    0.7500    0.0000 C.ar    1  LIG1       -0.0046
     26 C          -0.0960    1.3000    0.0000 C.3     1  LIG1        0.0324
     27 C           4.1540    2.1580    0.0000 C.3     1  LIG1        0.1351
     28 O           5.5830    0.2170    0.0000 O.2     1  LIG1       -0.2463
     29 C           4.1790   -1.7330    0.0000 C.3     1  LIG1        0.1351
     30 O           0.3250   -2.1540    0.0000 O.2     1  LIG1       -0.1842
     31 O          -0.4210    0.1540    0.0000 O.2     1  LIG1       -0.1842
@<TRIPOS>BOND
     1     1     2   ar
     2     1     5   ar
     3     1    15    1
     4     2     3   ar
     5     2    14    2
     6     3     4   ar
     7     3     8    1
     8     4     5   ar
     9     4     7    1
    10     5     6    1
    11     8     9   ar
    12     8    13   ar
    13     9    10   ar
    14    10    11   ar
    15    11    12   ar
    16    12    13   ar
    17    15    16    1
    18    16    17    1
    19    16    30    2
    20    16    31    2
    21    17    18   ar
    22    17    25   ar
    23    18    19   ar
    24    19    20   ar
    25    19    23   ar
    26    20    21   ar
    27    20    29    1
    28    21    22   ar
    29    21    28    2
    30    22    23   ar
    31    22    27    1
    32    23    24   ar
    33    24    25   ar
    34    25    26    1
