@<TRIPOS>MOLECULE
27404_ChemDiv_5782-5987
 31 35 0 0 0
SMALL
GASTEIGER
Energy = 0

@<TRIPOS>ATOM
      1 N          -1.1000    2.2170    0.0000 N.am    1  LIG1       -0.2316
      2 C          -1.6830    1.4170    0.0000 C.2     1  LIG1        0.2313
      3 C          -2.6330    1.7210    0.0000 C.3     1  LIG1        0.0857
      4 C          -2.6330    2.7170    0.0000 C.3     1  LIG1        0.0857
      5 C          -1.6830    3.0210    0.0000 C.2     1  LIG1        0.2313
      6 O          -1.3750    3.9750    0.0000 O.2     1  LIG1       -0.2745
      7 C          -3.5040    3.2130    0.0000 C.3     1  LIG1        0.0091
      8 C          -3.2460    2.2540    0.0000 C.3     1  LIG1        0.0010
      9 C          -3.4920    1.2170    0.0000 C.3     1  LIG1        0.0091
     10 C          -4.3540    1.7170    0.0000 C.3     1  LIG1        0.0005
     11 C          -4.3580    2.7130    0.0000 C.3     1  LIG1        0.0005
     12 O          -1.3750    0.4630    0.0000 O.2     1  LIG1       -0.2745
     13 C          -0.0960    2.1670    0.0000 C.3     1  LIG1        0.0824
     14 C           0.3710    1.2790    0.0000 C.3     1  LIG1        0.0208
     15 C           1.3670    1.2420    0.0000 C.3     1  LIG1        0.0128
     16 C           1.9080    2.0920    0.0000 C.3     1  LIG1        0.0992
     17 C           2.9040    2.0670    0.0000 C.2     1  LIG1        0.3168
     18 O           3.3830    1.1960    0.0000 O.3     1  LIG1       -0.4399
     19 C           2.8630    0.3420    0.0000 C.3     1  LIG1        0.2766
     20 C           3.3460   -0.5420    0.0000 C.2     1  LIG1        0.2170
     21 C           2.8250   -1.4000    0.0000 C.ar    1  LIG1        0.0386
     22 C           3.3130   -2.2790    0.0000 C.ar    1  LIG1        0.0053
     23 C           2.7920   -3.1330    0.0000 C.ar    1  LIG1        0.0297
     24 C           1.7830   -3.1130    0.0000 C.ar    1  LIG1        0.1401
     25 C           1.3210   -2.2330    0.0000 C.ar    1  LIG1        0.0297
     26 C           1.8250   -1.3790    0.0000 C.ar    1  LIG1        0.0053
     27 F           1.2750   -3.9710    0.0000 F       1  LIG1       -0.2042
     28 O           4.3540   -0.5670    0.0000 O.2     1  LIG1       -0.2874
     29 O           3.4210    2.9130    0.0000 O.2     1  LIG1       -0.2501
     30 C           1.4380    2.9630    0.0000 C.3     1  LIG1        0.0128
     31 C           0.4380    3.0000    0.0000 C.3     1  LIG1        0.0208
@<TRIPOS>BOND
     1     1     2   am
     2     1     5   am
     3     1    13    1
     4     2     3    1
     5     2    12    2
     6     3     4    1
     7     3     9    1
     8     4     5    1
     9     4     7    1
    10     5     6    2
    11     7     8    1
    12     7    11    1
    13     8     9    1
    14     9    10    1
    15    10    11    1
    16    13    14    1
    17    13    31    1
    18    14    15    1
    19    15    16    1
    20    16    17    1
    21    16    30    1
    22    17    18    1
    23    17    29    2
    24    18    19    1
    25    19    20    1
    26    20    21    1
    27    20    28    2
    28    21    22   ar
    29    21    26   ar
    30    22    23   ar
    31    23    24   ar
    32    24    25   ar
    33    24    27    1
    34    25    26   ar
    35    30    31    1
