@<TRIPOS>MOLECULE
27405_ChemDiv_8012-8454
 27 31 0 0 0
SMALL
GASTEIGER
Energy = 0

@<TRIPOS>ATOM
      1 N          -0.8380    0.5080    0.0000 N.am    1  LIG1       -0.2351
      2 C          -1.7040    1.0130    0.0000 C.2     1  LIG1        0.2554
      3 C          -2.5580    0.5080    0.0000 C.ar    1  LIG1        0.0688
      4 C          -2.5580   -0.5040    0.0000 C.ar    1  LIG1        0.0718
      5 N          -1.7040   -0.9880    0.0000 N.pl3   1  LIG1       -0.2144
      6 C          -0.8380   -0.5040    0.0000 C.3     1  LIG1        0.1965
      7 C           0.0330   -0.9880    0.0000 C.ar    1  LIG1        0.0165
      8 C           0.9000   -0.5040    0.0000 C.ar    1  LIG1       -0.0021
      9 C           1.7710   -1.0080    0.0000 C.ar    1  LIG1        0.0152
     10 C           1.7710   -2.0000    0.0000 C.ar    1  LIG1        0.1344
     11 O           2.7290   -2.3130    0.0000 O.3     1  LIG1       -0.4791
     12 C           3.3040   -1.5080    0.0000 C.3     1  LIG1        0.1704
     13 C           2.7290   -0.6960    0.0000 C.3     1  LIG1        0.0729
     14 C           4.2960   -1.5460    0.0000 C.3     1  LIG1        0.0476
     15 C           0.9000   -2.5040    0.0000 C.ar    1  LIG1        0.0364
     16 C           0.0330   -2.0000    0.0000 C.ar    1  LIG1        0.0021
     17 C          -3.4290   -0.9880    0.0000 C.ar    1  LIG1        0.0163
     18 C          -4.3000   -0.5040    0.0000 C.ar    1  LIG1        0.0013
     19 C          -4.3000    0.5080    0.0000 C.ar    1  LIG1        0.0002
     20 C          -3.4290    1.0130    0.0000 C.ar    1  LIG1        0.0058
     21 O          -1.7040    2.0000    0.0000 O.2     1  LIG1       -0.2695
     22 C           0.0330    1.0130    0.0000 C.ar    1  LIG1        0.0559
     23 C           0.0330    2.0000    0.0000 C.ar    1  LIG1        0.0150
     24 C           0.9000    2.5080    0.0000 C.ar    1  LIG1        0.0013
     25 C           1.7710    2.0000    0.0000 C.ar    1  LIG1        0.0001
     26 C           1.7710    1.0130    0.0000 C.ar    1  LIG1        0.0013
     27 C           0.9000    0.5080    0.0000 C.ar    1  LIG1        0.0150
@<TRIPOS>BOND
     1     1     2   am
     2     1     6    1
     3     1    22    1
     4     2     3    1
     5     2    21    2
     6     3     4   ar
     7     3    20   ar
     8     4     5    1
     9     4    17   ar
    10     5     6    1
    11     6     7    1
    12     7     8   ar
    13     7    16   ar
    14     8     9   ar
    15     9    10   ar
    16     9    13    1
    17    10    11    1
    18    10    15   ar
    19    11    12    1
    20    12    13    1
    21    12    14    1
    22    15    16   ar
    23    17    18   ar
    24    18    19   ar
    25    19    20   ar
    26    22    23   ar
    27    22    27   ar
    28    23    24   ar
    29    24    25   ar
    30    25    26   ar
    31    26    27   ar
