@<TRIPOS>MOLECULE
27417_ChemDiv_1932-0025
 21 23 0 0 0
SMALL
GASTEIGER
Energy = 0

@<TRIPOS>ATOM
      1 C           0.8710    0.7460    0.0000 C.ar    1  LIG1        0.0899
      2 C           0.8710    1.7420    0.0000 C.ar    1  LIG1        0.3469
      3 O          -0.0080    2.2540    0.0000 O.2     1  LIG1       -0.4210
      4 C          -0.8750    1.7420    0.0000 C.ar    1  LIG1        0.1487
      5 C          -0.8750    0.7460    0.0000 C.ar    1  LIG1        0.0352
      6 C          -0.0080    0.2420    0.0000 C.ar    1  LIG1        0.0177
      7 C          -0.0080   -0.7540    0.0000 C.ar    1  LIG1        0.0895
      8 C           0.8710   -1.2500    0.0000 C.ar    1  LIG1        0.0652
      9 N           1.7330   -0.7540    0.0000 N.ar    1  LIG1       -0.2535
     10 C           1.7330    0.2420    0.0000 C.ar    1  LIG1        0.0652
     11 C           2.5960    0.7420    0.0000 C.3     1  LIG1        0.0523
     12 C           0.8710   -2.2500    0.0000 C.3     1  LIG1        0.0523
     13 C          -0.8750   -1.2500    0.0000 C.2     1  LIG1        0.3425
     14 O          -0.8750   -2.2500    0.0000 O.2     1  LIG1       -0.2448
     15 O          -1.7380   -0.7540    0.0000 O.3     1  LIG1       -0.4413
     16 C          -2.6000   -1.2500    0.0000 C.3     1  LIG1        0.2560
     17 C          -1.7380    0.2420    0.0000 C.ar    1  LIG1        0.0030
     18 C          -2.6000    0.7460    0.0000 C.ar    1  LIG1        0.0002
     19 C          -2.6000    1.7420    0.0000 C.ar    1  LIG1        0.0031
     20 C          -1.7380    2.2540    0.0000 C.ar    1  LIG1        0.0376
     21 O           1.7170    2.2540    0.0000 O.2     1  LIG1       -0.2444
@<TRIPOS>BOND
     1     1     2   ar
     2     1     6   ar
     3     1    10   ar
     4     2     3   ar
     5     2    21    2
     6     3     4   ar
     7     4     5   ar
     8     4    20   ar
     9     5     6   ar
    10     5    17   ar
    11     6     7   ar
    12     7     8   ar
    13     7    13    1
    14     8     9   ar
    15     8    12    1
    16     9    10   ar
    17    10    11    1
    18    13    14    2
    19    13    15    1
    20    15    16    1
    21    17    18   ar
    22    18    19   ar
    23    19    20   ar
