@<TRIPOS>MOLECULE
27419_ChemDiv_8016-5968
 22 24 0 0 0
SMALL
GASTEIGER
Energy = 0

@<TRIPOS>ATOM
      1 C           1.2920    0.7750    0.0000 C.ar    1  LIG1        0.0899
      2 C           1.2920    1.7500    0.0000 C.ar    1  LIG1        0.3469
      3 O           0.4290    2.2580    0.0000 O.2     1  LIG1       -0.4210
      4 C          -0.4420    1.7630    0.0000 C.ar    1  LIG1        0.1487
      5 C          -0.4420    0.7580    0.0000 C.ar    1  LIG1        0.0352
      6 C           0.4290    0.2630    0.0000 C.ar    1  LIG1        0.0177
      7 C           0.4290   -0.7380    0.0000 C.ar    1  LIG1        0.0895
      8 C           1.2920   -1.2290    0.0000 C.ar    1  LIG1        0.0652
      9 N           2.1500   -0.7380    0.0000 N.ar    1  LIG1       -0.2535
     10 C           2.1540    0.2830    0.0000 C.ar    1  LIG1        0.0652
     11 C           3.0290    0.7750    0.0000 C.3     1  LIG1        0.0523
     12 C           1.2920   -2.2380    0.0000 C.3     1  LIG1        0.0523
     13 C          -0.4290   -1.2630    0.0000 C.2     1  LIG1        0.3424
     14 O          -0.4210   -2.2540    0.0000 O.2     1  LIG1       -0.2449
     15 O          -1.3040   -0.7670    0.0000 O.3     1  LIG1       -0.4454
     16 C          -2.1540   -1.2920    0.0000 C.3     1  LIG1        0.2089
     17 C          -3.0330   -0.7920    0.0000 C.3     1  LIG1        0.0513
     18 C          -1.3040    0.2630    0.0000 C.ar    1  LIG1        0.0030
     19 C          -2.1710    0.7750    0.0000 C.ar    1  LIG1        0.0002
     20 C          -2.1710    1.7500    0.0000 C.ar    1  LIG1        0.0031
     21 C          -1.3040    2.2580    0.0000 C.ar    1  LIG1        0.0376
     22 O           2.1670    2.2460    0.0000 O.2     1  LIG1       -0.2444
@<TRIPOS>BOND
     1     1     2   ar
     2     1     6   ar
     3     1    10   ar
     4     2     3   ar
     5     2    22    2
     6     3     4   ar
     7     4     5   ar
     8     4    21   ar
     9     5     6   ar
    10     5    18   ar
    11     6     7   ar
    12     7     8   ar
    13     7    13    1
    14     8     9   ar
    15     8    12    1
    16     9    10   ar
    17    10    11    1
    18    13    14    2
    19    13    15    1
    20    15    16    1
    21    16    17    1
    22    18    19   ar
    23    19    20   ar
    24    20    21   ar
