@<TRIPOS>MOLECULE
27425_ChemDiv_8017-3045
 19 21 0 0 0
SMALL
GASTEIGER
Energy = 0

@<TRIPOS>ATOM
      1 N          -0.9960   -0.8630    0.0000 N.am    1  LIG1       -0.1771
      2 C          -1.9960   -0.8630    0.0000 C.2     1  LIG1        0.2678
      3 C          -2.5040    0.0000    0.0000 C.ar    1  LIG1        0.0700
      4 C          -1.9960    0.8710    0.0000 C.ar    1  LIG1        0.0719
      5 N          -0.9960    0.8710    0.0000 N.pl3   1  LIG1       -0.2133
      6 C          -0.4960    0.0000    0.0000 C.3     1  LIG1        0.2096
      7 C           0.5000    0.0000    0.0000 C.ar    1  LIG1        0.0178
      8 C           1.0000    0.8710    0.0000 C.ar    1  LIG1       -0.0002
      9 C           2.0000    0.8710    0.0000 C.ar    1  LIG1        0.0101
     10 C           2.5000    0.0000    0.0000 C.ar    1  LIG1        0.0684
     11 C           3.5000    0.0000    0.0000 C.1     1  LIG1        0.1004
     12 N           4.0000    0.8710    0.0000 N.1     1  LIG1       -0.1908
     13 C           2.0000   -0.8630    0.0000 C.ar    1  LIG1        0.0101
     14 C           1.0000   -0.8630    0.0000 C.ar    1  LIG1       -0.0002
     15 C          -2.5040    1.7330    0.0000 C.ar    1  LIG1        0.0163
     16 C          -3.4960    1.7330    0.0000 C.ar    1  LIG1        0.0013
     17 C          -4.0040    0.8710    0.0000 C.ar    1  LIG1        0.0002
     18 C          -3.4960    0.0000    0.0000 C.ar    1  LIG1        0.0059
     19 O          -2.5040   -1.7290    0.0000 O.2     1  LIG1       -0.2683
@<TRIPOS>BOND
     1     1     2   am
     2     1     6    1
     3     2     3    1
     4     2    19    2
     5     3     4   ar
     6     3    18   ar
     7     4     5    1
     8     4    15   ar
     9     5     6    1
    10     6     7    1
    11     7     8   ar
    12     7    14   ar
    13     8     9   ar
    14     9    10   ar
    15    10    11    1
    16    10    13   ar
    17    11    12    3
    18    13    14   ar
    19    15    16   ar
    20    16    17   ar
    21    17    18   ar
