@<TRIPOS>MOLECULE
27423_ChemDiv_2189-1304
 25 29 0 0 0
SMALL
GASTEIGER
Energy = 0

@<TRIPOS>ATOM
      1 C           2.8960    0.4960    0.0000 C.3     1  LIG1        0.1174
      2 C           2.8960   -0.5080    0.0000 C.3     1  LIG1        0.1199
      3 C           1.9330   -0.7880    0.0000 C.2     1  LIG1        0.2379
      4 N           1.3460    0.0130    0.0000 N.am    1  LIG1       -0.2080
      5 C           1.9500    0.8040    0.0000 C.2     1  LIG1        0.2378
      6 O           1.6130    1.7750    0.0000 O.2     1  LIG1       -0.2740
      7 C           0.3290   -0.1130    0.0000 C.ar    1  LIG1        0.0607
      8 C          -0.0380   -1.0380    0.0000 C.ar    1  LIG1        0.0166
      9 C          -1.0670   -1.1380    0.0000 C.ar    1  LIG1        0.0158
     10 C          -1.6540   -0.3380    0.0000 C.ar    1  LIG1        0.0481
     11 N          -2.6540   -0.4790    0.0000 N.pl3   1  LIG1       -0.3028
     12 C          -3.0380   -1.3790    0.0000 C.3     1  LIG1        0.1231
     13 C          -4.0580   -1.5080    0.0000 C.3     1  LIG1        0.1636
     14 O          -4.6580   -0.7540    0.0000 O.3     1  LIG1       -0.3501
     15 C          -4.2830    0.1670    0.0000 C.3     1  LIG1        0.1636
     16 C          -3.2630    0.2960    0.0000 C.3     1  LIG1        0.1231
     17 C          -1.2380    0.5960    0.0000 C.ar    1  LIG1        0.0158
     18 C          -0.2210    0.6880    0.0000 C.ar    1  LIG1        0.0166
     19 O           1.6130   -1.7710    0.0000 O.2     1  LIG1       -0.2740
     20 C           3.7920   -1.0130    0.0000 C.3     1  LIG1        0.1463
     21 O           3.3580    0.0460    0.0000 O.3     1  LIG1       -0.3516
     22 C           3.8080    0.9710    0.0000 C.3     1  LIG1        0.1200
     23 C           4.6540    0.4790    0.0000 C.2     1  LIG1       -0.0015
     24 C           4.6540   -0.5080    0.0000 C.2     1  LIG1        0.0011
     25 C           3.7920    1.6790    0.0000 C.3     1  LIG1        0.0347
@<TRIPOS>BOND
     1     1     2    1
     2     1     5    1
     3     1    22    1
     4     2     3    1
     5     2    20    1
     6     3     4   am
     7     3    19    2
     8     4     5   am
     9     4     7    1
    10     5     6    2
    11     7     8   ar
    12     7    18   ar
    13     8     9   ar
    14     9    10   ar
    15    10    11    1
    16    10    17   ar
    17    11    12    1
    18    11    16    1
    19    12    13    1
    20    13    14    1
    21    14    15    1
    22    15    16    1
    23    17    18   ar
    24    20    21    1
    25    20    24    1
    26    21    22    1
    27    22    23    1
    28    22    25    1
    29    23    24    2
