@<TRIPOS>MOLECULE
27432_ChemDiv_2056-0192
 16 18 0 0 0
SMALL
GASTEIGER
Energy = 0

@<TRIPOS>ATOM
      1 C           0.5040   -1.0170    0.0000 C.ar    1  LIG1        0.3030
      2 C           0.1960   -0.1250    0.0000 C.ar    1  LIG1        0.0715
      3 C          -0.8130   -0.1250    0.0000 C.ar    1  LIG1        0.0402
      4 C          -1.1080   -1.0420    0.0000 C.ar    1  LIG1        0.1487
      5 O          -0.2920   -1.5960    0.0000 O.2     1  LIG1       -0.4234
      6 C          -2.0670   -1.3000    0.0000 C.ar    1  LIG1        0.0373
      7 C          -2.7670   -0.5380    0.0000 C.ar    1  LIG1       -0.0011
      8 C          -2.4710    0.4080    0.0000 C.ar    1  LIG1       -0.0216
      9 C          -1.4790    0.6420    0.0000 C.ar    1  LIG1       -0.0010
     10 C          -3.1540    1.1210    0.0000 C.3     1  LIG1        0.0310
     11 C           0.8710    0.6670    0.0000 C.ar    1  LIG1       -0.0092
     12 C           1.8790    0.4380    0.0000 C.ar    1  LIG1        0.0783
     13 C           2.1790   -0.5040    0.0000 C.ar    1  LIG1        0.3478
     14 O           1.5130   -1.2500    0.0000 O.2     1  LIG1       -0.3885
     15 O           3.1500   -0.7080    0.0000 O.2     1  LIG1       -0.2444
     16 C           0.5710    1.6000    0.0000 C.3     1  LIG1        0.0315
@<TRIPOS>BOND
     1     1     2   ar
     2     1     5   ar
     3     1    14   ar
     4     2     3   ar
     5     2    11   ar
     6     3     4   ar
     7     3     9   ar
     8     4     5   ar
     9     4     6   ar
    10     6     7   ar
    11     7     8   ar
    12     8     9   ar
    13     8    10    1
    14    11    12   ar
    15    11    16    1
    16    12    13   ar
    17    13    14   ar
    18    13    15    2
