@<TRIPOS>MOLECULE
27445_ChemDiv_4373-3480
 23 26 0 0 0
SMALL
GASTEIGER
Energy = 0

@<TRIPOS>ATOM
      1 C          -1.7880    0.8540    0.0000 C.3     1  LIG1        0.1200
      2 C          -1.5420    1.2540    0.0000 C.3     1  LIG1        0.1200
      3 C          -0.4290    1.2330    0.0000 C.2     1  LIG1        0.2379
      4 N          -0.3750    0.2540    0.0000 N.am    1  LIG1       -0.2080
      5 C          -1.2630   -0.1330    0.0000 C.2     1  LIG1        0.2379
      6 O          -1.5250   -1.0790    0.0000 O.2     1  LIG1       -0.2740
      7 C           0.4580   -0.2710    0.0000 C.ar    1  LIG1        0.0606
      8 C           0.4580   -1.2830    0.0000 C.ar    1  LIG1        0.0154
      9 C           1.2920   -1.7830    0.0000 C.ar    1  LIG1        0.0024
     10 C           2.1830   -1.2830    0.0000 C.ar    1  LIG1        0.0141
     11 C           3.0330   -1.7830    0.0000 C.2     1  LIG1        0.0729
     12 O           3.9130   -1.2830    0.0000 O.co2   1  LIG1       -0.5446
     13 O           2.9630   -2.7290    0.0000 O.co2   1  LIG1       -0.5446
     14 C           2.1830   -0.3000    0.0000 C.ar    1  LIG1        0.0024
     15 C           1.3500    0.2000    0.0000 C.ar    1  LIG1        0.0154
     16 O           0.2920    1.9000    0.0000 O.2     1  LIG1       -0.2740
     17 C          -2.5000    1.7960    0.0000 C.3     1  LIG1        0.1464
     18 O          -2.6540    2.7330    0.0000 O.3     1  LIG1       -0.3490
     19 C          -2.7630    1.3790    0.0000 C.3     1  LIG1        0.1504
     20 C          -3.9130    0.9080    0.0000 C.2     1  LIG1        0.0011
     21 C          -3.6130    1.3790    0.0000 C.2     1  LIG1        0.0012
     22 C          -3.3580    0.5880    0.0000 C.3     1  LIG1        0.2136
     23 O          -2.9830   -0.3250    0.0000 O.3     1  LIG1       -0.2174
@<TRIPOS>BOND
     1     1     2    1
     2     1     5    1
     3     1    19    1
     4     2     3    1
     5     2    17    1
     6     3     4   am
     7     3    16    2
     8     4     5   am
     9     4     7    1
    10     5     6    2
    11     7     8   ar
    12     7    15   ar
    13     8     9   ar
    14     9    10   ar
    15    10    11    1
    16    10    14   ar
    17    11    12   ar
    18    11    13   ar
    19    14    15   ar
    20    17    18    1
    21    17    21    1
    22    18    19    1
    23    19    20    1
    24    19    22    1
    25    20    21    2
    26    22    23    1
