@<TRIPOS>MOLECULE
27448_ChemDiv_4130-2678
 34 36 0 0 0
SMALL
GASTEIGER
Energy = 0

@<TRIPOS>ATOM
      1 C          -3.8790    1.7880    0.0000 C.ar    1  LIG1        0.0909
      2 C          -3.3880    0.9210    0.0000 C.ar    1  LIG1        0.0799
      3 N          -2.3960    0.9250    0.0000 N.am    1  LIG1       -0.1752
      4 C          -1.9040    0.1710    0.0000 C.2     1  LIG1        0.2690
      5 C          -0.9040    0.1710    0.0000 C.ar    1  LIG1        0.0554
      6 C          -0.3920    1.0380    0.0000 C.ar    1  LIG1        0.0047
      7 C           0.6080    1.0380    0.0000 C.ar    1  LIG1        0.0047
      8 C           1.1000    0.1710    0.0000 C.ar    1  LIG1        0.0554
      9 C           2.1000    0.1710    0.0000 C.2     1  LIG1        0.2690
     10 N           2.3830   -0.9170    0.0000 N.am    1  LIG1       -0.1752
     11 C           3.3830   -0.9170    0.0000 C.ar    1  LIG1        0.0799
     12 C           3.8790   -1.7670    0.0000 C.ar    1  LIG1        0.0909
     13 C           3.3670   -2.6330    0.0000 C.2     1  LIG1        0.3425
     14 O           2.3670   -2.6330    0.0000 O.2     1  LIG1       -0.2448
     15 O           3.8790   -3.5000    0.0000 O.3     1  LIG1       -0.4454
     16 C           3.3670   -4.3710    0.0000 C.3     1  LIG1        0.2089
     17 C           3.8790   -5.2380    0.0000 C.3     1  LIG1        0.0513
     18 C           4.8790   -1.7670    0.0000 C.ar    1  LIG1        0.0078
     19 C           5.3880   -0.9170    0.0000 C.ar    1  LIG1        0.0003
     20 C           4.8790   -0.0500    0.0000 C.ar    1  LIG1        0.0013
     21 C           3.8790   -0.0500    0.0000 C.ar    1  LIG1        0.0168
     22 O           2.6130    1.0380    0.0000 O.2     1  LIG1       -0.2680
     23 C           0.6080   -0.6830    0.0000 C.ar    1  LIG1        0.0047
     24 C          -0.3920   -0.6830    0.0000 C.ar    1  LIG1        0.0047
     25 O          -2.3960   -0.7000    0.0000 O.2     1  LIG1       -0.2680
     26 C          -3.8790    0.0580    0.0000 C.ar    1  LIG1        0.0168
     27 C          -4.8790    0.0580    0.0000 C.ar    1  LIG1        0.0013
     28 C          -5.3920    0.9210    0.0000 C.ar    1  LIG1        0.0003
     29 C          -4.8790    1.7880    0.0000 C.ar    1  LIG1        0.0078
     30 C          -3.3880    2.6540    0.0000 C.2     1  LIG1        0.3425
     31 O          -2.3880    2.6540    0.0000 O.2     1  LIG1       -0.2448
     32 O          -3.8790    3.5040    0.0000 O.3     1  LIG1       -0.4454
     33 C          -3.3710    4.3710    0.0000 C.3     1  LIG1        0.2089
     34 C          -3.8790    5.2380    0.0000 C.3     1  LIG1        0.0513
@<TRIPOS>BOND
     1     1     2   ar
     2     1    29   ar
     3     1    30    1
     4     2     3    1
     5     2    26   ar
     6     3     4   am
     7     4     5    1
     8     4    25    2
     9     5     6   ar
    10     5    24   ar
    11     6     7   ar
    12     7     8   ar
    13     8     9    1
    14     8    23   ar
    15     9    10   am
    16     9    22    2
    17    10    11    1
    18    11    12   ar
    19    11    21   ar
    20    12    13    1
    21    12    18   ar
    22    13    14    2
    23    13    15    1
    24    15    16    1
    25    16    17    1
    26    18    19   ar
    27    19    20   ar
    28    20    21   ar
    29    23    24   ar
    30    26    27   ar
    31    27    28   ar
    32    28    29   ar
    33    30    31    2
    34    30    32    1
    35    32    33    1
    36    33    34    1
