@<TRIPOS>MOLECULE
27444_ChemDiv_2036-0847
 37 40 0 0 0
SMALL
GASTEIGER
Energy = 0

@<TRIPOS>ATOM
      1 C          -5.7380    1.0420    0.0000 C.ar    1  LIG1        0.0293
      2 C          -4.9000    0.5130    0.0000 C.ar    1  LIG1        0.0747
      3 N          -4.0080    1.0080    0.0000 N.am    1  LIG1       -0.1754
      4 C          -3.1750    0.4960    0.0000 C.2     1  LIG1        0.2690
      5 C          -2.2790    0.9830    0.0000 C.ar    1  LIG1        0.0556
      6 C          -1.4250    0.4830    0.0000 C.ar    1  LIG1        0.0077
      7 C          -0.5670    0.9830    0.0000 C.ar    1  LIG1        0.0376
      8 C          -0.5500    1.9670    0.0000 C.ar    1  LIG1        0.1453
      9 O           0.2880    2.4540    0.0000 O.3     1  LIG1       -0.4535
     10 C           1.1540    1.9580    0.0000 C.ar    1  LIG1        0.1453
     11 C           1.1540    0.9580    0.0000 C.ar    1  LIG1        0.0376
     12 C           2.0170    0.4710    0.0000 C.ar    1  LIG1        0.0077
     13 C           2.8670    0.9580    0.0000 C.ar    1  LIG1        0.0556
     14 C           3.7420    0.4460    0.0000 C.2     1  LIG1        0.2690
     15 N           3.7420   -0.5540    0.0000 N.am    1  LIG1       -0.1754
     16 C           4.5750   -1.0420    0.0000 C.ar    1  LIG1        0.0747
     17 C           5.4460   -0.5540    0.0000 C.ar    1  LIG1        0.0293
     18 C           5.4710    0.4460    0.0000 C.2     1  LIG1        0.0741
     19 O           6.6250    0.9130    0.0000 O.co2   1  LIG1       -0.5446
     20 O           4.9000    1.4250    0.0000 O.co2   1  LIG1       -0.5446
     21 C           6.3040   -1.0670    0.0000 C.ar    1  LIG1        0.0024
     22 C           6.2790   -2.0330    0.0000 C.ar    1  LIG1        0.0001
     23 C           5.4130   -2.5130    0.0000 C.ar    1  LIG1        0.0013
     24 C           4.5750   -2.0290    0.0000 C.ar    1  LIG1        0.0166
     25 O           4.6130    0.9330    0.0000 O.2     1  LIG1       -0.2680
     26 C           2.8670    1.9580    0.0000 C.ar    1  LIG1        0.0077
     27 C           2.0170    2.4500    0.0000 C.ar    1  LIG1        0.0376
     28 C          -1.4080    2.4540    0.0000 C.ar    1  LIG1        0.0376
     29 C          -2.2750    1.9670    0.0000 C.ar    1  LIG1        0.0077
     30 O          -3.2000   -0.4920    0.0000 O.2     1  LIG1       -0.2680
     31 C          -4.9210   -0.4670    0.0000 C.ar    1  LIG1        0.0166
     32 C          -5.7790   -0.9420    0.0000 C.ar    1  LIG1        0.0013
     33 C          -6.6250   -0.4330    0.0000 C.ar    1  LIG1        0.0001
     34 C          -6.6080    0.5500    0.0000 C.ar    1  LIG1        0.0024
     35 C          -5.7380    2.0210    0.0000 C.2     1  LIG1        0.0741
     36 O          -6.5920    2.5170    0.0000 O.co2   1  LIG1       -0.5446
     37 O          -4.8830    2.5170    0.0000 O.co2   1  LIG1       -0.5446
@<TRIPOS>BOND
     1     1     2   ar
     2     1    34   ar
     3     1    35    1
     4     2     3    1
     5     2    31   ar
     6     3     4   am
     7     4     5    1
     8     4    30    2
     9     5     6   ar
    10     5    29   ar
    11     6     7   ar
    12     7     8   ar
    13     8     9    1
    14     8    28   ar
    15     9    10    1
    16    10    11   ar
    17    10    27   ar
    18    11    12   ar
    19    12    13   ar
    20    13    14    1
    21    13    26   ar
    22    14    15   am
    23    14    25    2
    24    15    16    1
    25    16    17   ar
    26    16    24   ar
    27    17    18    1
    28    17    21   ar
    29    18    19   ar
    30    18    20   ar
    31    21    22   ar
    32    22    23   ar
    33    23    24   ar
    34    26    27   ar
    35    28    29   ar
    36    31    32   ar
    37    32    33   ar
    38    33    34   ar
    39    35    36   ar
    40    35    37   ar
