@<TRIPOS>MOLECULE
27440_ChemDiv_2103-2601
 33 37 0 0 0
SMALL
GASTEIGER
Energy = 0

@<TRIPOS>ATOM
      1 C           2.1540   -0.7290    0.0000 C.ar    1  LIG1        0.0937
      2 C           3.0040   -0.2330    0.0000 C.ar    1  LIG1        0.3472
      3 O           3.0040    0.7540    0.0000 O.2     1  LIG1       -0.4209
      4 C           2.1540    1.2500    0.0000 C.ar    1  LIG1        0.1517
      5 C           1.2830    0.7540    0.0000 C.ar    1  LIG1        0.0351
      6 C           1.2830   -0.2330    0.0000 C.ar    1  LIG1        0.0110
      7 C           0.4080    1.2500    0.0000 C.ar    1  LIG1        0.0061
      8 C           0.4080    2.2500    0.0000 C.ar    1  LIG1        0.0371
      9 C           1.2830    2.7580    0.0000 C.ar    1  LIG1        0.1416
     10 C           2.1540    2.2500    0.0000 C.ar    1  LIG1        0.0745
     11 O           1.2830    3.7540    0.0000 O.3     1  LIG1       -0.4754
     12 C           2.1540    4.2500    0.0000 C.3     1  LIG1        0.2055
     13 C           2.1540    5.2460    0.0000 C.3     1  LIG1        0.0512
     14 O           3.8830   -0.7460    0.0000 O.2     1  LIG1       -0.2444
     15 C           2.1540   -1.7380    0.0000 C.ar    1  LIG1        0.0871
     16 N           3.0040   -2.2250    0.0000 N.ar    1  LIG1       -0.2492
     17 C           3.0040   -3.2330    0.0000 C.ar    1  LIG1        0.0656
     18 C           2.1540   -3.7290    0.0000 C.ar    1  LIG1        0.0897
     19 C           2.1540   -4.7330    0.0000 C.ar    1  LIG1        0.3469
     20 O           1.2830   -5.2420    0.0000 O.2     1  LIG1       -0.4209
     21 C           0.4250   -4.7330    0.0000 C.ar    1  LIG1        0.1517
     22 C           0.4250   -3.7290    0.0000 C.ar    1  LIG1        0.0352
     23 C           1.2830   -3.2330    0.0000 C.ar    1  LIG1        0.0118
     24 C           1.2830   -2.2250    0.0000 C.ar    1  LIG1        0.0196
     25 C          -0.4420   -3.2330    0.0000 C.ar    1  LIG1        0.0061
     26 C          -1.3040   -3.7290    0.0000 C.ar    1  LIG1        0.0371
     27 C          -1.3040   -4.7330    0.0000 C.ar    1  LIG1        0.1416
     28 C          -0.4420   -5.2420    0.0000 C.ar    1  LIG1        0.0745
     29 O          -2.1750   -5.2420    0.0000 O.3     1  LIG1       -0.4754
     30 C          -3.0210   -4.7330    0.0000 C.3     1  LIG1        0.2055
     31 C          -3.8880   -5.2420    0.0000 C.3     1  LIG1        0.0512
     32 O           3.0210   -5.2460    0.0000 O.2     1  LIG1       -0.2444
     33 C           3.8830   -3.7380    0.0000 C.3     1  LIG1        0.0523
@<TRIPOS>BOND
     1     1     2   ar
     2     1     6   ar
     3     1    15    1
     4     2     3   ar
     5     2    14    2
     6     3     4   ar
     7     4     5   ar
     8     4    10   ar
     9     5     6   ar
    10     5     7   ar
    11     7     8   ar
    12     8     9   ar
    13     9    10   ar
    14     9    11    1
    15    11    12    1
    16    12    13    1
    17    15    16   ar
    18    15    24   ar
    19    16    17   ar
    20    17    18   ar
    21    17    33    1
    22    18    19   ar
    23    18    23   ar
    24    19    20   ar
    25    19    32    2
    26    20    21   ar
    27    21    22   ar
    28    21    28   ar
    29    22    23   ar
    30    22    25   ar
    31    23    24   ar
    32    25    26   ar
    33    26    27   ar
    34    27    28   ar
    35    27    29    1
    36    29    30    1
    37    30    31    1
