@<TRIPOS>MOLECULE
27447_ChemDiv_6049-0080
 29 31 0 0 0
SMALL
GASTEIGER
Energy = 0

@<TRIPOS>ATOM
      1 C          -2.4670   -0.6790    0.0000 C.3     1  LIG1        0.1177
      2 C          -2.8380   -0.3830    0.0000 C.3     1  LIG1        0.0793
      3 C          -3.5170   -1.2380    0.0000 C.3     1  LIG1        0.1429
      4 O          -4.4670   -1.2500    0.0000 O.3     1  LIG1       -0.3491
      5 C          -3.1290   -1.5460    0.0000 C.3     1  LIG1        0.1463
      6 C          -2.8460   -2.7710    0.0000 C.2     1  LIG1        0.0012
      7 C          -3.2580   -2.4130    0.0000 C.2     1  LIG1        0.0011
      8 C          -3.1960    0.5380    0.0000 C.2     1  LIG1        0.0532
      9 O          -4.1830    0.7170    0.0000 O.co2   1  LIG1       -0.5491
     10 O          -2.6040    1.3460    0.0000 O.co2   1  LIG1       -0.5491
     11 C          -1.6000   -0.2040    0.0000 C.2     1  LIG1        0.2483
     12 N          -0.7580   -0.7330    0.0000 N.am    1  LIG1       -0.1791
     13 C           0.1290   -0.2210    0.0000 C.ar    1  LIG1        0.0738
     14 C           0.1080    0.7710    0.0000 C.ar    1  LIG1        0.0230
     15 C           0.9960    1.2710    0.0000 C.ar    1  LIG1        0.0771
     16 C           1.0170    2.2670    0.0000 C.2     1  LIG1        0.3413
     17 O           1.8830    2.7750    0.0000 O.2     1  LIG1       -0.2449
     18 O           0.1500    2.7750    0.0000 O.3     1  LIG1       -0.4454
     19 C          -0.7170    2.2670    0.0000 C.3     1  LIG1        0.2089
     20 C          -1.5790    2.7750    0.0000 C.3     1  LIG1        0.0513
     21 C           1.8630    0.7920    0.0000 C.ar    1  LIG1        0.0130
     22 C           1.8630   -0.2210    0.0000 C.ar    1  LIG1        0.0771
     23 C           2.7080   -0.7500    0.0000 C.2     1  LIG1        0.3413
     24 O           2.6880   -1.7460    0.0000 O.2     1  LIG1       -0.2449
     25 O           3.5750   -0.2460    0.0000 O.3     1  LIG1       -0.4454
     26 C           3.5960    0.7500    0.0000 C.3     1  LIG1        0.2089
     27 C           4.4630    1.2330    0.0000 C.3     1  LIG1        0.0513
     28 C           0.9960   -0.7330    0.0000 C.ar    1  LIG1        0.0230
     29 O          -1.6000    0.7920    0.0000 O.2     1  LIG1       -0.2729
@<TRIPOS>BOND
     1     1     2    1
     2     1     5    1
     3     1    11    1
     4     2     3    1
     5     2     8    1
     6     3     4    1
     7     3     7    1
     8     4     5    1
     9     5     6    1
    10     6     7    2
    11     8     9   ar
    12     8    10   ar
    13    11    12   am
    14    11    29    2
    15    12    13    1
    16    13    14   ar
    17    13    28   ar
    18    14    15   ar
    19    15    16    1
    20    15    21   ar
    21    16    17    2
    22    16    18    1
    23    18    19    1
    24    19    20    1
    25    21    22   ar
    26    22    23    1
    27    22    28   ar
    28    23    24    2
    29    23    25    1
    30    25    26    1
    31    26    27    1
