@<TRIPOS>MOLECULE
27455_ChemDiv_K783-6847
 21 22 0 0 0
SMALL
GASTEIGER
Energy = 0

@<TRIPOS>ATOM
      1 C           2.8580   -0.3130    0.0000 C.ar    1  LIG1        0.2077
      2 S           3.6580   -0.9000    0.0000 S.2     1  LIG1       -0.0330
      3 C           3.3540   -1.8540    0.0000 C.ar    1  LIG1        0.1124
      4 N           2.3540   -1.8500    0.0000 N.ar    1  LIG1       -0.1440
      5 N           2.0540   -0.9000    0.0000 N.ar    1  LIG1       -0.1239
      6 C           3.9330   -2.6670    0.0000 C.3     1  LIG1        0.0545
      7 C           4.9290   -2.5630    0.0000 C.3     1  LIG1        0.0073
      8 N           2.8580    0.6880    0.0000 N.am    1  LIG1       -0.1528
      9 C           1.9960    1.1710    0.0000 C.2     1  LIG1        0.2482
     10 C           1.1330    0.6710    0.0000 C.3     1  LIG1        0.0989
     11 C           0.2670    1.1710    0.0000 C.3     1  LIG1        0.0672
     12 S          -0.6040    0.6710    0.0000 S.3     1  LIG1       -0.1393
     13 C          -1.4670    1.1630    0.0000 C.3     1  LIG1        0.0639
     14 C          -2.3330    0.6630    0.0000 C.3     1  LIG1        0.0574
     15 C          -3.2040    1.1580    0.0000 C.ar    1  LIG1        0.0599
     16 N          -4.0670    0.6580    0.0000 N.ar    1  LIG1       -0.2481
     17 C          -4.9330    1.1580    0.0000 C.ar    1  LIG1        0.0984
     18 C          -4.9330    2.1580    0.0000 C.ar    1  LIG1        0.0207
     19 C          -4.0670    2.6710    0.0000 C.ar    1  LIG1        0.0028
     20 C          -3.2040    2.1710    0.0000 C.ar    1  LIG1        0.0148
     21 O           1.9960    2.1830    0.0000 O.2     1  LIG1       -0.2729
@<TRIPOS>BOND
     1     1     2   ar
     2     1     5   ar
     3     1     8    1
     4     2     3   ar
     5     3     4   ar
     6     3     6    1
     7     4     5   ar
     8     6     7    1
     9     8     9   am
    10     9    10    1
    11     9    21    2
    12    10    11    1
    13    11    12    1
    14    12    13    1
    15    13    14    1
    16    14    15    1
    17    15    16   ar
    18    15    20   ar
    19    16    17   ar
    20    17    18   ar
    21    18    19   ar
    22    19    20   ar
