@<TRIPOS>MOLECULE
27458_ChemDiv_2187-1894
 29 33 0 0 0
SMALL
GASTEIGER
Energy = 0

@<TRIPOS>ATOM
      1 C           1.3250    0.0210    0.0000 C.ar    1  LIG1        0.0937
      2 C           0.4420    0.5080    0.0000 C.ar    1  LIG1        0.3472
      3 O           0.4420    1.5170    0.0000 O.2     1  LIG1       -0.4209
      4 C           1.3250    2.0040    0.0000 C.ar    1  LIG1        0.1519
      5 C           2.1830    1.5170    0.0000 C.ar    1  LIG1        0.0351
      6 C           2.1830    0.5080    0.0000 C.ar    1  LIG1        0.0110
      7 C           3.0540    2.0040    0.0000 C.ar    1  LIG1        0.0063
      8 C           3.0540    3.0080    0.0000 C.ar    1  LIG1        0.0422
      9 C           2.1830    3.4920    0.0000 C.ar    1  LIG1        0.1988
     10 C           1.3250    3.0080    0.0000 C.ar    1  LIG1        0.0796
     11 O           2.1830    4.4710    0.0000 O.3     1  LIG1       -0.2865
     12 O          -0.4290    0.0210    0.0000 O.2     1  LIG1       -0.2444
     13 C           1.3250   -0.9830    0.0000 C.ar    1  LIG1        0.0871
     14 N           2.1830   -1.5080    0.0000 N.ar    1  LIG1       -0.2492
     15 C           2.1830   -2.4670    0.0000 C.ar    1  LIG1        0.0656
     16 C           1.3250   -2.9750    0.0000 C.ar    1  LIG1        0.0897
     17 C           1.3250   -3.9460    0.0000 C.ar    1  LIG1        0.3469
     18 O           0.4420   -4.4750    0.0000 O.2     1  LIG1       -0.4209
     19 C          -0.4290   -3.9460    0.0000 C.ar    1  LIG1        0.1519
     20 C          -0.4290   -2.9750    0.0000 C.ar    1  LIG1        0.0352
     21 C           0.4420   -2.4670    0.0000 C.ar    1  LIG1        0.0118
     22 C           0.4420   -1.5080    0.0000 C.ar    1  LIG1        0.0196
     23 C          -1.3000   -2.4670    0.0000 C.ar    1  LIG1        0.0063
     24 C          -2.1790   -2.9750    0.0000 C.ar    1  LIG1        0.0422
     25 C          -2.1790   -3.9460    0.0000 C.ar    1  LIG1        0.1988
     26 C          -1.3000   -4.4750    0.0000 C.ar    1  LIG1        0.0796
     27 O          -3.0580   -4.4000    0.0000 O.3     1  LIG1       -0.2865
     28 O           2.1830   -4.4750    0.0000 O.2     1  LIG1       -0.2444
     29 C           3.0540   -2.9750    0.0000 C.3     1  LIG1        0.0523
@<TRIPOS>BOND
     1     1     2   ar
     2     1     6   ar
     3     1    13    1
     4     2     3   ar
     5     2    12    2
     6     3     4   ar
     7     4     5   ar
     8     4    10   ar
     9     5     6   ar
    10     5     7   ar
    11     7     8   ar
    12     8     9   ar
    13     9    10   ar
    14     9    11    1
    15    13    14   ar
    16    13    22   ar
    17    14    15   ar
    18    15    16   ar
    19    15    29    1
    20    16    17   ar
    21    16    21   ar
    22    17    18   ar
    23    17    28    2
    24    18    19   ar
    25    19    20   ar
    26    19    26   ar
    27    20    21   ar
    28    20    23   ar
    29    21    22   ar
    30    23    24   ar
    31    24    25   ar
    32    25    26   ar
    33    25    27    1
