@<TRIPOS>MOLECULE
27453_ChemDiv_1937-0310
 26 28 0 0 0
SMALL
GASTEIGER
Energy = 0

@<TRIPOS>ATOM
      1 C           2.0000    0.9420    0.0000 C.ar    1  LIG1        0.2077
      2 S           1.1750    0.3330    0.0000 S.2     1  LIG1       -0.0330
      3 C           0.3210    0.9170    0.0000 C.ar    1  LIG1        0.1142
      4 N           0.6460    1.8880    0.0000 N.ar    1  LIG1       -0.1439
      5 N           1.7170    1.8880    0.0000 N.ar    1  LIG1       -0.1239
      6 C          -0.6460    0.6040    0.0000 C.3     1  LIG1        0.0802
      7 C          -1.3750    1.2540    0.0000 C.3     1  LIG1        0.1628
      8 S          -2.3080    0.9420    0.0000 S.O2    1  LIG1        0.0091
      9 C          -3.2420    0.6330    0.0000 C.ar    1  LIG1        0.1057
     10 C          -3.9880    1.2880    0.0000 C.ar    1  LIG1        0.0180
     11 C          -4.9380    0.9580    0.0000 C.ar    1  LIG1       -0.0029
     12 C          -5.1170   -0.0170    0.0000 C.ar    1  LIG1       -0.0218
     13 C          -4.3710   -0.6670    0.0000 C.ar    1  LIG1       -0.0029
     14 C          -3.4250   -0.3290    0.0000 C.ar    1  LIG1        0.0180
     15 C          -6.0500   -0.3380    0.0000 C.3     1  LIG1        0.0310
     16 O          -2.6210    1.8790    0.0000 O.2     1  LIG1       -0.1686
     17 O          -2.0040    0.0170    0.0000 O.2     1  LIG1       -0.1686
     18 N           2.9580    0.6540    0.0000 N.am    1  LIG1       -0.1529
     19 C           3.1880   -0.3290    0.0000 C.2     1  LIG1        0.2468
     20 O           2.4670   -1.0080    0.0000 O.2     1  LIG1       -0.2729
     21 C           4.1380   -0.6210    0.0000 C.3     1  LIG1        0.0786
     22 C           4.3540   -1.6040    0.0000 C.3     1  LIG1        0.0091
     23 C           5.3210   -1.8830    0.0000 C.3     1  LIG1        0.0005
     24 C           6.0500   -1.1830    0.0000 C.3     1  LIG1        0.0000
     25 C           5.8170   -0.2290    0.0000 C.3     1  LIG1        0.0005
     26 C           4.8670    0.0500    0.0000 C.3     1  LIG1        0.0091
@<TRIPOS>BOND
     1     1     2   ar
     2     1     5   ar
     3     1    18    1
     4     2     3   ar
     5     3     4   ar
     6     3     6    1
     7     4     5   ar
     8     6     7    1
     9     7     8    1
    10     8     9    1
    11     8    16    2
    12     8    17    2
    13     9    10   ar
    14     9    14   ar
    15    10    11   ar
    16    11    12   ar
    17    12    13   ar
    18    12    15    1
    19    13    14   ar
    20    18    19   am
    21    19    20    2
    22    19    21    1
    23    21    22    1
    24    21    26    1
    25    22    23    1
    26    23    24    1
    27    24    25    1
    28    25    26    1
