@<TRIPOS>MOLECULE
27477_ChemDiv_1956-0018
 22 23 0 0 0
SMALL
GASTEIGER
Energy = 0

@<TRIPOS>ATOM
      1 S          -0.2630   -0.4920    0.0000 S.O2    1  LIG1        0.0769
      2 C          -1.2500   -0.4920    0.0000 C.ar    1  LIG1        0.1235
      3 C          -1.7540    0.4000    0.0000 C.ar    1  LIG1        0.0196
      4 C          -2.7500    0.4000    0.0000 C.ar    1  LIG1       -0.0029
      5 C          -3.2500   -0.4920    0.0000 C.ar    1  LIG1       -0.0218
      6 C          -2.7500   -1.3500    0.0000 C.ar    1  LIG1       -0.0029
      7 C          -1.7540   -1.3500    0.0000 C.ar    1  LIG1        0.0196
      8 C          -4.2420   -0.4920    0.0000 C.3     1  LIG1        0.0310
      9 O          -0.2630    0.5170    0.0000 O.2     1  LIG1       -0.1516
     10 O          -0.2630   -1.4830    0.0000 O.2     1  LIG1       -0.1516
     11 N           0.7460   -0.4920    0.0000 N.3     1  LIG1       -0.0759
     12 C           1.2540    0.3830    0.0000 C.3     1  LIG1        0.1388
     13 C           2.2420    0.3830    0.0000 C.3     1  LIG1        0.1361
     14 N           2.7460    1.2540    0.0000 N.am    1  LIG1       -0.1988
     15 C           3.7380    1.2540    0.0000 C.2     1  LIG1        0.2992
     16 C           4.2380    0.3670    0.0000 C.3     1  LIG1        0.2265
     17 N           3.7380   -0.4920    0.0000 N.4     1  LIG1        0.3844
     18 C           4.2210   -1.3630    0.0000 C.3     1  LIG1        0.1395
     19 C           3.5580   -2.1040    0.0000 C.3     1  LIG1        0.0689
     20 C           2.6500   -1.6920    0.0000 C.3     1  LIG1        0.0689
     21 C           2.7460   -0.7040    0.0000 C.3     1  LIG1        0.1395
     22 O           4.2380    2.1080    0.0000 O.2     1  LIG1       -0.2669
@<TRIPOS>BOND
     1     1     2    1
     2     1     9    2
     3     1    10    2
     4     1    11    1
     5     2     3   ar
     6     2     7   ar
     7     3     4   ar
     8     4     5   ar
     9     5     6   ar
    10     5     8    1
    11     6     7   ar
    12    11    12    1
    13    12    13    1
    14    13    14    1
    15    14    15   am
    16    15    16    1
    17    15    22    2
    18    16    17    1
    19    17    18    1
    20    17    21    1
    21    18    19    1
    22    19    20    1
    23    20    21    1
