@<TRIPOS>MOLECULE
27473_ChemDiv_1950-0252
 33 35 0 0 0
SMALL
GASTEIGER
Energy = 0

@<TRIPOS>ATOM
      1 C          -0.2880   -0.8330    0.0000 C.ar    1  LIG1        0.1432
      2 C          -1.2420   -0.7290    0.0000 C.ar    1  LIG1        0.1402
      3 C          -1.4420    0.2210    0.0000 C.ar    1  LIG1        0.0825
      4 N          -0.5630    0.7330    0.0000 N.ar    1  LIG1       -0.2998
      5 C           0.1540    0.0500    0.0000 C.ar    1  LIG1        0.1218
      6 C           1.1750    0.1880    0.0000 C.2     1  LIG1        0.2128
      7 C           1.5420    1.1130    0.0000 C.ar    1  LIG1        0.0405
      8 C           2.5330    1.2420    0.0000 C.ar    1  LIG1        0.0037
      9 C           2.9040    2.2000    0.0000 C.ar    1  LIG1        0.0068
     10 C           2.2670    2.9830    0.0000 C.ar    1  LIG1        0.0346
     11 C           1.3080    2.8170    0.0000 C.ar    1  LIG1        0.0068
     12 C           0.9420    1.8880    0.0000 C.ar    1  LIG1        0.0037
     13 BR          2.6040    3.9290    0.0000 Br      1  LIG1       -0.0490
     14 O           1.7920   -0.5880    0.0000 O.2     1  LIG1       -0.2850
     15 C          -0.5630    1.7170    0.0000 C.ar    1  LIG1        0.0830
     16 C          -1.4420    2.2000    0.0000 C.ar    1  LIG1        0.0523
     17 C          -2.2630    1.7540    0.0000 C.ar    1  LIG1        0.0059
     18 C          -2.2920    0.7330    0.0000 C.ar    1  LIG1        0.0190
     19 C          -1.4750    3.2210    0.0000 C.2     1  LIG1        0.1749
     20 O          -0.5920    3.7290    0.0000 O.2     1  LIG1       -0.2913
     21 C          -2.3710    3.6960    0.0000 C.3     1  LIG1        0.0773
     22 S          -1.8880   -1.4790    0.0000 S.O2    1  LIG1        0.0113
     23 O          -1.1380   -2.1580    0.0000 O.2     1  LIG1       -0.1685
     24 O          -2.6290   -0.8000    0.0000 O.2     1  LIG1       -0.1685
     25 C          -2.5670   -2.2210    0.0000 C.3     1  LIG1        0.1560
     26 C          -2.2250   -3.1790    0.0000 C.3     1  LIG1        0.0258
     27 C          -2.9080   -3.9250    0.0000 C.3     1  LIG1        0.0019
     28 S           0.1830   -1.7500    0.0000 S.O2    1  LIG1        0.0114
     29 O           1.0750   -1.2670    0.0000 O.2     1  LIG1       -0.1685
     30 O          -0.7330   -2.1960    0.0000 O.2     1  LIG1       -0.1685
     31 C           0.6290   -2.6250    0.0000 C.3     1  LIG1        0.1560
     32 C           1.6210   -2.7040    0.0000 C.3     1  LIG1        0.0258
     33 C           2.0960   -3.5830    0.0000 C.3     1  LIG1        0.0019
@<TRIPOS>BOND
     1     1     2   ar
     2     1     5   ar
     3     1    28    1
     4     2     3   ar
     5     2    22    1
     6     3     4   ar
     7     3    18   ar
     8     4     5   ar
     9     4    15   ar
    10     5     6    1
    11     6     7    1
    12     6    14    2
    13     7     8   ar
    14     7    12   ar
    15     8     9   ar
    16     9    10   ar
    17    10    11   ar
    18    10    13    1
    19    11    12   ar
    20    15    16   ar
    21    16    17   ar
    22    16    19    1
    23    17    18   ar
    24    19    20    2
    25    19    21    1
    26    22    23    2
    27    22    24    2
    28    22    25    1
    29    25    26    1
    30    26    27    1
    31    28    29    2
    32    28    30    2
    33    28    31    1
    34    31    32    1
    35    32    33    1
