@<TRIPOS>MOLECULE
27487_ChemDiv_2374-0013
 23 26 0 0 0
SMALL
GASTEIGER
Energy = 0

@<TRIPOS>ATOM
      1 N          -1.1920   -0.0580    0.0000 N.pl3   1  LIG1       -0.2352
      2 C          -0.3210   -0.5710    0.0000 C.3     1  LIG1        0.1155
      3 C           0.5380   -0.0580    0.0000 C.3     1  LIG1        0.0365
      4 C           0.5380    0.9710    0.0000 C.3     1  LIG1        0.0475
      5 C          -0.3210    1.4460    0.0000 C.ar    1  LIG1       -0.0035
      6 C          -1.1920    0.9710    0.0000 C.ar    1  LIG1        0.0619
      7 C          -2.0670    1.4460    0.0000 C.ar    1  LIG1        0.0158
      8 C          -2.0670    2.4710    0.0000 C.ar    1  LIG1        0.0024
      9 C          -1.1920    2.9580    0.0000 C.ar    1  LIG1        0.0138
     10 C          -0.3210    2.4710    0.0000 C.ar    1  LIG1       -0.0016
     11 C          -1.1920    3.9540    0.0000 C.2     1  LIG1        0.0729
     12 O          -2.0170    4.5330    0.0000 O.co2   1  LIG1       -0.5446
     13 O          -0.3040    4.3830    0.0000 O.co2   1  LIG1       -0.5446
     14 C           1.5130    1.2750    0.0000 C.2     1  LIG1       -0.0265
     15 C           2.0630    0.4630    0.0000 C.2     1  LIG1       -0.0303
     16 C           1.5130   -0.3580    0.0000 C.3     1  LIG1        0.0284
     17 C          -0.3210   -1.5580    0.0000 C.ar    1  LIG1       -0.0026
     18 C           0.5380   -2.0330    0.0000 C.ar    1  LIG1       -0.0018
     19 C           0.5540   -3.0290    0.0000 C.ar    1  LIG1        0.0111
     20 C          -0.3040   -3.5380    0.0000 C.ar    1  LIG1        0.0577
     21 C          -1.1460   -3.0500    0.0000 C.ar    1  LIG1        0.0111
     22 C          -1.1670   -2.0540    0.0000 C.ar    1  LIG1       -0.0018
     23 CL         -0.3040   -4.5330    0.0000 Cl      1  LIG1       -0.0822
@<TRIPOS>BOND
     1     1     2    1
     2     1     6    1
     3     2     3    1
     4     2    17    1
     5     3     4    1
     6     3    16    1
     7     4     5    1
     8     4    14    1
     9     5     6   ar
    10     5    10   ar
    11     6     7   ar
    12     7     8   ar
    13     8     9   ar
    14     9    10   ar
    15     9    11    1
    16    11    12   ar
    17    11    13   ar
    18    14    15    2
    19    15    16    1
    20    17    18   ar
    21    17    22   ar
    22    18    19   ar
    23    19    20   ar
    24    20    21   ar
    25    20    23    1
    26    21    22   ar
