@<TRIPOS>MOLECULE
27488_ChemDiv_2036-1339
 32 34 0 0 0
SMALL
GASTEIGER
Energy = 0

@<TRIPOS>ATOM
      1 C           5.9790    0.0000    0.0000 C.2     1  LIG1        0.2446
      2 N           5.4920    0.8710    0.0000 N.am    1  LIG1       -0.1792
      3 C           4.4830    0.8710    0.0000 C.ar    1  LIG1        0.0734
      4 C           3.9880    1.7290    0.0000 C.ar    1  LIG1        0.0166
      5 C           2.9880    1.7290    0.0000 C.ar    1  LIG1        0.0014
      6 C           2.4790    0.8710    0.0000 C.ar    1  LIG1        0.0031
      7 C           1.4830    0.8710    0.0000 C.ar    1  LIG1        0.0384
      8 C           0.9960    0.0000    0.0000 C.ar    1  LIG1        0.1021
      9 N          -0.0080    0.0000    0.0000 N.ar    1  LIG1       -0.2250
     10 C          -0.4960    0.8710    0.0000 C.ar    1  LIG1        0.1623
     11 N          -0.0080    1.7290    0.0000 N.ar    1  LIG1       -0.2250
     12 C           0.9960    1.7290    0.0000 C.ar    1  LIG1        0.1021
     13 C          -1.5040    0.8710    0.0000 C.ar    1  LIG1        0.0359
     14 C          -1.9960    1.7290    0.0000 C.ar    1  LIG1        0.0044
     15 C          -3.0000    1.7290    0.0000 C.ar    1  LIG1        0.0167
     16 C          -3.4880    0.8710    0.0000 C.ar    1  LIG1        0.0734
     17 N          -4.4960    0.8710    0.0000 N.am    1  LIG1       -0.1792
     18 C          -4.9920    0.0000    0.0000 C.2     1  LIG1        0.2446
     19 C          -5.9960    0.0000    0.0000 C.3     1  LIG1        0.0709
     20 C          -6.9830    0.0000    0.0000 C.3     1  LIG1        0.0091
     21 C          -5.9960    1.0080    0.0000 C.3     1  LIG1        0.0091
     22 C          -5.9960   -1.0040    0.0000 C.3     1  LIG1        0.0091
     23 O          -4.4960   -0.8670    0.0000 O.2     1  LIG1       -0.2730
     24 C          -3.0000    0.0000    0.0000 C.ar    1  LIG1        0.0167
     25 C          -1.9960    0.0000    0.0000 C.ar    1  LIG1        0.0044
     26 C           2.9880    0.0000    0.0000 C.ar    1  LIG1        0.0014
     27 C           3.9880    0.0000    0.0000 C.ar    1  LIG1        0.0166
     28 C           5.4920   -0.8670    0.0000 C.3     1  LIG1        0.0709
     29 C           4.6170   -0.3500    0.0000 C.3     1  LIG1        0.0091
     30 C           4.9710   -1.7250    0.0000 C.3     1  LIG1        0.0091
     31 C           6.3630   -1.3580    0.0000 C.3     1  LIG1        0.0091
     32 O           6.9830    0.0000    0.0000 O.2     1  LIG1       -0.2730
@<TRIPOS>BOND
     1     1     2   am
     2     1    28    1
     3     1    32    2
     4     2     3    1
     5     3     4   ar
     6     3    27   ar
     7     4     5   ar
     8     5     6   ar
     9     6     7    1
    10     6    26   ar
    11     7     8   ar
    12     7    12   ar
    13     8     9   ar
    14     9    10   ar
    15    10    11   ar
    16    10    13    1
    17    11    12   ar
    18    13    14   ar
    19    13    25   ar
    20    14    15   ar
    21    15    16   ar
    22    16    17    1
    23    16    24   ar
    24    17    18   am
    25    18    19    1
    26    18    23    2
    27    19    20    1
    28    19    21    1
    29    19    22    1
    30    24    25   ar
    31    26    27   ar
    32    28    29    1
    33    28    30    1
    34    28    31    1
