@<TRIPOS>MOLECULE
27494_ChemDiv_2141-0117
 13 14 0 0 0
SMALL
GASTEIGER
Energy = 0

@<TRIPOS>ATOM
      1 C           0.0040    0.3880    0.0000 C.ar    1  LIG1        0.2513
      2 O           0.9460    0.0210    0.0000 O.2     1  LIG1       -0.4104
      3 C           1.5750    0.7790    0.0000 C.ar    1  LIG1        0.2886
      4 N           1.0330    1.6330    0.0000 N.ar    1  LIG1       -0.0998
      5 N           0.0630    1.3670    0.0000 N.ar    1  LIG1       -0.1064
      6 S           2.5750    0.7210    0.0000 S.2     1  LIG1        0.0128
      7 C          -0.8500   -0.1170    0.0000 C.ar    1  LIG1        0.0657
      8 C          -1.7170    0.3880    0.0000 C.ar    1  LIG1        0.0622
      9 CL         -1.7170    1.3790    0.0000 Cl      1  LIG1       -0.0821
     10 C          -2.5790   -0.1290    0.0000 C.ar    1  LIG1        0.0115
     11 C          -2.5790   -1.1170    0.0000 C.ar    1  LIG1        0.0009
     12 C          -1.7170   -1.6290    0.0000 C.ar    1  LIG1        0.0002
     13 C          -0.8500   -1.1290    0.0000 C.ar    1  LIG1        0.0056
@<TRIPOS>BOND
     1     1     2   ar
     2     1     5   ar
     3     1     7    1
     4     2     3   ar
     5     3     4   ar
     6     3     6    2
     7     4     5   ar
     8     7     8   ar
     9     7    13   ar
    10     8     9    1
    11     8    10   ar
    12    10    11   ar
    13    11    12   ar
    14    12    13   ar
