@<TRIPOS>MOLECULE
27498_ChemDiv_4719-0093
 14 15 0 0 0
SMALL
GASTEIGER
Energy = 0

@<TRIPOS>ATOM
      1 O           1.7670   -0.2500    0.0000 O.2     1  LIG1       -0.4104
      2 C           0.9630    0.3380    0.0000 C.ar    1  LIG1        0.2505
      3 N           1.2750    1.3040    0.0000 N.ar    1  LIG1       -0.1064
      4 N           2.2920    1.3040    0.0000 N.ar    1  LIG1       -0.0998
      5 C           2.6000    0.3540    0.0000 C.ar    1  LIG1        0.2886
      6 S           3.5500    0.0710    0.0000 S.2     1  LIG1        0.0128
      7 C           0.0250    0.0170    0.0000 C.ar    1  LIG1        0.0553
      8 C          -0.7420    0.6580    0.0000 C.ar    1  LIG1        0.0078
      9 C          -1.6750    0.3250    0.0000 C.ar    1  LIG1        0.0371
     10 C          -1.8670   -0.6630    0.0000 C.ar    1  LIG1        0.1387
     11 C          -1.0880   -1.3000    0.0000 C.ar    1  LIG1        0.0371
     12 C          -0.1670   -0.9630    0.0000 C.ar    1  LIG1        0.0078
     13 O          -2.8040   -1.0000    0.0000 O.3     1  LIG1       -0.4714
     14 C          -3.5540   -0.3580    0.0000 C.3     1  LIG1        0.2525
@<TRIPOS>BOND
     1     1     2   ar
     2     1     5   ar
     3     2     3   ar
     4     2     7    1
     5     3     4   ar
     6     4     5   ar
     7     5     6    2
     8     7     8   ar
     9     7    12   ar
    10     8     9   ar
    11     9    10   ar
    12    10    11   ar
    13    10    13    1
    14    11    12   ar
    15    13    14    1
