@<TRIPOS>MOLECULE
27496_ChemDiv_4719-0092
 14 15 0 0 0
SMALL
GASTEIGER
Energy = 0

@<TRIPOS>ATOM
      1 C           0.1170    0.0040    0.0000 C.ar    1  LIG1        0.2534
      2 O           0.9250   -0.5830    0.0000 O.2     1  LIG1       -0.4103
      3 C           1.7630    0.0210    0.0000 C.ar    1  LIG1        0.2886
      4 N           1.4540    0.9710    0.0000 N.ar    1  LIG1       -0.0998
      5 N           0.4330    0.9710    0.0000 N.ar    1  LIG1       -0.1063
      6 S           2.7130   -0.2670    0.0000 S.2     1  LIG1        0.0128
      7 C          -0.8170   -0.3210    0.0000 C.ar    1  LIG1        0.0890
      8 C          -1.5880    0.3250    0.0000 C.ar    1  LIG1        0.1432
      9 O          -1.4250    1.2960    0.0000 O.3     1  LIG1       -0.4713
     10 C          -0.5130    1.6420    0.0000 C.3     1  LIG1        0.2525
     11 C          -2.5210   -0.0130    0.0000 C.ar    1  LIG1        0.0371
     12 C          -2.7170   -1.0000    0.0000 C.ar    1  LIG1        0.0031
     13 C          -1.9330   -1.6380    0.0000 C.ar    1  LIG1        0.0004
     14 C          -1.0080   -1.3000    0.0000 C.ar    1  LIG1        0.0078
@<TRIPOS>BOND
     1     1     2   ar
     2     1     5   ar
     3     1     7    1
     4     2     3   ar
     5     3     4   ar
     6     3     6    2
     7     4     5   ar
     8     7     8   ar
     9     7    14   ar
    10     8     9    1
    11     8    11   ar
    12     9    10    1
    13    11    12   ar
    14    12    13   ar
    15    13    14   ar
