@<TRIPOS>MOLECULE
27506_ChemDiv_5246-0050
 15 16 0 0 0
SMALL
GASTEIGER
Energy = 0

@<TRIPOS>ATOM
      1 N          -2.9460   -0.2830    0.0000 N.ar    1  LIG1       -0.2224
      2 C          -1.9500   -0.2830    0.0000 C.ar    1  LIG1        0.1022
      3 C          -1.1710    0.2880    0.0000 C.ar    1  LIG1        0.0193
      4 C          -1.1710    1.2710    0.0000 C.ar    1  LIG1        0.0029
      5 C          -0.2500    1.7750    0.0000 C.ar    1  LIG1        0.0166
      6 C           0.6000    1.2710    0.0000 C.ar    1  LIG1        0.0734
      7 N           1.4500    1.7750    0.0000 N.am    1  LIG1       -0.1792
      8 C           2.3040    1.2710    0.0000 C.2     1  LIG1        0.2461
      9 O           2.3040    0.2880    0.0000 O.2     1  LIG1       -0.2730
     10 C           3.2250    1.7750    0.0000 C.3     1  LIG1        0.0968
     11 C           0.6000    0.2880    0.0000 C.ar    1  LIG1        0.0166
     12 C          -0.2500   -0.2830    0.0000 C.ar    1  LIG1        0.0029
     13 C          -1.5960   -1.1330    0.0000 C.ar    1  LIG1        0.1197
     14 N          -2.3750   -1.7710    0.0000 N.ar    1  LIG1       -0.2209
     15 C          -3.2290   -1.2040    0.0000 C.ar    1  LIG1        0.1990
@<TRIPOS>BOND
     1     1     2   ar
     2     1    15   ar
     3     2     3    1
     4     2    13   ar
     5     3     4   ar
     6     3    12   ar
     7     4     5   ar
     8     5     6   ar
     9     6     7    1
    10     6    11   ar
    11     7     8   am
    12     8     9    2
    13     8    10    1
    14    11    12   ar
    15    13    14   ar
    16    14    15   ar
