@<TRIPOS>MOLECULE
27504_ChemDiv_6161-0013
 13 14 0 0 0
SMALL
GASTEIGER
Energy = 0

@<TRIPOS>ATOM
      1 O           0.9330    1.0380    0.0000 O.2     1  LIG1       -0.4104
      2 C          -0.0540    0.9380    0.0000 C.ar    1  LIG1        0.2505
      3 N          -0.4710    1.8420    0.0000 N.ar    1  LIG1       -0.1064
      4 N           0.2790    2.5170    0.0000 N.ar    1  LIG1       -0.0998
      5 C           1.1460    2.0210    0.0000 C.ar    1  LIG1        0.2886
      6 S           2.0540    2.4290    0.0000 S.2     1  LIG1        0.0128
      7 C          -0.5630    0.0750    0.0000 C.ar    1  LIG1        0.0552
      8 C          -1.5580    0.0830    0.0000 C.ar    1  LIG1        0.0052
      9 C          -2.0580   -0.7880    0.0000 C.ar    1  LIG1        0.0068
     10 C          -1.5580   -1.6540    0.0000 C.ar    1  LIG1        0.0346
     11 C          -0.5500   -1.6460    0.0000 C.ar    1  LIG1        0.0068
     12 C          -0.0540   -0.7880    0.0000 C.ar    1  LIG1        0.0052
     13 BR         -2.0580   -2.5130    0.0000 Br      1  LIG1       -0.0490
@<TRIPOS>BOND
     1     1     2   ar
     2     1     5   ar
     3     2     3   ar
     4     2     7    1
     5     3     4   ar
     6     4     5   ar
     7     5     6    2
     8     7     8   ar
     9     7    12   ar
    10     8     9   ar
    11     9    10   ar
    12    10    11   ar
    13    10    13    1
    14    11    12   ar
