@<TRIPOS>MOLECULE
27500_ChemDiv_4719-0098
 13 14 0 0 0
SMALL
GASTEIGER
Energy = 0

@<TRIPOS>ATOM
      1 O           1.1960   -0.2500    0.0000 O.2     1  LIG1       -0.4104
      2 C           0.3920    0.3380    0.0000 C.ar    1  LIG1        0.2505
      3 N           0.7040    1.3000    0.0000 N.ar    1  LIG1       -0.1064
      4 N           1.7250    1.3000    0.0000 N.ar    1  LIG1       -0.0998
      5 C           2.0330    0.3540    0.0000 C.ar    1  LIG1        0.2886
      6 S           2.9790    0.0710    0.0000 S.2     1  LIG1        0.0128
      7 C          -0.5420    0.0170    0.0000 C.ar    1  LIG1        0.0560
      8 C          -1.3080    0.6580    0.0000 C.ar    1  LIG1        0.0161
      9 C          -2.2420    0.3250    0.0000 C.ar    1  LIG1        0.0578
     10 CL         -2.9830    0.9790    0.0000 Cl      1  LIG1       -0.0822
     11 C          -2.4330   -0.6630    0.0000 C.ar    1  LIG1        0.0114
     12 C          -1.6540   -1.2960    0.0000 C.ar    1  LIG1        0.0010
     13 C          -0.7330   -0.9630    0.0000 C.ar    1  LIG1        0.0048
@<TRIPOS>BOND
     1     1     2   ar
     2     1     5   ar
     3     2     3   ar
     4     2     7    1
     5     3     4   ar
     6     4     5   ar
     7     5     6    2
     8     7     8   ar
     9     7    13   ar
    10     8     9   ar
    11     9    10    1
    12     9    11   ar
    13    11    12   ar
    14    12    13   ar
