@<TRIPOS>MOLECULE
27502_ChemDiv_4719-0100
 15 16 0 0 0
SMALL
GASTEIGER
Energy = 0

@<TRIPOS>ATOM
      1 C           0.1170    0.4960    0.0000 C.ar    1  LIG1        0.2534
      2 O           0.9250   -0.0920    0.0000 O.2     1  LIG1       -0.4103
      3 C           1.7630    0.5170    0.0000 C.ar    1  LIG1        0.2886
      4 N           1.4540    1.4630    0.0000 N.ar    1  LIG1       -0.0998
      5 N           0.4330    1.4630    0.0000 N.ar    1  LIG1       -0.1063
      6 S           2.7130    0.2290    0.0000 S.2     1  LIG1        0.0128
      7 C          -0.8170    0.1750    0.0000 C.ar    1  LIG1        0.0899
      8 C          -1.5880    0.8210    0.0000 C.ar    1  LIG1        0.1433
      9 C          -2.5210    0.4830    0.0000 C.ar    1  LIG1        0.0379
     10 C          -2.7170   -0.5040    0.0000 C.ar    1  LIG1        0.0145
     11 C          -1.9330   -1.1420    0.0000 C.ar    1  LIG1        0.0580
     12 C          -1.0080   -0.8040    0.0000 C.ar    1  LIG1        0.0191
     13 CL         -2.0710   -2.1290    0.0000 Cl      1  LIG1       -0.0822
     14 O          -1.4250    1.7920    0.0000 O.3     1  LIG1       -0.4713
     15 C          -0.5130    2.1330    0.0000 C.3     1  LIG1        0.2525
@<TRIPOS>BOND
     1     1     2   ar
     2     1     5   ar
     3     1     7    1
     4     2     3   ar
     5     3     4   ar
     6     3     6    2
     7     4     5   ar
     8     7     8   ar
     9     7    12   ar
    10     8     9   ar
    11     8    14    1
    12     9    10   ar
    13    10    11   ar
    14    11    12   ar
    15    11    13    1
    16    14    15    1
