@<TRIPOS>MOLECULE
27526_ChemDiv_K822-0356
 16 18 0 0 0
SMALL
GASTEIGER
Energy = 0

@<TRIPOS>ATOM
      1 C           0.8710   -0.3920    0.0000 C.ar    1  LIG1        0.2680
      2 O           1.7830    0.0170    0.0000 O.2     1  LIG1       -0.4089
      3 C           2.4460   -0.7420    0.0000 C.ar    1  LIG1        0.2886
      4 N           1.9460   -1.6040    0.0000 N.ar    1  LIG1       -0.0998
      5 N           0.9750   -1.4040    0.0000 N.ar    1  LIG1       -0.1048
      6 S           3.4460   -0.7420    0.0000 S.2     1  LIG1        0.0128
      7 C           0.0040    0.1080    0.0000 C.ar    1  LIG1        0.1362
      8 N          -0.8580   -0.3920    0.0000 N.ar    1  LIG1       -0.2406
      9 C          -1.7210    0.1080    0.0000 C.ar    1  LIG1        0.0814
     10 C          -1.7210    1.1080    0.0000 C.ar    1  LIG1        0.0177
     11 C          -0.8580    1.6080    0.0000 C.ar    1  LIG1        0.0032
     12 C           0.0040    1.1080    0.0000 C.ar    1  LIG1        0.0240
     13 C          -2.5830    1.6080    0.0000 C.ar    1  LIG1        0.0015
     14 C          -3.4500    1.1080    0.0000 C.ar    1  LIG1        0.0001
     15 C          -3.4500    0.1080    0.0000 C.ar    1  LIG1        0.0015
     16 C          -2.5830   -0.3920    0.0000 C.ar    1  LIG1        0.0191
@<TRIPOS>BOND
     1     1     2   ar
     2     1     5   ar
     3     1     7    1
     4     2     3   ar
     5     3     4   ar
     6     3     6    2
     7     4     5   ar
     8     7     8   ar
     9     7    12   ar
    10     8     9   ar
    11     9    10   ar
    12     9    16   ar
    13    10    11   ar
    14    10    13   ar
    15    11    12   ar
    16    13    14   ar
    17    14    15   ar
    18    15    16   ar
