@<TRIPOS>MOLECULE
27527_ChemDiv_1869-0169
 32 36 0 0 0
SMALL
GASTEIGER
Energy = 0

@<TRIPOS>ATOM
      1 N          -1.8880    0.7210    0.0000 N.ar    1  LIG1       -0.3243
      2 C          -1.5040   -0.1540    0.0000 C.ar    1  LIG1        0.0600
      3 C          -2.2500   -0.7920    0.0000 C.ar    1  LIG1        0.0177
      4 C          -3.0880   -0.2790    0.0000 C.ar    1  LIG1        0.0177
      5 C          -2.8540    0.6830    0.0000 C.ar    1  LIG1        0.0600
      6 C          -3.6130    1.3380    0.0000 C.ar    1  LIG1        0.0177
      7 C          -4.5630    1.0710    0.0000 C.ar    1  LIG1        0.0082
      8 C          -4.8290    0.1250    0.0000 C.ar    1  LIG1        0.0347
      9 C          -4.1000   -0.6000    0.0000 C.ar    1  LIG1        0.0082
     10 BR         -5.7960   -0.0790    0.0000 Br      1  LIG1       -0.0490
     11 C          -2.0670   -1.7920    0.0000 C.ar    1  LIG1        0.0082
     12 C          -1.1580   -2.1290    0.0000 C.ar    1  LIG1        0.0347
     13 C          -0.3380   -1.4630    0.0000 C.ar    1  LIG1        0.0082
     14 C          -0.5380   -0.4540    0.0000 C.ar    1  LIG1        0.0177
     15 BR         -1.0670   -3.1170    0.0000 Br      1  LIG1       -0.0490
     16 C          -1.3750    1.5830    0.0000 C.3     1  LIG1        0.1450
     17 C          -0.3630    1.5630    0.0000 C.3     1  LIG1        0.2306
     18 C           0.1170    0.6920    0.0000 C.3     1  LIG1        0.1740
     19 N           1.1330    0.6920    0.0000 N.4     1  LIG1        0.3820
     20 C           1.6250    1.5580    0.0000 C.3     1  LIG1        0.1607
     21 C           2.6290    1.5580    0.0000 C.3     1  LIG1        0.1568
     22 N           3.1540    0.6920    0.0000 N.am    1  LIG1       -0.2620
     23 C           4.1500    0.6920    0.0000 C.2     1  LIG1        0.2841
     24 C           4.6420    1.5420    0.0000 C.ar    1  LIG1        0.1987
     25 O           4.2040    2.3670    0.0000 O.2     1  LIG1       -0.4458
     26 C           4.8790    3.1210    0.0000 C.ar    1  LIG1        0.1798
     27 C           5.7920    2.6750    0.0000 C.ar    1  LIG1        0.0440
     28 C           5.6290    1.6540    0.0000 C.ar    1  LIG1        0.0455
     29 O           4.6420   -0.1540    0.0000 O.2     1  LIG1       -0.2666
     30 C           2.6460   -0.1830    0.0000 C.3     1  LIG1        0.1568
     31 C           1.6250   -0.1670    0.0000 C.3     1  LIG1        0.1607
     32 O           0.1460    2.4130    0.0000 O.3     1  LIG1       -0.2146
@<TRIPOS>BOND
     1     1     2   ar
     2     1     5   ar
     3     1    16    1
     4     2     3   ar
     5     2    14   ar
     6     3     4   ar
     7     3    11   ar
     8     4     5   ar
     9     4     9   ar
    10     5     6   ar
    11     6     7   ar
    12     7     8   ar
    13     8     9   ar
    14     8    10    1
    15    11    12   ar
    16    12    13   ar
    17    12    15    1
    18    13    14   ar
    19    16    17    1
    20    17    18    1
    21    17    32    1
    22    18    19    1
    23    19    20    1
    24    19    31    1
    25    20    21    1
    26    21    22    1
    27    22    23   am
    28    22    30    1
    29    23    24    1
    30    23    29    2
    31    24    25   ar
    32    24    28   ar
    33    25    26   ar
    34    26    27   ar
    35    27    28   ar
    36    30    31    1
