@<TRIPOS>MOLECULE
27520_ChemDiv_3736-0486
 30 35 0 0 0
SMALL
GASTEIGER
Energy = 0

@<TRIPOS>ATOM
      1 N          -2.2130   -2.0170    0.0000 N.ar    1  LIG1       -0.2521
      2 C          -1.6250   -1.2080    0.0000 C.ar    1  LIG1        0.1818
      3 N          -2.2130   -0.3960    0.0000 N.ar    1  LIG1       -0.2205
      4 C          -3.1830   -0.7130    0.0000 C.ar    1  LIG1        0.0996
      5 C          -3.1670   -1.7290    0.0000 C.ar    1  LIG1        0.0863
      6 C          -4.0540   -2.2250    0.0000 C.ar    1  LIG1        0.0192
      7 C          -4.9040   -1.7290    0.0000 C.ar    1  LIG1        0.0016
      8 C          -4.9040   -0.7130    0.0000 C.ar    1  LIG1        0.0016
      9 C          -4.0540   -0.2170    0.0000 C.ar    1  LIG1        0.0207
     10 S          -0.6710   -1.5080    0.0000 S.2     1  LIG1       -0.0450
     11 C          -0.6710   -2.5130    0.0000 C.ar    1  LIG1        0.0917
     12 C          -1.6250   -2.8290    0.0000 C.ar    1  LIG1        0.2723
     13 O          -1.9130   -3.7830    0.0000 O.2     1  LIG1       -0.2660
     14 C           0.1670   -3.0920    0.0000 C.2     1  LIG1        0.0488
     15 C           1.0170   -2.6040    0.0000 C.ar    1  LIG1        0.1461
     16 O           1.1290   -1.6170    0.0000 O.2     1  LIG1       -0.4535
     17 C           2.1130   -1.4210    0.0000 C.ar    1  LIG1        0.1453
     18 C           2.5960   -2.2920    0.0000 C.ar    1  LIG1        0.0406
     19 C           1.9170   -3.0250    0.0000 C.ar    1  LIG1        0.0406
     20 C           2.5290   -0.5170    0.0000 C.ar    1  LIG1        0.0347
     21 C           1.9710    0.2790    0.0000 C.ar    1  LIG1        0.0046
     22 C           2.3710    1.1960    0.0000 C.ar    1  LIG1        0.0194
     23 C           3.3790    1.2750    0.0000 C.ar    1  LIG1        0.0863
     24 N           3.8000    2.1750    0.0000 N.ar    1  LIG1       -0.1886
     25 N           4.7790    2.3710    0.0000 N.ar    1  LIG1       -0.0385
     26 N           4.9000    3.3670    0.0000 N.ar    1  LIG1       -0.0222
     27 N           3.9960    3.7880    0.0000 N.ar    1  LIG1       -0.1045
     28 C           3.3130    3.0500    0.0000 C.ar    1  LIG1        0.2258
     29 C           3.9580    0.4670    0.0000 C.ar    1  LIG1        0.0194
     30 C           3.5210   -0.4380    0.0000 C.ar    1  LIG1        0.0046
@<TRIPOS>BOND
     1     1     2   ar
     2     1     5   ar
     3     1    12   ar
     4     2     3   ar
     5     2    10   ar
     6     3     4   ar
     7     4     5   ar
     8     4     9   ar
     9     5     6   ar
    10     6     7   ar
    11     7     8   ar
    12     8     9   ar
    13    10    11   ar
    14    11    12   ar
    15    11    14    2
    16    12    13    2
    17    14    15    1
    18    15    16   ar
    19    15    19   ar
    20    16    17   ar
    21    17    18   ar
    22    17    20    1
    23    18    19   ar
    24    20    21   ar
    25    20    30   ar
    26    21    22   ar
    27    22    23   ar
    28    23    24    1
    29    23    29   ar
    30    24    25   ar
    31    24    28   ar
    32    25    26   ar
    33    26    27   ar
    34    27    28   ar
    35    29    30   ar
