@<TRIPOS>MOLECULE
27528_ChemDiv_2141-0195
 20 22 0 0 0
SMALL
GASTEIGER
Energy = 0

@<TRIPOS>ATOM
      1 N           1.0210   -0.0710    0.0000 N.ar    1  LIG1       -0.1577
      2 N           0.0580   -0.3420    0.0000 N.ar    1  LIG1       -0.1236
      3 C           0.0130   -1.3460    0.0000 C.ar    1  LIG1        0.2494
      4 O           0.9580   -1.6880    0.0000 O.2     1  LIG1       -0.4115
      5 C           1.5790   -0.9080    0.0000 C.ar    1  LIG1        0.2720
      6 S           2.5830   -0.9330    0.0000 S.2     1  LIG1        0.0111
      7 C          -0.8670   -1.8330    0.0000 C.ar    1  LIG1        0.0656
      8 C          -1.7250   -1.3460    0.0000 C.ar    1  LIG1        0.0622
      9 CL         -1.7080   -0.3580    0.0000 Cl      1  LIG1       -0.0821
     10 C          -2.5880   -1.8330    0.0000 C.ar    1  LIG1        0.0115
     11 C          -2.5880   -2.8790    0.0000 C.ar    1  LIG1        0.0009
     12 C          -1.7250   -3.3540    0.0000 C.ar    1  LIG1        0.0002
     13 C          -0.8670   -2.8380    0.0000 C.ar    1  LIG1        0.0055
     14 C           1.3750    0.8710    0.0000 C.3     1  LIG1        0.2787
     15 N           0.7460    1.6380    0.0000 N.4     1  LIG1        0.4008
     16 C           1.0630    2.6040    0.0000 C.3     1  LIG1        0.1742
     17 C           0.4250    3.3580    0.0000 C.3     1  LIG1        0.2048
     18 O          -0.5710    3.1710    0.0000 O.3     1  LIG1       -0.3411
     19 C          -0.8830    2.2290    0.0000 C.3     1  LIG1        0.2048
     20 C          -0.2210    1.4750    0.0000 C.3     1  LIG1        0.1742
@<TRIPOS>BOND
     1     1     2   ar
     2     1     5   ar
     3     1    14    1
     4     2     3   ar
     5     3     4   ar
     6     3     7    1
     7     4     5   ar
     8     5     6    2
     9     7     8   ar
    10     7    13   ar
    11     8     9    1
    12     8    10   ar
    13    10    11   ar
    14    11    12   ar
    15    12    13   ar
    16    14    15    1
    17    15    16    1
    18    15    20    1
    19    16    17    1
    20    17    18    1
    21    18    19    1
    22    19    20    1
