@<TRIPOS>MOLECULE
27530_ChemDiv_4425-0093
 20 22 0 0 0
SMALL
GASTEIGER
Energy = 0

@<TRIPOS>ATOM
      1 N           1.5670    0.2750    0.0000 N.ar    1  LIG1       -0.1577
      2 C           2.0250    1.1420    0.0000 C.ar    1  LIG1        0.2720
      3 O           1.3420    1.8630    0.0000 O.2     1  LIG1       -0.4116
      4 C           0.4380    1.4250    0.0000 C.ar    1  LIG1        0.2486
      5 N           0.5750    0.4420    0.0000 N.ar    1  LIG1       -0.1236
      6 C          -0.4880    1.8040    0.0000 C.ar    1  LIG1        0.0556
      7 C          -1.2790    1.2000    0.0000 C.ar    1  LIG1        0.0114
      8 C          -2.1960    1.5670    0.0000 C.ar    1  LIG1        0.0347
      9 BR         -3.0000    0.9630    0.0000 Br      1  LIG1       -0.0490
     10 C          -2.3500    2.5630    0.0000 C.ar    1  LIG1        0.0067
     11 C          -1.5460    3.1830    0.0000 C.ar    1  LIG1        0.0007
     12 C          -0.6130    2.7920    0.0000 C.ar    1  LIG1        0.0047
     13 S           2.9960    1.3830    0.0000 S.2     1  LIG1        0.0111
     14 C           2.0080   -0.6330    0.0000 C.3     1  LIG1        0.2787
     15 N           1.4460   -1.4630    0.0000 N.4     1  LIG1        0.4008
     16 C           1.8880   -2.3460    0.0000 C.3     1  LIG1        0.1742
     17 C           1.3170   -3.1790    0.0000 C.3     1  LIG1        0.2048
     18 O           0.3170   -3.1000    0.0000 O.3     1  LIG1       -0.3411
     19 C          -0.1130   -2.2080    0.0000 C.3     1  LIG1        0.2048
     20 C           0.4380   -1.3880    0.0000 C.3     1  LIG1        0.1742
@<TRIPOS>BOND
     1     1     2   ar
     2     1     5   ar
     3     1    14    1
     4     2     3   ar
     5     2    13    2
     6     3     4   ar
     7     4     5   ar
     8     4     6    1
     9     6     7   ar
    10     6    12   ar
    11     7     8   ar
    12     8     9    1
    13     8    10   ar
    14    10    11   ar
    15    11    12   ar
    16    14    15    1
    17    15    16    1
    18    15    20    1
    19    16    17    1
    20    17    18    1
    21    18    19    1
    22    19    20    1
