@<TRIPOS>MOLECULE
27532_ChemDiv_4719-0299
 19 21 0 0 0
SMALL
GASTEIGER
Energy = 0

@<TRIPOS>ATOM
      1 N           1.2880   -0.3250    0.0000 N.ar    1  LIG1       -0.1577
      2 C           1.6880   -1.2290    0.0000 C.ar    1  LIG1        0.2720
      3 O           0.9420   -1.8960    0.0000 O.2     1  LIG1       -0.4116
      4 C           0.0830   -1.4130    0.0000 C.ar    1  LIG1        0.2486
      5 N           0.2920   -0.4170    0.0000 N.ar    1  LIG1       -0.1236
      6 C          -0.8330   -1.7920    0.0000 C.ar    1  LIG1        0.0551
      7 C          -1.6250   -1.1880    0.0000 C.ar    1  LIG1        0.0047
      8 C          -2.5500   -1.5460    0.0000 C.ar    1  LIG1        0.0002
      9 C          -2.6920   -2.5380    0.0000 C.ar    1  LIG1        0.0000
     10 C          -1.9080   -3.1540    0.0000 C.ar    1  LIG1        0.0002
     11 C          -0.9830   -2.7790    0.0000 C.ar    1  LIG1        0.0047
     12 S           2.6880   -1.4250    0.0000 S.2     1  LIG1        0.0111
     13 C           1.7880    0.5290    0.0000 C.3     1  LIG1        0.2787
     14 N           1.3040    1.3920    0.0000 N.4     1  LIG1        0.4008
     15 C           0.3080    1.3920    0.0000 C.3     1  LIG1        0.1742
     16 C          -0.1830    2.2710    0.0000 C.3     1  LIG1        0.2048
     17 O           0.3080    3.1580    0.0000 O.3     1  LIG1       -0.3411
     18 C           1.3040    3.1500    0.0000 C.3     1  LIG1        0.2048
     19 C           1.8040    2.2460    0.0000 C.3     1  LIG1        0.1742
@<TRIPOS>BOND
     1     1     2   ar
     2     1     5   ar
     3     1    13    1
     4     2     3   ar
     5     2    12    2
     6     3     4   ar
     7     4     5   ar
     8     4     6    1
     9     6     7   ar
    10     6    11   ar
    11     7     8   ar
    12     8     9   ar
    13     9    10   ar
    14    10    11   ar
    15    13    14    1
    16    14    15    1
    17    14    19    1
    18    15    16    1
    19    16    17    1
    20    17    18    1
    21    18    19    1
