@<TRIPOS>MOLECULE
27536_ChemDiv_6338-0019
 26 29 0 0 0
SMALL
GASTEIGER
Energy = 0

@<TRIPOS>ATOM
      1 N           1.2670   -2.3380    0.0000 N.ar    1  LIG1       -0.1942
      2 C           1.4750   -3.3170    0.0000 C.ar    1  LIG1        0.2687
      3 O           0.6130   -3.8170    0.0000 O.2     1  LIG1       -0.4117
      4 C          -0.1380   -3.1460    0.0000 C.ar    1  LIG1        0.2486
      5 N           0.2630   -2.2380    0.0000 N.ar    1  LIG1       -0.1270
      6 C          -1.0920   -3.4040    0.0000 C.ar    1  LIG1        0.0582
      7 C          -1.3630   -4.3750    0.0000 C.ar    1  LIG1        0.0254
      8 C          -2.3250   -4.6290    0.0000 C.ar    1  LIG1        0.0990
      9 N          -3.0330   -3.9170    0.0000 N.ar    1  LIG1       -0.2423
     10 C          -2.7750   -2.9670    0.0000 C.ar    1  LIG1        0.0990
     11 C          -1.8040   -2.6920    0.0000 C.ar    1  LIG1        0.0254
     12 S           2.4000   -3.7210    0.0000 S.2     1  LIG1        0.0110
     13 C           1.9330   -1.5920    0.0000 C.3     1  LIG1        0.2069
     14 N           1.6250   -0.6420    0.0000 N.3     1  LIG1       -0.2415
     15 C           0.6420   -0.4290    0.0000 C.3     1  LIG1        0.1374
     16 C           0.3420    0.5290    0.0000 C.3     1  LIG1        0.1568
     17 N           1.0080    1.2630    0.0000 N.4     1  LIG1        0.3829
     18 C           0.7040    2.2290    0.0000 C.3     1  LIG1        0.1663
     19 C           1.3830    2.9580    0.0000 C.ar    1  LIG1        0.0344
     20 C           2.3540    2.7380    0.0000 C.ar    1  LIG1        0.0014
     21 C           3.0290    3.4750    0.0000 C.ar    1  LIG1       -0.0001
     22 C           2.7330    4.4130    0.0000 C.ar    1  LIG1       -0.0000
     23 C           1.7630    4.6290    0.0000 C.ar    1  LIG1       -0.0001
     24 C           1.0830    3.9000    0.0000 C.ar    1  LIG1        0.0014
     25 C           1.9920    1.0500    0.0000 C.3     1  LIG1        0.1568
     26 C           2.3000    0.1040    0.0000 C.3     1  LIG1        0.1374
@<TRIPOS>BOND
     1     1     2   ar
     2     1     5   ar
     3     1    13    1
     4     2     3   ar
     5     2    12    2
     6     3     4   ar
     7     4     5   ar
     8     4     6    1
     9     6     7   ar
    10     6    11   ar
    11     7     8   ar
    12     8     9   ar
    13     9    10   ar
    14    10    11   ar
    15    13    14    1
    16    14    15    1
    17    14    26    1
    18    15    16    1
    19    16    17    1
    20    17    18    1
    21    17    25    1
    22    18    19    1
    23    19    20   ar
    24    19    24   ar
    25    20    21   ar
    26    21    22   ar
    27    22    23   ar
    28    23    24   ar
    29    25    26    1
