@<TRIPOS>MOLECULE
27538_ChemDiv_4766-3672
 31 35 0 0 0
SMALL
GASTEIGER
Energy = 0

@<TRIPOS>ATOM
      1 N           0.2750   -2.9080    0.0000 N.ar    1  LIG1       -0.2521
      2 C          -0.6040   -2.5080    0.0000 C.ar    1  LIG1        0.1818
      3 N          -1.4420   -2.9880    0.0000 N.ar    1  LIG1       -0.2205
      4 C          -1.1420   -3.8920    0.0000 C.ar    1  LIG1        0.0996
      5 C           0.0830   -3.8500    0.0000 C.ar    1  LIG1        0.0863
      6 C           0.7380   -4.8710    0.0000 C.ar    1  LIG1        0.0192
      7 C           0.1880   -5.9580    0.0000 C.ar    1  LIG1        0.0016
      8 C          -1.0500   -6.0170    0.0000 C.ar    1  LIG1        0.0016
      9 C          -1.7040   -4.9790    0.0000 C.ar    1  LIG1        0.0207
     10 S          -0.4920   -1.5460    0.0000 S.2     1  LIG1       -0.0451
     11 C           0.4380   -1.3670    0.0000 C.ar    1  LIG1        0.0887
     12 C           0.9130   -2.1960    0.0000 C.ar    1  LIG1        0.2722
     13 O           1.8750   -2.2960    0.0000 O.2     1  LIG1       -0.2660
     14 C           0.8330   -0.5000    0.0000 C.2     1  LIG1        0.0125
     15 C           0.2630    0.2750    0.0000 C.ar    1  LIG1        0.0138
     16 C           0.5670    1.1750    0.0000 C.ar    1  LIG1        0.0414
     17 N          -0.2040    1.7460    0.0000 N.ar    1  LIG1       -0.3135
     18 C          -0.9710    1.1750    0.0000 C.ar    1  LIG1        0.0414
     19 C          -0.6790    0.2750    0.0000 C.ar    1  LIG1        0.0142
     20 C          -1.8790    1.4750    0.0000 C.3     1  LIG1        0.0504
     21 C          -0.2040    2.6880    0.0000 C.ar    1  LIG1        0.0635
     22 C           0.6250    3.1750    0.0000 C.ar    1  LIG1        0.0189
     23 C           0.6250    4.1080    0.0000 C.ar    1  LIG1        0.0215
     24 C          -0.2040    4.5750    0.0000 C.ar    1  LIG1        0.1251
     25 S          -0.2000    5.5380    0.0000 S.O2    1  LIG1        0.0935
     26 O          -0.8790    4.8630    0.0000 O.2     1  LIG1       -0.1503
     27 O          -1.0130    6.0170    0.0000 O.2     1  LIG1       -0.1503
     28 N           0.6250    6.0130    0.0000 N.3     1  LIG1        0.0392
     29 C          -1.0130    4.1080    0.0000 C.ar    1  LIG1        0.0215
     30 C          -1.0250    3.1750    0.0000 C.ar    1  LIG1        0.0189
     31 C           1.4750    1.4750    0.0000 C.3     1  LIG1        0.0504
@<TRIPOS>BOND
     1     1     2   ar
     2     1     5   ar
     3     1    12   ar
     4     2     3   ar
     5     2    10   ar
     6     3     4   ar
     7     4     5   ar
     8     4     9   ar
     9     5     6   ar
    10     6     7   ar
    11     7     8   ar
    12     8     9   ar
    13    10    11   ar
    14    11    12   ar
    15    11    14    2
    16    12    13    2
    17    14    15    1
    18    15    16   ar
    19    15    19   ar
    20    16    17   ar
    21    16    31    1
    22    17    18   ar
    23    17    21    1
    24    18    19   ar
    25    18    20    1
    26    21    22   ar
    27    21    30   ar
    28    22    23   ar
    29    23    24   ar
    30    24    25    1
    31    24    29   ar
    32    25    26    2
    33    25    27    2
    34    25    28    1
    35    29    30   ar
