@<TRIPOS>MOLECULE
27534_ChemDiv_6220-2076
 20 22 0 0 0
SMALL
GASTEIGER
Energy = 0

@<TRIPOS>ATOM
      1 N           0.4830   -0.8710    0.0000 N.ar    1  LIG1       -0.1577
      2 C          -0.0790   -1.6380    0.0000 C.ar    1  LIG1        0.2720
      3 O          -1.0290   -1.3710    0.0000 O.2     1  LIG1       -0.4116
      4 C          -1.0540   -0.3670    0.0000 C.ar    1  LIG1        0.2486
      5 N          -0.1040   -0.0630    0.0000 N.ar    1  LIG1       -0.1236
      6 C          -1.8500    0.2500    0.0000 C.ar    1  LIG1        0.0551
      7 C          -2.7460   -0.1750    0.0000 C.ar    1  LIG1        0.0047
      8 C          -3.5460    0.4420    0.0000 C.ar    1  LIG1        0.0002
      9 C          -3.4420    1.4040    0.0000 C.ar    1  LIG1        0.0000
     10 C          -2.5170    1.8290    0.0000 C.ar    1  LIG1        0.0002
     11 C          -1.7210    1.2130    0.0000 C.ar    1  LIG1        0.0047
     12 S           0.2830   -2.6000    0.0000 S.2     1  LIG1        0.0111
     13 C           1.4830   -0.8710    0.0000 C.3     1  LIG1        0.2785
     14 N           2.0000   -0.0210    0.0000 N.4     1  LIG1        0.3968
     15 C           1.4830    0.8630    0.0000 C.3     1  LIG1        0.1414
     16 C           1.9750    1.7130    0.0000 C.3     1  LIG1        0.0630
     17 C           3.0000    1.7130    0.0000 C.3     1  LIG1        0.0119
     18 C           3.4920    0.8630    0.0000 C.3     1  LIG1        0.0630
     19 C           3.0000   -0.0210    0.0000 C.3     1  LIG1        0.1414
     20 C           3.5420    2.6040    0.0000 C.3     1  LIG1        0.0004
@<TRIPOS>BOND
     1     1     2   ar
     2     1     5   ar
     3     1    13    1
     4     2     3   ar
     5     2    12    2
     6     3     4   ar
     7     4     5   ar
     8     4     6    1
     9     6     7   ar
    10     6    11   ar
    11     7     8   ar
    12     8     9   ar
    13     9    10   ar
    14    10    11   ar
    15    13    14    1
    16    14    15    1
    17    14    19    1
    18    15    16    1
    19    16    17    1
    20    17    18    1
    21    17    20    1
    22    18    19    1
