@<TRIPOS>MOLECULE
27548_ChemDiv_8011-4216
 29 34 0 0 0
SMALL
GASTEIGER
Energy = 0

@<TRIPOS>ATOM
      1 N          -2.6630   -1.1080    0.0000 N.ar    1  LIG1       -0.2364
      2 C          -2.0790   -0.3040    0.0000 C.ar    1  LIG1        0.1830
      3 N          -2.6630    0.4880    0.0000 N.ar    1  LIG1       -0.2189
      4 C          -3.6130    0.1830    0.0000 C.ar    1  LIG1        0.1179
      5 C          -3.6130   -0.8040    0.0000 C.ar    1  LIG1        0.1693
      6 N          -4.4880   -1.3080    0.0000 N.ar    1  LIG1       -0.2248
      7 C          -5.3420   -0.8040    0.0000 C.ar    1  LIG1        0.1006
      8 C          -5.3420    0.1830    0.0000 C.ar    1  LIG1        0.0223
      9 C          -4.4880    0.6880    0.0000 C.ar    1  LIG1        0.0238
     10 S          -1.1210   -0.6080    0.0000 S.2     1  LIG1       -0.0450
     11 C          -1.1210   -1.6250    0.0000 C.ar    1  LIG1        0.0918
     12 C          -2.0790   -1.9250    0.0000 C.ar    1  LIG1        0.2735
     13 O          -2.3830   -2.8670    0.0000 O.2     1  LIG1       -0.2660
     14 C          -0.3170   -2.2040    0.0000 C.2     1  LIG1        0.0488
     15 C           0.6580   -1.9420    0.0000 C.ar    1  LIG1        0.1461
     16 O           1.0040   -1.0040    0.0000 O.2     1  LIG1       -0.4535
     17 C           2.0000   -1.0460    0.0000 C.ar    1  LIG1        0.1453
     18 C           2.2710   -2.0210    0.0000 C.ar    1  LIG1        0.0406
     19 C           1.4290   -2.5710    0.0000 C.ar    1  LIG1        0.0406
     20 C           2.6330   -0.2750    0.0000 C.ar    1  LIG1        0.0344
     21 C           2.2540    0.6500    0.0000 C.ar    1  LIG1        0.0026
     22 C           2.9040    1.4290    0.0000 C.ar    1  LIG1        0.0276
     23 C           3.8790    1.2750    0.0000 C.ar    1  LIG1        0.0752
     24 C           4.3460    2.1710    0.0000 C.2     1  LIG1        0.3413
     25 O           3.6330    2.8710    0.0000 O.3     1  LIG1       -0.4404
     26 C           2.7290    2.4210    0.0000 C.3     1  LIG1        0.2356
     27 O           5.3380    2.3210    0.0000 O.2     1  LIG1       -0.2449
     28 C           4.2460    0.3330    0.0000 C.ar    1  LIG1        0.0063
     29 C           3.6170   -0.4250    0.0000 C.ar    1  LIG1        0.0032
@<TRIPOS>BOND
     1     1     2   ar
     2     1     5   ar
     3     1    12   ar
     4     2     3   ar
     5     2    10   ar
     6     3     4   ar
     7     4     5   ar
     8     4     9   ar
     9     5     6   ar
    10     6     7   ar
    11     7     8   ar
    12     8     9   ar
    13    10    11   ar
    14    11    12   ar
    15    11    14    2
    16    12    13    2
    17    14    15    1
    18    15    16   ar
    19    15    19   ar
    20    16    17   ar
    21    17    18   ar
    22    17    20    1
    23    18    19   ar
    24    20    21   ar
    25    20    29   ar
    26    21    22   ar
    27    22    23   ar
    28    22    26    1
    29    23    24    1
    30    23    28   ar
    31    24    25    1
    32    24    27    2
    33    25    26    1
    34    28    29   ar
