@<TRIPOS>MOLECULE
27540_ChemDiv_6134-2015
 29 33 0 0 0
SMALL
GASTEIGER
Energy = 0

@<TRIPOS>ATOM
      1 N          -0.3920   -3.1420    0.0000 N.ar    1  LIG1       -0.2521
      2 C           0.1960   -3.9630    0.0000 C.ar    1  LIG1        0.1818
      3 N          -0.3920   -4.7790    0.0000 N.ar    1  LIG1       -0.2205
      4 C          -1.3460   -4.4580    0.0000 C.ar    1  LIG1        0.0996
      5 C          -1.3460   -3.4630    0.0000 C.ar    1  LIG1        0.0863
      6 C          -2.2130   -2.9630    0.0000 C.ar    1  LIG1        0.0192
      7 C          -3.0750   -3.4630    0.0000 C.ar    1  LIG1        0.0016
      8 C          -3.0750   -4.4580    0.0000 C.ar    1  LIG1        0.0016
      9 C          -2.2130   -4.9580    0.0000 C.ar    1  LIG1        0.0207
     10 S           1.1670   -3.6540    0.0000 S.2     1  LIG1       -0.0451
     11 C           1.1670   -2.6460    0.0000 C.ar    1  LIG1        0.0887
     12 C           0.1960   -2.3250    0.0000 C.ar    1  LIG1        0.2722
     13 O          -0.1040   -1.3830    0.0000 O.2     1  LIG1       -0.2660
     14 C           1.9670   -2.0540    0.0000 C.2     1  LIG1        0.0114
     15 C           1.8710   -1.0670    0.0000 C.ar    1  LIG1        0.0008
     16 C           2.6790   -0.4750    0.0000 C.ar    1  LIG1        0.0031
     17 C           2.5750    0.5210    0.0000 C.ar    1  LIG1        0.0369
     18 C           1.6670    0.9170    0.0000 C.ar    1  LIG1        0.1393
     19 O           1.5580    1.9130    0.0000 O.3     1  LIG1       -0.4656
     20 C           2.3710    2.5000    0.0000 C.3     1  LIG1        0.2896
     21 C           2.2710    3.4790    0.0000 C.2     1  LIG1        0.2702
     22 N           1.3580    3.8880    0.0000 N.am    1  LIG1       -0.2765
     23 C           1.1500    4.8540    0.0000 C.3     1  LIG1        0.0936
     24 C           0.1630    4.9580    0.0000 C.3     1  LIG1        0.0233
     25 C          -0.2460    4.0500    0.0000 C.3     1  LIG1        0.0233
     26 C           0.4830    3.3920    0.0000 C.3     1  LIG1        0.0936
     27 O           3.0710    4.0670    0.0000 O.2     1  LIG1       -0.2708
     28 C           0.8580    0.3380    0.0000 C.ar    1  LIG1        0.0369
     29 C           0.9540   -0.6540    0.0000 C.ar    1  LIG1        0.0031
@<TRIPOS>BOND
     1     1     2   ar
     2     1     5   ar
     3     1    12   ar
     4     2     3   ar
     5     2    10   ar
     6     3     4   ar
     7     4     5   ar
     8     4     9   ar
     9     5     6   ar
    10     6     7   ar
    11     7     8   ar
    12     8     9   ar
    13    10    11   ar
    14    11    12   ar
    15    11    14    2
    16    12    13    2
    17    14    15    1
    18    15    16   ar
    19    15    29   ar
    20    16    17   ar
    21    17    18   ar
    22    18    19    1
    23    18    28   ar
    24    19    20    1
    25    20    21    1
    26    21    22   am
    27    21    27    2
    28    22    23    1
    29    22    26    1
    30    23    24    1
    31    24    25    1
    32    25    26    1
    33    28    29   ar
