@<TRIPOS>MOLECULE
27542_ChemDiv_6134-2016
 31 35 0 0 0
SMALL
GASTEIGER
Energy = 0

@<TRIPOS>ATOM
      1 N          -1.0000   -3.1500    0.0000 N.ar    1  LIG1       -0.2521
      2 C          -0.4080   -3.9670    0.0000 C.ar    1  LIG1        0.1818
      3 N          -1.0000   -4.7830    0.0000 N.ar    1  LIG1       -0.2205
      4 C          -1.9500   -4.4670    0.0000 C.ar    1  LIG1        0.0996
      5 C          -1.9500   -3.4670    0.0000 C.ar    1  LIG1        0.0863
      6 C          -2.8210   -2.9670    0.0000 C.ar    1  LIG1        0.0192
      7 C          -3.6830   -3.4670    0.0000 C.ar    1  LIG1        0.0016
      8 C          -3.6830   -4.4670    0.0000 C.ar    1  LIG1        0.0016
      9 C          -2.8210   -4.9670    0.0000 C.ar    1  LIG1        0.0207
     10 S           0.5630   -3.6580    0.0000 S.2     1  LIG1       -0.0451
     11 C           0.5630   -2.6500    0.0000 C.ar    1  LIG1        0.0887
     12 C          -0.4080   -2.3290    0.0000 C.ar    1  LIG1        0.2722
     13 O          -0.7130   -1.3880    0.0000 O.2     1  LIG1       -0.2660
     14 C           1.3630   -2.0580    0.0000 C.2     1  LIG1        0.0115
     15 C           1.2580   -1.0710    0.0000 C.ar    1  LIG1        0.0039
     16 C           2.0750   -0.4830    0.0000 C.ar    1  LIG1        0.0401
     17 C           1.9670    0.5130    0.0000 C.ar    1  LIG1        0.1724
     18 C           1.0580    0.9130    0.0000 C.ar    1  LIG1        0.1729
     19 O           0.9630    1.9080    0.0000 O.3     1  LIG1       -0.4625
     20 C           1.7710    2.4960    0.0000 C.3     1  LIG1        0.2897
     21 C           1.6670    3.4750    0.0000 C.2     1  LIG1        0.2702
     22 N           0.7580    3.8830    0.0000 N.am    1  LIG1       -0.2765
     23 C          -0.1130    3.3830    0.0000 C.3     1  LIG1        0.0936
     24 C          -0.8460    4.0460    0.0000 C.3     1  LIG1        0.0233
     25 C          -0.4380    4.9670    0.0000 C.3     1  LIG1        0.0233
     26 C           0.5540    4.8500    0.0000 C.3     1  LIG1        0.0936
     27 O           2.4830    4.0580    0.0000 O.2     1  LIG1       -0.2708
     28 C           0.2540    0.3330    0.0000 C.ar    1  LIG1        0.0401
     29 C           0.3500   -0.6630    0.0000 C.ar    1  LIG1        0.0033
     30 O           2.7710    1.0960    0.0000 O.3     1  LIG1       -0.4684
     31 C           3.6790    0.6960    0.0000 C.3     1  LIG1        0.2526
@<TRIPOS>BOND
     1     1     2   ar
     2     1     5   ar
     3     1    12   ar
     4     2     3   ar
     5     2    10   ar
     6     3     4   ar
     7     4     5   ar
     8     4     9   ar
     9     5     6   ar
    10     6     7   ar
    11     7     8   ar
    12     8     9   ar
    13    10    11   ar
    14    11    12   ar
    15    11    14    2
    16    12    13    2
    17    14    15    1
    18    15    16   ar
    19    15    29   ar
    20    16    17   ar
    21    17    18   ar
    22    17    30    1
    23    18    19    1
    24    18    28   ar
    25    19    20    1
    26    20    21    1
    27    21    22   am
    28    21    27    2
    29    22    23    1
    30    22    26    1
    31    23    24    1
    32    24    25    1
    33    25    26    1
    34    28    29   ar
    35    30    31    1
