@<TRIPOS>MOLECULE
27554_ChemDiv_8008-8246
 19 21 0 0 0
SMALL
GASTEIGER
Energy = 0

@<TRIPOS>ATOM
      1 N           0.3170    0.4380    0.0000 N.ar    1  LIG1       -0.1577
      2 C           0.6670   -0.5210    0.0000 C.ar    1  LIG1        0.2720
      3 O          -0.1380   -1.1380    0.0000 O.2     1  LIG1       -0.4116
      4 C          -0.9960   -0.5210    0.0000 C.ar    1  LIG1        0.2487
      5 N          -0.6420    0.4380    0.0000 N.ar    1  LIG1       -0.1236
      6 C          -1.9460   -0.8040    0.0000 C.ar    1  LIG1        0.0582
      7 C          -2.6750   -0.1210    0.0000 C.ar    1  LIG1        0.0254
      8 C          -3.6080   -0.3960    0.0000 C.ar    1  LIG1        0.0990
      9 N          -3.8630   -1.3540    0.0000 N.ar    1  LIG1       -0.2423
     10 C          -3.1250   -2.0420    0.0000 C.ar    1  LIG1        0.0990
     11 C          -2.1830   -1.7630    0.0000 C.ar    1  LIG1        0.0254
     12 S           1.6500   -0.8250    0.0000 S.2     1  LIG1        0.0111
     13 C           0.8580    1.2750    0.0000 C.3     1  LIG1        0.2787
     14 N           1.8540    1.2250    0.0000 N.4     1  LIG1        0.4008
     15 C           2.3290    0.3330    0.0000 C.3     1  LIG1        0.1742
     16 C           3.3130    0.2880    0.0000 C.3     1  LIG1        0.2048
     17 O           3.8580    1.1290    0.0000 O.3     1  LIG1       -0.3411
     18 C           3.3960    2.0040    0.0000 C.3     1  LIG1        0.2048
     19 C           2.3830    2.0460    0.0000 C.3     1  LIG1        0.1742
@<TRIPOS>BOND
     1     1     2   ar
     2     1     5   ar
     3     1    13    1
     4     2     3   ar
     5     2    12    2
     6     3     4   ar
     7     4     5   ar
     8     4     6    1
     9     6     7   ar
    10     6    11   ar
    11     7     8   ar
    12     8     9   ar
    13     9    10   ar
    14    10    11   ar
    15    13    14    1
    16    14    15    1
    17    14    19    1
    18    15    16    1
    19    16    17    1
    20    17    18    1
    21    18    19    1
