@<TRIPOS>MOLECULE
27558_ChemDiv_8009-3837
 25 27 0 0 0
SMALL
GASTEIGER
Energy = 0

@<TRIPOS>ATOM
      1 N           1.9000   -2.1460    0.0000 N.ar    1  LIG1       -0.1577
      2 C           2.2040   -3.0790    0.0000 C.ar    1  LIG1        0.2720
      3 O           1.4000   -3.6880    0.0000 O.2     1  LIG1       -0.4116
      4 C           0.5880   -3.0920    0.0000 C.ar    1  LIG1        0.2486
      5 N           0.8750   -2.1460    0.0000 N.ar    1  LIG1       -0.1236
      6 C          -0.3460   -3.4420    0.0000 C.ar    1  LIG1        0.0551
      7 C          -0.5290   -4.4130    0.0000 C.ar    1  LIG1        0.0044
      8 C          -1.4750   -4.7500    0.0000 C.ar    1  LIG1       -0.0041
      9 C          -2.2420   -4.1130    0.0000 C.ar    1  LIG1       -0.0218
     10 C          -2.0580   -3.1210    0.0000 C.ar    1  LIG1       -0.0041
     11 C          -1.1210   -2.7880    0.0000 C.ar    1  LIG1        0.0044
     12 C          -3.1920   -4.4330    0.0000 C.3     1  LIG1        0.0310
     13 S           3.1880   -3.4330    0.0000 S.2     1  LIG1        0.0111
     14 C           2.5250   -1.3290    0.0000 C.3     1  LIG1        0.2785
     15 N           2.1670   -0.4130    0.0000 N.4     1  LIG1        0.3968
     16 C           2.7460    0.4080    0.0000 C.3     1  LIG1        0.1420
     17 C           2.3710    1.3170    0.0000 C.3     1  LIG1        0.0741
     18 C           1.3710    1.4210    0.0000 C.3     1  LIG1        0.1109
     19 C           0.9830    2.3330    0.0000 C.2     1  LIG1        0.3168
     20 O          -0.0330    2.4580    0.0000 O.2     1  LIG1       -0.2501
     21 O           1.6040    3.0670    0.0000 O.3     1  LIG1       -0.4485
     22 C           1.2670    3.9960    0.0000 C.3     1  LIG1        0.2086
     23 C           1.9000    4.7500    0.0000 C.3     1  LIG1        0.0513
     24 C           0.7880    0.6380    0.0000 C.3     1  LIG1        0.0741
     25 C           1.1880   -0.2960    0.0000 C.3     1  LIG1        0.1420
@<TRIPOS>BOND
     1     1     2   ar
     2     1     5   ar
     3     1    14    1
     4     2     3   ar
     5     2    13    2
     6     3     4   ar
     7     4     5   ar
     8     4     6    1
     9     6     7   ar
    10     6    11   ar
    11     7     8   ar
    12     8     9   ar
    13     9    10   ar
    14     9    12    1
    15    10    11   ar
    16    14    15    1
    17    15    16    1
    18    15    25    1
    19    16    17    1
    20    17    18    1
    21    18    19    1
    22    18    24    1
    23    19    20    2
    24    19    21    1
    25    21    22    1
    26    22    23    1
    27    24    25    1
