@<TRIPOS>MOLECULE
27552_ChemDiv_2641-1493
 28 33 0 0 0
SMALL
GASTEIGER
Energy = 0

@<TRIPOS>ATOM
      1 C          -0.3500    0.4460    0.0000 C.2     1  LIG1        0.0323
      2 C          -1.2040   -0.0540    0.0000 C.2     1  LIG1       -0.0202
      3 C          -1.2170   -1.0580    0.0000 C.ar    1  LIG1        0.0122
      4 C          -0.3630   -1.5670    0.0000 C.ar    1  LIG1        0.0657
      5 N           0.5080   -1.0830    0.0000 N.pl3   1  LIG1       -0.2304
      6 C           0.5210   -0.0670    0.0000 C.3     1  LIG1        0.1394
      7 C           1.3790    0.4250    0.0000 C.ar    1  LIG1        0.0048
      8 C           1.3790    1.4130    0.0000 C.ar    1  LIG1        0.0379
      9 C           2.2380    1.9210    0.0000 C.ar    1  LIG1        0.1762
     10 C           3.1040    1.4330    0.0000 C.ar    1  LIG1        0.1764
     11 O           3.8330    2.1500    0.0000 O.3     1  LIG1       -0.4346
     12 C           3.3920    3.0500    0.0000 C.3     1  LIG1        0.4294
     13 O           2.3880    2.8960    0.0000 O.3     1  LIG1       -0.4346
     14 C           3.1040    0.4380    0.0000 C.ar    1  LIG1        0.0399
     15 C           2.2500   -0.0540    0.0000 C.ar    1  LIG1        0.0010
     16 C          -0.3630   -2.5420    0.0000 C.ar    1  LIG1        0.0176
     17 C          -1.2170   -3.0460    0.0000 C.ar    1  LIG1        0.0204
     18 C          -2.0920   -2.5420    0.0000 C.ar    1  LIG1        0.0814
     19 C          -2.0920   -1.5670    0.0000 C.ar    1  LIG1        0.0186
     20 C          -2.9670   -1.0580    0.0000 C.ar    1  LIG1        0.0031
     21 C          -3.8380   -1.5670    0.0000 C.ar    1  LIG1        0.0207
     22 C          -3.8380   -2.5420    0.0000 C.ar    1  LIG1        0.0988
     23 N          -2.9670   -3.0460    0.0000 N.ar    1  LIG1       -0.2438
     24 C          -2.0790    0.4460    0.0000 C.3     1  LIG1        0.0267
     25 C          -2.0790    1.4630    0.0000 C.3     1  LIG1        0.0128
     26 C          -1.2040    1.9670    0.0000 C.3     1  LIG1        0.0692
     27 C          -0.3380    1.4630    0.0000 C.2     1  LIG1        0.1707
     28 O           0.5080    1.9580    0.0000 O.2     1  LIG1       -0.2916
@<TRIPOS>BOND
     1     1     2    2
     2     1     6    1
     3     1    27    1
     4     2     3    1
     5     2    24    1
     6     3     4   ar
     7     3    19   ar
     8     4     5    1
     9     4    16   ar
    10     5     6    1
    11     6     7    1
    12     7     8   ar
    13     7    15   ar
    14     8     9   ar
    15     9    10   ar
    16     9    13    1
    17    10    11    1
    18    10    14   ar
    19    11    12    1
    20    12    13    1
    21    14    15   ar
    22    16    17   ar
    23    17    18   ar
    24    18    19   ar
    25    18    23   ar
    26    19    20   ar
    27    20    21   ar
    28    21    22   ar
    29    22    23   ar
    30    24    25    1
    31    25    26    1
    32    26    27    1
    33    27    28    2
