@<TRIPOS>MOLECULE
27556_ChemDiv_8009-3628
 21 23 0 0 0
SMALL
GASTEIGER
Energy = 0

@<TRIPOS>ATOM
      1 N           1.1080   -1.0330    0.0000 N.ar    1  LIG1       -0.1577
      2 C           0.6750   -1.9250    0.0000 C.ar    1  LIG1        0.2720
      3 O          -0.3040   -1.7710    0.0000 O.2     1  LIG1       -0.4116
      4 C          -0.4580   -0.7540    0.0000 C.ar    1  LIG1        0.2486
      5 N           0.4250   -0.3250    0.0000 N.ar    1  LIG1       -0.1236
      6 C          -1.3210   -0.2580    0.0000 C.ar    1  LIG1        0.0551
      7 C          -1.3210    0.7170    0.0000 C.ar    1  LIG1        0.0044
      8 C          -2.1880    1.2130    0.0000 C.ar    1  LIG1       -0.0041
      9 C          -3.0540    0.7170    0.0000 C.ar    1  LIG1       -0.0218
     10 C          -3.0540   -0.2580    0.0000 C.ar    1  LIG1       -0.0041
     11 C          -2.1880   -0.7540    0.0000 C.ar    1  LIG1        0.0044
     12 C          -3.9210    1.2130    0.0000 C.3     1  LIG1        0.0310
     13 S           1.1330   -2.8210    0.0000 S.2     1  LIG1        0.0111
     14 C           2.1250   -0.9080    0.0000 C.3     1  LIG1        0.2785
     15 N           2.4960    0.0170    0.0000 N.4     1  LIG1        0.3968
     16 C           1.9130    0.8130    0.0000 C.3     1  LIG1        0.1414
     17 C           2.2830    1.7420    0.0000 C.3     1  LIG1        0.0630
     18 C           3.2670    1.8580    0.0000 C.3     1  LIG1        0.0119
     19 C           3.9170    1.0630    0.0000 C.3     1  LIG1        0.0630
     20 C           3.5130    0.1420    0.0000 C.3     1  LIG1        0.1414
     21 C           3.6080    2.8250    0.0000 C.3     1  LIG1        0.0004
@<TRIPOS>BOND
     1     1     2   ar
     2     1     5   ar
     3     1    14    1
     4     2     3   ar
     5     2    13    2
     6     3     4   ar
     7     4     5   ar
     8     4     6    1
     9     6     7   ar
    10     6    11   ar
    11     7     8   ar
    12     8     9   ar
    13     9    10   ar
    14     9    12    1
    15    10    11   ar
    16    14    15    1
    17    15    16    1
    18    15    20    1
    19    16    17    1
    20    17    18    1
    21    18    19    1
    22    18    21    1
    23    19    20    1
