@<TRIPOS>MOLECULE
27564_ChemDiv_8013-0141
 25 27 0 0 0
SMALL
GASTEIGER
Energy = 0

@<TRIPOS>ATOM
      1 N          -1.2420    0.2380    0.0000 N.ar    1  LIG1       -0.1577
      2 N          -2.2000    0.5250    0.0000 N.ar    1  LIG1       -0.1236
      3 C          -2.7750   -0.2880    0.0000 C.ar    1  LIG1        0.2494
      4 O          -2.1710   -1.0750    0.0000 O.2     1  LIG1       -0.4115
      5 C          -1.1830   -0.7380    0.0000 C.ar    1  LIG1        0.2720
      6 S          -0.3420   -1.2880    0.0000 S.2     1  LIG1        0.0111
      7 C          -3.7750   -0.2880    0.0000 C.ar    1  LIG1        0.0656
      8 C          -4.2750    0.5670    0.0000 C.ar    1  LIG1        0.0622
      9 CL         -3.7960    1.4540    0.0000 Cl      1  LIG1       -0.0821
     10 C          -5.2500    0.5540    0.0000 C.ar    1  LIG1        0.0115
     11 C          -5.7790   -0.2880    0.0000 C.ar    1  LIG1        0.0009
     12 C          -5.2710   -1.1500    0.0000 C.ar    1  LIG1        0.0002
     13 C          -4.2750   -1.1500    0.0000 C.ar    1  LIG1        0.0055
     14 C          -0.4460    0.8670    0.0000 C.3     1  LIG1        0.2785
     15 N           0.4670    0.5080    0.0000 N.4     1  LIG1        0.3968
     16 C           0.6170   -0.4670    0.0000 C.3     1  LIG1        0.1420
     17 C           1.5710   -0.8330    0.0000 C.3     1  LIG1        0.0741
     18 C           2.3630   -0.1920    0.0000 C.3     1  LIG1        0.1109
     19 C           3.3130   -0.4920    0.0000 C.2     1  LIG1        0.3168
     20 O           3.4630   -1.4500    0.0000 O.2     1  LIG1       -0.2501
     21 O           4.0830    0.1670    0.0000 O.3     1  LIG1       -0.4485
     22 C           5.0250   -0.1920    0.0000 C.3     1  LIG1        0.2086
     23 C           5.7750    0.4880    0.0000 C.3     1  LIG1        0.0513
     24 C           2.1830    0.7880    0.0000 C.3     1  LIG1        0.0741
     25 C           1.2500    1.1460    0.0000 C.3     1  LIG1        0.1420
@<TRIPOS>BOND
     1     1     2   ar
     2     1     5   ar
     3     1    14    1
     4     2     3   ar
     5     3     4   ar
     6     3     7    1
     7     4     5   ar
     8     5     6    2
     9     7     8   ar
    10     7    13   ar
    11     8     9    1
    12     8    10   ar
    13    10    11   ar
    14    11    12   ar
    15    12    13   ar
    16    14    15    1
    17    15    16    1
    18    15    25    1
    19    16    17    1
    20    17    18    1
    21    18    19    1
    22    18    24    1
    23    19    20    2
    24    19    21    1
    25    21    22    1
    26    22    23    1
    27    24    25    1
