@<TRIPOS>MOLECULE
27562_ChemDiv_8011-1994
 21 23 0 0 0
SMALL
GASTEIGER
Energy = 0

@<TRIPOS>ATOM
      1 N           1.0750   -0.0210    0.0000 N.ar    1  LIG1       -0.1577
      2 C           1.5460   -0.8170    0.0000 C.ar    1  LIG1        0.2720
      3 O           0.1540   -1.6170    0.0000 O.2     1  LIG1       -0.4116
      4 C          -0.3170   -0.8170    0.0000 C.ar    1  LIG1        0.2486
      5 N           0.1540   -0.0210    0.0000 N.ar    1  LIG1       -0.1236
      6 C          -1.2380   -0.8170    0.0000 C.ar    1  LIG1        0.0553
      7 C          -1.7080   -1.6170    0.0000 C.ar    1  LIG1        0.0078
      8 C          -2.6290   -1.6170    0.0000 C.ar    1  LIG1        0.0371
      9 C          -3.1000   -0.8170    0.0000 C.ar    1  LIG1        0.1386
     10 C          -2.6290   -0.0210    0.0000 C.ar    1  LIG1        0.0371
     11 C          -1.7080   -0.0210    0.0000 C.ar    1  LIG1        0.0078
     12 O          -4.0210   -0.8170    0.0000 O.3     1  LIG1       -0.4755
     13 C          -4.4830   -0.0290    0.0000 C.3     1  LIG1        0.2055
     14 C          -4.0370    0.7790    0.0000 C.3     1  LIG1        0.0512
     15 S           2.5000   -0.8170    0.0000 S.2     1  LIG1        0.0111
     16 C           1.5250    0.7790    0.0000 C.3     1  LIG1        0.2785
     17 N           2.5540    0.7630    0.0000 N.4     1  LIG1        0.3968
     18 C           3.0130    1.6210    0.0000 C.3     1  LIG1        0.1416
     19 C           4.4790    0.7630    0.0000 C.3     1  LIG1        0.0689
     20 C           3.9830   -0.0830    0.0000 C.3     1  LIG1        0.0689
     21 C           3.0130   -0.0830    0.0000 C.3     1  LIG1        0.1416
@<TRIPOS>BOND
     1     1     2   ar
     2     1     5   ar
     3     1    16    1
     4     2     3   ar
     5     2    15    2
     6     3     4   ar
     7     4     5   ar
     8     4     6    1
     9     6     7   ar
    10     6    11   ar
    11     7     8   ar
    12     8     9   ar
    13     9    10   ar
    14     9    12    1
    15    10    11   ar
    16    12    13    1
    17    13    14    1
    18    16    17    1
    19    17    18    1
    20    17    21    1
    21    18    19    1
    22    19    20    1
    23    20    21    1
