@<TRIPOS>MOLECULE
27560_ChemDiv_8009-3844
 22 24 0 0 0
SMALL
GASTEIGER
Energy = 0

@<TRIPOS>ATOM
      1 N           0.6040    0.3790    0.0000 N.ar    1  LIG1       -0.1577
      2 C           0.8540   -0.6080    0.0000 C.ar    1  LIG1        0.2720
      3 O           0.0080   -1.1380    0.0000 O.2     1  LIG1       -0.4116
      4 C          -0.7750   -0.5170    0.0000 C.ar    1  LIG1        0.2486
      5 N          -0.4040    0.4460    0.0000 N.ar    1  LIG1       -0.1236
      6 C          -1.7290   -0.8040    0.0000 C.ar    1  LIG1        0.0551
      7 C          -2.4460   -0.1170    0.0000 C.ar    1  LIG1        0.0044
      8 C          -3.3960   -0.3920    0.0000 C.ar    1  LIG1       -0.0041
      9 C          -3.6500   -1.3540    0.0000 C.ar    1  LIG1       -0.0218
     10 C          -2.9130   -2.0540    0.0000 C.ar    1  LIG1       -0.0041
     11 C          -1.9710   -1.7790    0.0000 C.ar    1  LIG1        0.0044
     12 C          -4.6170   -1.6290    0.0000 C.3     1  LIG1        0.0310
     13 S           1.7960   -0.9750    0.0000 S.2     1  LIG1        0.0111
     14 C           1.2670    1.1130    0.0000 C.3     1  LIG1        0.2787
     15 N           2.2330    0.8830    0.0000 N.4     1  LIG1        0.4006
     16 C           2.5460   -0.0710    0.0000 C.3     1  LIG1        0.1714
     17 C           3.5080   -0.2960    0.0000 C.3     1  LIG1        0.1720
     18 O           4.1960    0.4250    0.0000 O.3     1  LIG1       -0.3466
     19 C           3.9080    1.3670    0.0000 C.3     1  LIG1        0.1720
     20 C           2.9210    1.6040    0.0000 C.3     1  LIG1        0.1714
     21 C           4.6130    2.0580    0.0000 C.3     1  LIG1        0.0385
     22 C           3.7830   -1.2500    0.0000 C.3     1  LIG1        0.0385
@<TRIPOS>BOND
     1     1     2   ar
     2     1     5   ar
     3     1    14    1
     4     2     3   ar
     5     2    13    2
     6     3     4   ar
     7     4     5   ar
     8     4     6    1
     9     6     7   ar
    10     6    11   ar
    11     7     8   ar
    12     8     9   ar
    13     9    10   ar
    14     9    12    1
    15    10    11   ar
    16    14    15    1
    17    15    16    1
    18    15    20    1
    19    16    17    1
    20    17    18    1
    21    17    22    1
    22    18    19    1
    23    19    20    1
    24    19    21    1
