@<TRIPOS>MOLECULE
27568_ChemDiv_8015-0994
 20 22 0 0 0
SMALL
GASTEIGER
Energy = 0

@<TRIPOS>ATOM
      1 N           0.6250    0.6080    0.0000 N.ar    1  LIG1       -0.1577
      2 C           0.9290   -0.3420    0.0000 C.ar    1  LIG1        0.2720
      3 O           0.1250   -0.9290    0.0000 O.2     1  LIG1       -0.4116
      4 C          -0.6830   -0.3420    0.0000 C.ar    1  LIG1        0.2486
      5 N          -0.3750    0.6080    0.0000 N.ar    1  LIG1       -0.1236
      6 C          -1.5500   -0.8420    0.0000 C.ar    1  LIG1        0.0552
      7 C          -1.5500   -1.8420    0.0000 C.ar    1  LIG1        0.0070
      8 C          -2.4130   -2.3380    0.0000 C.ar    1  LIG1        0.0298
      9 C          -3.2790   -1.8420    0.0000 C.ar    1  LIG1        0.1401
     10 C          -3.2790   -0.8420    0.0000 C.ar    1  LIG1        0.0298
     11 C          -2.4130   -0.3420    0.0000 C.ar    1  LIG1        0.0070
     12 F          -4.1460   -2.3380    0.0000 F       1  LIG1       -0.2042
     13 S           1.7920   -0.8420    0.0000 S.2     1  LIG1        0.0111
     14 C           1.1170    1.4790    0.0000 C.3     1  LIG1        0.2787
     15 N           2.1460    1.4750    0.0000 N.4     1  LIG1        0.4008
     16 C           2.6420    2.3420    0.0000 C.3     1  LIG1        0.1742
     17 C           3.6420    2.3420    0.0000 C.3     1  LIG1        0.2048
     18 O           4.1420    1.4750    0.0000 O.3     1  LIG1       -0.3411
     19 C           3.6420    0.6130    0.0000 C.3     1  LIG1        0.2048
     20 C           2.6420    0.6130    0.0000 C.3     1  LIG1        0.1742
@<TRIPOS>BOND
     1     1     2   ar
     2     1     5   ar
     3     1    14    1
     4     2     3   ar
     5     2    13    2
     6     3     4   ar
     7     4     5   ar
     8     4     6    1
     9     6     7   ar
    10     6    11   ar
    11     7     8   ar
    12     8     9   ar
    13     9    10   ar
    14     9    12    1
    15    10    11   ar
    16    14    15    1
    17    15    16    1
    18    15    20    1
    19    16    17    1
    20    17    18    1
    21    18    19    1
    22    19    20    1
