@<TRIPOS>MOLECULE
27565_ChemDiv_1889-3510
 23 25 0 0 0
SMALL
GASTEIGER
Energy = 0

@<TRIPOS>ATOM
      1 C          -0.2250    0.3790    0.0000 C.2     1  LIG1        0.0792
      2 C           0.7710    0.3960    0.0000 C.2     1  LIG1        0.3458
      3 O           1.0920   -0.5670    0.0000 O.3     1  LIG1       -0.4210
      4 C           0.2750   -1.1500    0.0000 C.2     1  LIG1        0.1489
      5 C          -0.5330   -0.5670    0.0000 C.2     1  LIG1        0.0441
      6 C           0.2880   -2.1460    0.0000 C.ar    1  LIG1        0.0347
      7 C          -0.5750   -2.6460    0.0000 C.ar    1  LIG1        0.0030
      8 C          -0.5750   -3.6580    0.0000 C.ar    1  LIG1        0.0001
      9 C           0.2880   -4.1460    0.0000 C.ar    1  LIG1        0.0000
     10 C           1.1630   -3.6580    0.0000 C.ar    1  LIG1        0.0001
     11 C           1.1630   -2.6460    0.0000 C.ar    1  LIG1        0.0030
     12 O           1.3580    1.1880    0.0000 O.2     1  LIG1       -0.2445
     13 C          -0.8170    1.1880    0.0000 C.2     1  LIG1        0.0097
     14 C          -0.4130    2.0960    0.0000 C.ar    1  LIG1        0.0372
     15 C          -1.0040    2.9080    0.0000 C.ar    1  LIG1        0.1388
     16 C          -0.6040    3.8170    0.0000 C.ar    1  LIG1        0.0400
     17 C           0.3960    3.9290    0.0000 C.ar    1  LIG1        0.0400
     18 C           0.9960    3.1250    0.0000 C.ar    1  LIG1        0.1389
     19 C           0.5750    2.2130    0.0000 C.ar    1  LIG1        0.0399
     20 O           1.9670    3.2250    0.0000 O.3     1  LIG1       -0.4714
     21 C           2.3880    4.1460    0.0000 C.3     1  LIG1        0.2525
     22 O          -1.9880    2.8040    0.0000 O.3     1  LIG1       -0.4714
     23 C          -2.3920    1.8790    0.0000 C.3     1  LIG1        0.2525
@<TRIPOS>BOND
     1     1     2    1
     2     1     5    1
     3     1    13    2
     4     2     3    1
     5     2    12    2
     6     3     4    1
     7     4     5    2
     8     4     6    1
     9     6     7   ar
    10     6    11   ar
    11     7     8   ar
    12     8     9   ar
    13     9    10   ar
    14    10    11   ar
    15    13    14    1
    16    14    15   ar
    17    14    19   ar
    18    15    16   ar
    19    15    22    1
    20    16    17   ar
    21    17    18   ar
    22    18    19   ar
    23    18    20    1
    24    20    21    1
    25    22    23    1
