@<TRIPOS>MOLECULE
27572_ChemDiv_2641-1576
 31 36 0 0 0
SMALL
GASTEIGER
Energy = 0

@<TRIPOS>ATOM
      1 C           0.4250    0.2380    0.0000 C.2     1  LIG1        0.0323
      2 C          -0.4330   -0.2420    0.0000 C.2     1  LIG1       -0.0199
      3 C          -0.4330   -1.2500    0.0000 C.ar    1  LIG1        0.0108
      4 C           0.4250   -1.7630    0.0000 C.ar    1  LIG1        0.0656
      5 N           1.3000   -1.2710    0.0000 N.pl3   1  LIG1       -0.2303
      6 C           1.3000   -0.2420    0.0000 C.3     1  LIG1        0.1408
      7 C           2.1710    0.2380    0.0000 C.ar    1  LIG1        0.0207
      8 C           2.1710    1.2670    0.0000 C.ar    1  LIG1        0.0966
      9 N           3.0250    1.7580    0.0000 N.ar    1  LIG1       -0.2426
     10 C           3.8960    1.2670    0.0000 C.ar    1  LIG1        0.0989
     11 C           3.8960    0.2710    0.0000 C.ar    1  LIG1        0.0204
     12 C           3.0250   -0.2420    0.0000 C.ar    1  LIG1        0.0008
     13 C           0.4250   -2.7250    0.0000 C.ar    1  LIG1        0.0161
     14 C          -0.4330   -3.2630    0.0000 C.ar    1  LIG1        0.0013
     15 C          -1.3000   -2.7580    0.0000 C.ar    1  LIG1        0.0001
     16 C          -1.3000   -1.7460    0.0000 C.ar    1  LIG1        0.0009
     17 C          -2.1710   -1.2500    0.0000 C.ar    1  LIG1        0.0000
     18 C          -3.0380   -1.7630    0.0000 C.ar    1  LIG1        0.0000
     19 C          -3.0380   -2.7250    0.0000 C.ar    1  LIG1        0.0000
     20 C          -2.1710   -3.2630    0.0000 C.ar    1  LIG1        0.0000
     21 C          -1.3000    0.2500    0.0000 C.3     1  LIG1        0.0310
     22 C          -1.3000    1.2670    0.0000 C.3     1  LIG1        0.0343
     23 C          -0.4330    1.7580    0.0000 C.3     1  LIG1        0.0735
     24 C           0.4420    1.2540    0.0000 C.2     1  LIG1        0.1711
     25 O           1.3040    1.7420    0.0000 O.2     1  LIG1       -0.2916
     26 C          -2.1540    1.7580    0.0000 C.ar    1  LIG1       -0.0217
     27 C          -2.1540    2.7710    0.0000 C.ar    1  LIG1       -0.0043
     28 C          -3.0130    3.2670    0.0000 C.ar    1  LIG1       -0.0003
     29 C          -3.9000    2.7710    0.0000 C.ar    1  LIG1       -0.0000
     30 C          -3.8790    1.7710    0.0000 C.ar    1  LIG1       -0.0003
     31 C          -3.0250    1.2830    0.0000 C.ar    1  LIG1       -0.0043
@<TRIPOS>BOND
     1     1     2    2
     2     1     6    1
     3     1    24    1
     4     2     3    1
     5     2    21    1
     6     3     4   ar
     7     3    16   ar
     8     4     5    1
     9     4    13   ar
    10     5     6    1
    11     6     7    1
    12     7     8   ar
    13     7    12   ar
    14     8     9   ar
    15     9    10   ar
    16    10    11   ar
    17    11    12   ar
    18    13    14   ar
    19    14    15   ar
    20    15    16   ar
    21    15    20   ar
    22    16    17   ar
    23    17    18   ar
    24    18    19   ar
    25    19    20   ar
    26    21    22    1
    27    22    23    1
    28    22    26    1
    29    23    24    1
    30    24    25    2
    31    26    27   ar
    32    26    31   ar
    33    27    28   ar
    34    28    29   ar
    35    29    30   ar
    36    30    31   ar
