@<TRIPOS>MOLECULE
27570_ChemDiv_2641-1544
 30 35 0 0 0
SMALL
GASTEIGER
Energy = 0

@<TRIPOS>ATOM
      1 C          -0.3790    0.4380    0.0000 C.2     1  LIG1        0.0323
      2 C          -1.2330   -0.0580    0.0000 C.2     1  LIG1       -0.0202
      3 C          -1.2330   -1.0540    0.0000 C.ar    1  LIG1        0.0122
      4 C          -0.3790   -1.5710    0.0000 C.ar    1  LIG1        0.0657
      5 N           0.4920   -1.0710    0.0000 N.pl3   1  LIG1       -0.2304
      6 C           0.4920   -0.0580    0.0000 C.3     1  LIG1        0.1394
      7 C           1.3540    0.4380    0.0000 C.ar    1  LIG1        0.0048
      8 C           1.3540    1.4540    0.0000 C.ar    1  LIG1        0.0379
      9 C           2.2210    1.9500    0.0000 C.ar    1  LIG1        0.1762
     10 C           3.0750    1.4540    0.0000 C.ar    1  LIG1        0.1764
     11 O           3.8290    2.1670    0.0000 O.3     1  LIG1       -0.4346
     12 C           3.4040    3.0630    0.0000 C.3     1  LIG1        0.4294
     13 O           2.3880    2.9330    0.0000 O.3     1  LIG1       -0.4346
     14 C           3.0750    0.4670    0.0000 C.ar    1  LIG1        0.0399
     15 C           2.2210   -0.0580    0.0000 C.ar    1  LIG1        0.0010
     16 C          -0.3790   -2.5330    0.0000 C.ar    1  LIG1        0.0176
     17 C          -1.2330   -3.0580    0.0000 C.ar    1  LIG1        0.0204
     18 C          -2.1000   -2.5540    0.0000 C.ar    1  LIG1        0.0814
     19 C          -2.1000   -1.5460    0.0000 C.ar    1  LIG1        0.0186
     20 C          -2.9630   -1.0540    0.0000 C.ar    1  LIG1        0.0031
     21 C          -3.8330   -1.5710    0.0000 C.ar    1  LIG1        0.0207
     22 C          -3.8330   -2.5330    0.0000 C.ar    1  LIG1        0.0988
     23 N          -2.9630   -3.0580    0.0000 N.ar    1  LIG1       -0.2438
     24 C          -2.0830    0.4670    0.0000 C.3     1  LIG1        0.0266
     25 C          -2.0750    1.4710    0.0000 C.3     1  LIG1        0.0113
     26 C          -1.2080    1.9710    0.0000 C.3     1  LIG1        0.0692
     27 C          -0.3580    1.4250    0.0000 C.2     1  LIG1        0.1707
     28 O           0.5250    1.8750    0.0000 O.2     1  LIG1       -0.2916
     29 C          -2.0830    2.3830    0.0000 C.3     1  LIG1        0.0008
     30 C          -3.1380    1.1920    0.0000 C.3     1  LIG1        0.0008
@<TRIPOS>BOND
     1     1     2    2
     2     1     6    1
     3     1    27    1
     4     2     3    1
     5     2    24    1
     6     3     4   ar
     7     3    19   ar
     8     4     5    1
     9     4    16   ar
    10     5     6    1
    11     6     7    1
    12     7     8   ar
    13     7    15   ar
    14     8     9   ar
    15     9    10   ar
    16     9    13    1
    17    10    11    1
    18    10    14   ar
    19    11    12    1
    20    12    13    1
    21    14    15   ar
    22    16    17   ar
    23    17    18   ar
    24    18    19   ar
    25    18    23   ar
    26    19    20   ar
    27    20    21   ar
    28    21    22   ar
    29    22    23   ar
    30    24    25    1
    31    25    26    1
    32    25    29    1
    33    25    30    1
    34    26    27    1
    35    27    28    2
