@<TRIPOS>MOLECULE
27578_ChemDiv_6031-0031
 30 34 0 0 0
SMALL
GASTEIGER
Energy = 0

@<TRIPOS>ATOM
      1 C           0.0080    0.8130    0.0000 C.2     1  LIG1        0.0323
      2 C          -0.9920    0.8130    0.0000 C.2     1  LIG1       -0.0202
      3 C          -1.4920   -0.0460    0.0000 C.ar    1  LIG1        0.0122
      4 C          -0.9830   -0.9210    0.0000 C.ar    1  LIG1        0.0657
      5 N           0.0420   -0.9210    0.0000 N.pl3   1  LIG1       -0.2304
      6 C           0.5380   -0.0460    0.0000 C.3     1  LIG1        0.1395
      7 C           1.5250   -0.0460    0.0000 C.ar    1  LIG1        0.0078
      8 C           2.0330   -0.8790    0.0000 C.ar    1  LIG1        0.0381
      9 C           3.0210   -0.8750    0.0000 C.ar    1  LIG1        0.1802
     10 C           3.5210   -0.0290    0.0000 C.ar    1  LIG1        0.2627
     11 C           3.0040    0.8380    0.0000 C.ar    1  LIG1        0.1802
     12 C           2.0130    0.8130    0.0000 C.ar    1  LIG1        0.0381
     13 O           3.4880    1.7040    0.0000 O.3     1  LIG1       -0.4681
     14 C           4.4710    1.7040    0.0000 C.3     1  LIG1        0.2526
     15 O           4.5170   -0.0290    0.0000 O.3     1  LIG1       -0.2801
     16 O           3.5330   -1.7130    0.0000 O.3     1  LIG1       -0.4681
     17 C           3.0540   -2.5710    0.0000 C.3     1  LIG1        0.2526
     18 C          -1.4750   -1.7920    0.0000 C.ar    1  LIG1        0.0176
     19 C          -2.4670   -1.7920    0.0000 C.ar    1  LIG1        0.0204
     20 C          -2.9750   -0.9210    0.0000 C.ar    1  LIG1        0.0814
     21 C          -2.4830   -0.0460    0.0000 C.ar    1  LIG1        0.0186
     22 C          -3.0170    0.8130    0.0000 C.ar    1  LIG1        0.0031
     23 C          -4.0170    0.8130    0.0000 C.ar    1  LIG1        0.0207
     24 C          -4.5210   -0.0460    0.0000 C.ar    1  LIG1        0.0988
     25 N          -4.0130   -0.9210    0.0000 N.ar    1  LIG1       -0.2438
     26 C          -1.5040    1.6880    0.0000 C.3     1  LIG1        0.0267
     27 C          -0.9920    2.5750    0.0000 C.3     1  LIG1        0.0128
     28 C           0.0080    2.5580    0.0000 C.3     1  LIG1        0.0692
     29 C           0.5040    1.6880    0.0000 C.2     1  LIG1        0.1707
     30 O           1.5040    1.6880    0.0000 O.2     1  LIG1       -0.2916
@<TRIPOS>BOND
     1     1     2    2
     2     1     6    1
     3     1    29    1
     4     2     3    1
     5     2    26    1
     6     3     4   ar
     7     3    21   ar
     8     4     5    1
     9     4    18   ar
    10     5     6    1
    11     6     7    1
    12     7     8   ar
    13     7    12   ar
    14     8     9   ar
    15     9    10   ar
    16     9    16    1
    17    10    11   ar
    18    10    15    1
    19    11    12   ar
    20    11    13    1
    21    13    14    1
    22    16    17    1
    23    18    19   ar
    24    19    20   ar
    25    20    21   ar
    26    20    25   ar
    27    21    22   ar
    28    22    23   ar
    29    23    24   ar
    30    24    25   ar
    31    26    27    1
    32    27    28    1
    33    28    29    1
    34    29    30    2
