@<TRIPOS>MOLECULE
27587_ChemDiv_4228-1485
 24 26 0 0 0
SMALL
GASTEIGER
Energy = 0

@<TRIPOS>ATOM
      1 C           1.9040    1.4580    0.0000 C.2     1  LIG1        0.0791
      2 C           2.2130    2.4080    0.0000 C.2     1  LIG1        0.3458
      3 O           1.4040    2.9960    0.0000 O.3     1  LIG1       -0.4210
      4 C           0.5920    2.4080    0.0000 C.2     1  LIG1        0.1489
      5 C           0.8960    1.4580    0.0000 C.2     1  LIG1        0.0441
      6 C          -0.3330    2.7130    0.0000 C.ar    1  LIG1        0.0347
      7 C          -0.5580    3.6830    0.0000 C.ar    1  LIG1        0.0039
      8 C          -1.5000    4.0080    0.0000 C.ar    1  LIG1        0.0115
      9 C          -2.2540    3.3460    0.0000 C.ar    1  LIG1        0.0577
     10 C          -2.0290    2.3500    0.0000 C.ar    1  LIG1        0.0115
     11 C          -1.0880    2.0420    0.0000 C.ar    1  LIG1        0.0039
     12 CL         -3.1830    3.6500    0.0000 Cl      1  LIG1       -0.0822
     13 O           3.1790    2.7130    0.0000 O.2     1  LIG1       -0.2445
     14 C           2.4960    0.6540    0.0000 C.2     1  LIG1        0.0066
     15 C           2.0880   -0.2580    0.0000 C.ar    1  LIG1        0.0004
     16 C           2.6670   -1.0580    0.0000 C.ar    1  LIG1        0.0031
     17 C           2.2710   -1.9670    0.0000 C.ar    1  LIG1        0.0376
     18 C           1.2580   -2.0750    0.0000 C.ar    1  LIG1        0.1484
     19 O           0.8500   -2.9830    0.0000 O.3     1  LIG1       -0.4241
     20 C          -0.1500   -3.1000    0.0000 C.2     1  LIG1        0.3220
     21 O          -0.7380   -2.2710    0.0000 O.2     1  LIG1       -0.2497
     22 C          -0.5580   -4.0080    0.0000 C.3     1  LIG1        0.1216
     23 C           0.6790   -1.2670    0.0000 C.ar    1  LIG1        0.0376
     24 C           1.0790   -0.3580    0.0000 C.ar    1  LIG1        0.0031
@<TRIPOS>BOND
     1     1     2    1
     2     1     5    1
     3     1    14    2
     4     2     3    1
     5     2    13    2
     6     3     4    1
     7     4     5    2
     8     4     6    1
     9     6     7   ar
    10     6    11   ar
    11     7     8   ar
    12     8     9   ar
    13     9    10   ar
    14     9    12    1
    15    10    11   ar
    16    14    15    1
    17    15    16   ar
    18    15    24   ar
    19    16    17   ar
    20    17    18   ar
    21    18    19    1
    22    18    23   ar
    23    19    20    1
    24    20    21    2
    25    20    22    1
    26    23    24   ar
