@<TRIPOS>MOLECULE
27588_ChemDiv_2144-0693
 27 31 0 0 0
SMALL
GASTEIGER
Energy = 0

@<TRIPOS>ATOM
      1 N          -1.6210    0.2710    0.0000 N.ar    1  LIG1       -0.2749
      2 C          -1.0210    1.0880    0.0000 C.ar    1  LIG1        0.1584
      3 C          -0.0250    0.9790    0.0000 C.ar    1  LIG1        0.1035
      4 C           0.3750    0.0670    0.0000 C.ar    1  LIG1        0.0251
      5 C          -0.2130   -0.7500    0.0000 C.ar    1  LIG1        0.1026
      6 C          -1.2130   -0.6460    0.0000 C.ar    1  LIG1        0.1659
      7 N          -1.7920   -1.4580    0.0000 N.pl3   1  LIG1       -0.1078
      8 C           0.1880   -1.6630    0.0000 C.1     1  LIG1        0.1033
      9 N           0.6040   -2.5750    0.0000 N.1     1  LIG1       -0.1907
     10 C           1.3750   -0.0460    0.0000 C.ar    1  LIG1        0.0047
     11 C           1.7830   -0.9500    0.0000 C.ar    1  LIG1        0.0402
     12 C           2.7710   -1.0580    0.0000 C.ar    1  LIG1        0.1764
     13 C           3.3540   -0.2630    0.0000 C.ar    1  LIG1        0.1764
     14 O           4.3130   -0.5670    0.0000 O.3     1  LIG1       -0.4346
     15 C           4.3000   -1.5670    0.0000 C.3     1  LIG1        0.4294
     16 O           3.3540   -1.8630    0.0000 O.3     1  LIG1       -0.4346
     17 C           2.9540    0.6670    0.0000 C.ar    1  LIG1        0.0402
     18 C           1.9540    0.7670    0.0000 C.ar    1  LIG1        0.0034
     19 C           0.5580    1.7790    0.0000 C.1     1  LIG1        0.1035
     20 N           1.1420    2.5790    0.0000 N.1     1  LIG1       -0.1907
     21 N          -1.6210    1.8830    0.0000 N.ar    1  LIG1       -0.2257
     22 C          -2.5880    1.5790    0.0000 C.ar    1  LIG1        0.0990
     23 C          -2.5880    0.5830    0.0000 C.ar    1  LIG1        0.0842
     24 C          -3.4500    0.0710    0.0000 C.ar    1  LIG1        0.0191
     25 C          -4.3170    0.5830    0.0000 C.ar    1  LIG1        0.0016
     26 C          -4.3170    1.5790    0.0000 C.ar    1  LIG1        0.0016
     27 C          -3.4500    2.0670    0.0000 C.ar    1  LIG1        0.0206
@<TRIPOS>BOND
     1     1     2   ar
     2     1     6   ar
     3     1    23   ar
     4     2     3   ar
     5     2    21   ar
     6     3     4   ar
     7     3    19    1
     8     4     5   ar
     9     4    10    1
    10     5     6   ar
    11     5     8    1
    12     6     7    1
    13     8     9    3
    14    10    11   ar
    15    10    18   ar
    16    11    12   ar
    17    12    13   ar
    18    12    16    1
    19    13    14    1
    20    13    17   ar
    21    14    15    1
    22    15    16    1
    23    17    18   ar
    24    19    20    3
    25    21    22   ar
    26    22    23   ar
    27    22    27   ar
    28    23    24   ar
    29    24    25   ar
    30    25    26   ar
    31    26    27   ar
