@<TRIPOS>MOLECULE
27585_ChemDiv_3970-1833
 29 31 0 0 0
SMALL
GASTEIGER
Energy = 0

@<TRIPOS>ATOM
      1 C          -2.0880   -1.3330    0.0000 C.2     1  LIG1        0.0791
      2 C          -2.9130   -1.9000    0.0000 C.2     1  LIG1        0.3458
      3 O          -3.7000   -1.3170    0.0000 O.3     1  LIG1       -0.4210
      4 C          -3.3920   -0.3670    0.0000 C.2     1  LIG1        0.1489
      5 C          -2.3920   -0.3830    0.0000 C.2     1  LIG1        0.0441
      6 C          -3.9580    0.4540    0.0000 C.ar    1  LIG1        0.0347
      7 C          -4.9540    0.3630    0.0000 C.ar    1  LIG1        0.0035
      8 C          -5.5210    1.1790    0.0000 C.ar    1  LIG1        0.0068
      9 C          -5.0960    2.0920    0.0000 C.ar    1  LIG1        0.0346
     10 C          -4.1040    2.1790    0.0000 C.ar    1  LIG1        0.0068
     11 C          -3.5330    1.3630    0.0000 C.ar    1  LIG1        0.0035
     12 BR         -5.6670    2.9130    0.0000 Br      1  LIG1       -0.0490
     13 O          -2.9250   -2.9080    0.0000 O.2     1  LIG1       -0.2445
     14 C          -1.1460   -1.6420    0.0000 C.2     1  LIG1        0.0067
     15 C          -0.3880   -1.0040    0.0000 C.ar    1  LIG1        0.0034
     16 C           0.5670   -1.3330    0.0000 C.ar    1  LIG1        0.0400
     17 C           1.3210   -0.6670    0.0000 C.ar    1  LIG1        0.1724
     18 C           1.1290    0.3040    0.0000 C.ar    1  LIG1        0.1730
     19 O           1.8790    0.9710    0.0000 O.3     1  LIG1       -0.4607
     20 C           2.8250    0.6630    0.0000 C.3     1  LIG1        0.3142
     21 C           3.5790    1.3170    0.0000 C.2     1  LIG1        0.3620
     22 O           3.3830    2.3040    0.0000 O.2     1  LIG1       -0.2459
     23 O           4.5250    0.9880    0.0000 O.3     1  LIG1       -0.4459
     24 C           4.7170    0.0000    0.0000 C.3     1  LIG1        0.2087
     25 C           5.6630   -0.3080    0.0000 C.3     1  LIG1        0.0513
     26 C           0.1830    0.6330    0.0000 C.ar    1  LIG1        0.0401
     27 C          -0.5880   -0.0170    0.0000 C.ar    1  LIG1        0.0033
     28 O           2.2670   -1.0040    0.0000 O.3     1  LIG1       -0.4684
     29 C           3.0210   -0.3380    0.0000 C.3     1  LIG1        0.2526
@<TRIPOS>BOND
     1     1     2    1
     2     1     5    1
     3     1    14    2
     4     2     3    1
     5     2    13    2
     6     3     4    1
     7     4     5    2
     8     4     6    1
     9     6     7   ar
    10     6    11   ar
    11     7     8   ar
    12     8     9   ar
    13     9    10   ar
    14     9    12    1
    15    10    11   ar
    16    14    15    1
    17    15    16   ar
    18    15    27   ar
    19    16    17   ar
    20    17    18   ar
    21    17    28    1
    22    18    19    1
    23    18    26   ar
    24    19    20    1
    25    20    21    1
    26    21    22    2
    27    21    23    1
    28    23    24    1
    29    24    25    1
    30    26    27   ar
    31    28    29    1
