@<TRIPOS>MOLECULE
27594_ChemDiv_8012-1407
 25 28 0 0 0
SMALL
GASTEIGER
Energy = 0

@<TRIPOS>ATOM
      1 N          -1.1500    0.2630    0.0000 N.ar    1  LIG1       -0.2749
      2 C          -0.5580    1.0790    0.0000 C.ar    1  LIG1        0.1584
      3 C           0.4290    0.9710    0.0000 C.ar    1  LIG1        0.1035
      4 C           0.8420    0.0580    0.0000 C.ar    1  LIG1        0.0251
      5 C           0.2580   -0.7540    0.0000 C.ar    1  LIG1        0.1026
      6 C          -0.7420   -0.6460    0.0000 C.ar    1  LIG1        0.1659
      7 N          -1.3250   -1.4630    0.0000 N.pl3   1  LIG1       -0.1078
      8 C           0.6580   -1.6670    0.0000 C.1     1  LIG1        0.1033
      9 N           1.0580   -2.5790    0.0000 N.1     1  LIG1       -0.1907
     10 C           1.8250   -0.0380    0.0000 C.ar    1  LIG1        0.0047
     11 C           2.2380   -0.9630    0.0000 C.ar    1  LIG1        0.0421
     12 C           3.2380   -1.0580    0.0000 C.ar    1  LIG1        0.1957
     13 O           3.6460   -1.9710    0.0000 O.3     1  LIG1       -0.2866
     14 C           3.8170   -0.2420    0.0000 C.ar    1  LIG1        0.0420
     15 C           3.4130    0.6670    0.0000 C.ar    1  LIG1        0.0033
     16 C           2.4210    0.7750    0.0000 C.ar    1  LIG1        0.0002
     17 C           1.0130    1.7880    0.0000 C.1     1  LIG1        0.1035
     18 N           1.6040    2.5830    0.0000 N.1     1  LIG1       -0.1907
     19 N          -1.1500    1.8960    0.0000 N.ar    1  LIG1       -0.2257
     20 C          -2.0960    1.5790    0.0000 C.ar    1  LIG1        0.0990
     21 C          -2.0960    0.5790    0.0000 C.ar    1  LIG1        0.0842
     22 C          -2.9710    0.0710    0.0000 C.ar    1  LIG1        0.0191
     23 C          -3.8210    0.5790    0.0000 C.ar    1  LIG1        0.0016
     24 C          -3.8210    1.5790    0.0000 C.ar    1  LIG1        0.0016
     25 C          -2.9710    2.0790    0.0000 C.ar    1  LIG1        0.0206
@<TRIPOS>BOND
     1     1     2   ar
     2     1     6   ar
     3     1    21   ar
     4     2     3   ar
     5     2    19   ar
     6     3     4   ar
     7     3    17    1
     8     4     5   ar
     9     4    10    1
    10     5     6   ar
    11     5     8    1
    12     6     7    1
    13     8     9    3
    14    10    11   ar
    15    10    16   ar
    16    11    12   ar
    17    12    13    1
    18    12    14   ar
    19    14    15   ar
    20    15    16   ar
    21    17    18    3
    22    19    20   ar
    23    20    21   ar
    24    20    25   ar
    25    21    22   ar
    26    22    23   ar
    27    23    24   ar
    28    24    25   ar
