@<TRIPOS>MOLECULE
27593_ChemDiv_4724-3143
 26 29 0 0 0
SMALL
GASTEIGER
Energy = 0

@<TRIPOS>ATOM
      1 C           1.3710    0.8540    0.0000 C.2     1  LIG1        0.0792
      2 C           1.9630    0.0460    0.0000 C.2     1  LIG1        0.0096
      3 C           1.5540   -0.8670    0.0000 C.ar    1  LIG1        0.0342
      4 C           2.1380   -1.6670    0.0000 C.ar    1  LIG1        0.0029
      5 C           1.7210   -2.5880    0.0000 C.ar    1  LIG1        0.0002
      6 C           0.7290   -2.6830    0.0000 C.ar    1  LIG1        0.0031
      7 C           0.1420   -1.8750    0.0000 C.ar    1  LIG1        0.0369
      8 C           0.5630   -0.9670    0.0000 C.ar    1  LIG1        0.1386
      9 O          -0.0250   -0.1540    0.0000 O.3     1  LIG1       -0.4714
     10 C          -1.0170   -0.2420    0.0000 C.3     1  LIG1        0.2525
     11 C           2.3210   -3.3960    0.0000 C.ar    1  LIG1        0.0000
     12 C           3.3130   -3.3080    0.0000 C.ar    1  LIG1        0.0000
     13 C           3.7210   -2.3830    0.0000 C.ar    1  LIG1        0.0000
     14 C           3.1460   -1.5710    0.0000 C.ar    1  LIG1        0.0001
     15 C           1.6880    1.8040    0.0000 C.2     1  LIG1        0.3458
     16 O           0.8710    2.3960    0.0000 O.3     1  LIG1       -0.4210
     17 C           0.0750    1.8040    0.0000 C.2     1  LIG1        0.1489
     18 C           0.3790    0.8540    0.0000 C.2     1  LIG1        0.0441
     19 C          -0.8750    2.1080    0.0000 C.ar    1  LIG1        0.0347
     20 C          -1.0750    3.0920    0.0000 C.ar    1  LIG1        0.0027
     21 C          -2.0420    3.4000    0.0000 C.ar    1  LIG1       -0.0042
     22 C          -2.7750    2.7330    0.0000 C.ar    1  LIG1       -0.0218
     23 C          -2.5710    1.7580    0.0000 C.ar    1  LIG1       -0.0042
     24 C          -1.6210    1.4540    0.0000 C.ar    1  LIG1        0.0027
     25 C          -3.7250    3.0380    0.0000 C.3     1  LIG1        0.0310
     26 O           2.6460    2.1080    0.0000 O.2     1  LIG1       -0.2445
@<TRIPOS>BOND
     1     1     2    2
     2     1    15    1
     3     1    18    1
     4     2     3    1
     5     3     4   ar
     6     3     8   ar
     7     4     5   ar
     8     4    14   ar
     9     5     6   ar
    10     5    11   ar
    11     6     7   ar
    12     7     8   ar
    13     8     9    1
    14     9    10    1
    15    11    12   ar
    16    12    13   ar
    17    13    14   ar
    18    15    16    1
    19    15    26    2
    20    16    17    1
    21    17    18    2
    22    17    19    1
    23    19    20   ar
    24    19    24   ar
    25    20    21   ar
    26    21    22   ar
    27    22    23   ar
    28    22    25    1
    29    23    24   ar
