@<TRIPOS>MOLECULE
27596_ChemDiv_8012-8825
 24 27 0 0 0
SMALL
GASTEIGER
Energy = 0

@<TRIPOS>ATOM
      1 N          -1.1460    0.2630    0.0000 N.ar    1  LIG1       -0.2749
      2 C          -0.5630    1.0790    0.0000 C.ar    1  LIG1        0.1584
      3 C           0.4380    0.9670    0.0000 C.ar    1  LIG1        0.1035
      4 C           0.8380    0.0500    0.0000 C.ar    1  LIG1        0.0250
      5 C           0.2540   -0.7580    0.0000 C.ar    1  LIG1        0.1026
      6 C          -0.7420   -0.6580    0.0000 C.ar    1  LIG1        0.1659
      7 N          -1.3250   -1.4500    0.0000 N.pl3   1  LIG1       -0.1078
      8 C           0.6540   -1.6580    0.0000 C.1     1  LIG1        0.1033
      9 N           1.0670   -2.5710    0.0000 N.1     1  LIG1       -0.1907
     10 C           1.8290   -0.0460    0.0000 C.ar    1  LIG1        0.0015
     11 C           2.2380   -0.9750    0.0000 C.ar    1  LIG1        0.0000
     12 C           3.2380   -1.0750    0.0000 C.ar    1  LIG1        0.0000
     13 C           3.8290   -0.2750    0.0000 C.ar    1  LIG1        0.0000
     14 C           3.4170    0.6540    0.0000 C.ar    1  LIG1        0.0000
     15 C           2.4210    0.7500    0.0000 C.ar    1  LIG1        0.0000
     16 C           1.0210    1.7750    0.0000 C.1     1  LIG1        0.1035
     17 N           1.6040    2.5750    0.0000 N.1     1  LIG1       -0.1907
     18 N          -1.1460    1.8790    0.0000 N.ar    1  LIG1       -0.2257
     19 C          -2.1000    1.5750    0.0000 C.ar    1  LIG1        0.0990
     20 C          -2.1000    0.5670    0.0000 C.ar    1  LIG1        0.0842
     21 C          -2.9710    0.0710    0.0000 C.ar    1  LIG1        0.0191
     22 C          -3.8330    0.5670    0.0000 C.ar    1  LIG1        0.0016
     23 C          -3.8330    1.5750    0.0000 C.ar    1  LIG1        0.0016
     24 C          -2.9710    2.0750    0.0000 C.ar    1  LIG1        0.0206
@<TRIPOS>BOND
     1     1     2   ar
     2     1     6   ar
     3     1    20   ar
     4     2     3   ar
     5     2    18   ar
     6     3     4   ar
     7     3    16    1
     8     4     5   ar
     9     4    10    1
    10     5     6   ar
    11     5     8    1
    12     6     7    1
    13     8     9    3
    14    10    11   ar
    15    10    15   ar
    16    11    12   ar
    17    12    13   ar
    18    13    14   ar
    19    14    15   ar
    20    16    17    3
    21    18    19   ar
    22    19    20   ar
    23    19    24   ar
    24    20    21   ar
    25    21    22   ar
    26    22    23   ar
    27    23    24   ar
