@<TRIPOS>MOLECULE
27599_ChemDiv_5639-0016
 27 29 0 0 0
SMALL
GASTEIGER
Energy = 0

@<TRIPOS>ATOM
      1 C          -0.6210    0.2130    0.0000 C.2     1  LIG1        0.0791
      2 C          -0.1000   -0.6670    0.0000 C.2     1  LIG1        0.3458
      3 O          -0.7670   -1.4040    0.0000 O.3     1  LIG1       -0.4210
      4 C          -1.6920   -0.9790    0.0000 C.2     1  LIG1        0.1489
      5 C          -1.5750    0.0000    0.0000 C.2     1  LIG1        0.0441
      6 C          -2.5460   -1.4920    0.0000 C.ar    1  LIG1        0.0349
      7 C          -3.4080   -0.9790    0.0000 C.ar    1  LIG1        0.0061
      8 C          -4.2880   -1.4920    0.0000 C.ar    1  LIG1        0.0370
      9 C          -4.2880   -2.4920    0.0000 C.ar    1  LIG1        0.1387
     10 C          -3.4080   -2.9790    0.0000 C.ar    1  LIG1        0.0370
     11 C          -2.5460   -2.4920    0.0000 C.ar    1  LIG1        0.0061
     12 O          -5.1540   -2.9790    0.0000 O.3     1  LIG1       -0.4714
     13 C          -5.1540   -3.9790    0.0000 C.3     1  LIG1        0.2525
     14 O           0.8880   -0.7500    0.0000 O.2     1  LIG1       -0.2445
     15 C          -0.2290    1.1380    0.0000 C.2     1  LIG1        0.0067
     16 C           0.7710    1.2540    0.0000 C.ar    1  LIG1        0.0039
     17 C           1.3580    0.4460    0.0000 C.ar    1  LIG1        0.0099
     18 C           2.3580    0.5580    0.0000 C.ar    1  LIG1        0.0715
     19 C           2.7630    1.4630    0.0000 C.ar    1  LIG1        0.1783
     20 C           2.1540    2.2790    0.0000 C.ar    1  LIG1        0.1729
     21 C           1.1750    2.1750    0.0000 C.ar    1  LIG1        0.0401
     22 O           2.5580    3.1830    0.0000 O.3     1  LIG1       -0.4684
     23 C           1.9750    3.9830    0.0000 C.3     1  LIG1        0.2526
     24 O           3.7460    1.5670    0.0000 O.3     1  LIG1       -0.4719
     25 C           4.1540    2.4920    0.0000 C.3     1  LIG1        0.2057
     26 C           5.1500    2.6000    0.0000 C.3     1  LIG1        0.0512
     27 BR          2.9420   -0.2630    0.0000 Br      1  LIG1       -0.0457
@<TRIPOS>BOND
     1     1     2    1
     2     1     5    1
     3     1    15    2
     4     2     3    1
     5     2    14    2
     6     3     4    1
     7     4     5    2
     8     4     6    1
     9     6     7   ar
    10     6    11   ar
    11     7     8   ar
    12     8     9   ar
    13     9    10   ar
    14     9    12    1
    15    10    11   ar
    16    12    13    1
    17    15    16    1
    18    16    17   ar
    19    16    21   ar
    20    17    18   ar
    21    18    19   ar
    22    18    27    1
    23    19    20   ar
    24    19    24    1
    25    20    21   ar
    26    20    22    1
    27    22    23    1
    28    24    25    1
    29    25    26    1
