@<TRIPOS>MOLECULE
27606_ChemDiv_8010-3852
 26 30 0 0 0
SMALL
GASTEIGER
Energy = 0

@<TRIPOS>ATOM
      1 C          -0.0500    0.4250    0.0000 C.2     1  LIG1        0.0323
      2 C          -1.0580    0.4250    0.0000 C.2     1  LIG1       -0.0202
      3 C          -1.5420   -0.4210    0.0000 C.ar    1  LIG1        0.0122
      4 C          -1.0380   -1.2920    0.0000 C.ar    1  LIG1        0.0657
      5 N          -0.0210   -1.2920    0.0000 N.pl3   1  LIG1       -0.2304
      6 C           0.4670   -0.4210    0.0000 C.3     1  LIG1        0.1393
      7 C           1.5500   -0.4210    0.0000 C.ar    1  LIG1        0.0015
      8 C           2.0420    0.4420    0.0000 C.ar    1  LIG1       -0.0026
      9 C           3.0210    0.4420    0.0000 C.ar    1  LIG1       -0.0045
     10 C           3.5460   -0.3920    0.0000 C.ar    1  LIG1       -0.0219
     11 C           3.0210   -1.2830    0.0000 C.ar    1  LIG1       -0.0045
     12 C           2.0710   -1.2830    0.0000 C.ar    1  LIG1       -0.0026
     13 C           4.5460   -0.3920    0.0000 C.3     1  LIG1        0.0310
     14 C          -1.5210   -2.1540    0.0000 C.ar    1  LIG1        0.0176
     15 C          -2.5210   -2.1540    0.0000 C.ar    1  LIG1        0.0204
     16 C          -3.0210   -1.2920    0.0000 C.ar    1  LIG1        0.0814
     17 C          -2.5250   -0.4210    0.0000 C.ar    1  LIG1        0.0186
     18 C          -3.0500    0.4250    0.0000 C.ar    1  LIG1        0.0031
     19 C          -4.0540    0.4250    0.0000 C.ar    1  LIG1        0.0207
     20 C          -4.5500   -0.4210    0.0000 C.ar    1  LIG1        0.0988
     21 N          -4.0370   -1.2920    0.0000 N.ar    1  LIG1       -0.2438
     22 C          -1.5630    1.2880    0.0000 C.3     1  LIG1        0.0267
     23 C          -1.0580    2.1580    0.0000 C.3     1  LIG1        0.0128
     24 C          -0.0500    2.1580    0.0000 C.3     1  LIG1        0.0692
     25 C           0.4380    1.3000    0.0000 C.2     1  LIG1        0.1707
     26 O           1.4290    1.3000    0.0000 O.2     1  LIG1       -0.2916
@<TRIPOS>BOND
     1     1     2    2
     2     1     6    1
     3     1    25    1
     4     2     3    1
     5     2    22    1
     6     3     4   ar
     7     3    17   ar
     8     4     5    1
     9     4    14   ar
    10     5     6    1
    11     6     7    1
    12     7     8   ar
    13     7    12   ar
    14     8     9   ar
    15     9    10   ar
    16    10    11   ar
    17    10    13    1
    18    11    12   ar
    19    14    15   ar
    20    15    16   ar
    21    16    17   ar
    22    16    21   ar
    23    17    18   ar
    24    18    19   ar
    25    19    20   ar
    26    20    21   ar
    27    22    23    1
    28    23    24    1
    29    24    25    1
    30    25    26    2
