@<TRIPOS>MOLECULE
27614_ChemDiv_2043-1185
 23 27 0 0 0
SMALL
GASTEIGER
Energy = 0

@<TRIPOS>ATOM
      1 C          -1.9750    0.3830    0.0000 C.3     1  LIG1        0.0708
      2 C          -1.8170    1.2380    0.0000 C.2     1  LIG1        0.2447
      3 N          -0.9330    1.7670    0.0000 N.am    1  LIG1       -0.1777
      4 C          -0.0170    1.2960    0.0000 C.ar    1  LIG1        0.0925
      5 C           0.8540    1.8000    0.0000 C.ar    1  LIG1        0.0197
      6 C           1.7420    1.2960    0.0000 C.ar    1  LIG1        0.0190
      7 C           1.7420    0.2920    0.0000 C.ar    1  LIG1        0.0814
      8 N           0.8540   -0.2040    0.0000 N.ar    1  LIG1       -0.2425
      9 C          -0.0170    0.2920    0.0000 C.ar    1  LIG1        0.1153
     10 C           2.6250   -0.2040    0.0000 C.ar    1  LIG1        0.0191
     11 C           3.5000    0.2920    0.0000 C.ar    1  LIG1        0.0015
     12 C           3.5000    1.2960    0.0000 C.ar    1  LIG1        0.0001
     13 C           2.6250    1.8000    0.0000 C.ar    1  LIG1        0.0015
     14 O          -2.6880    1.7080    0.0000 O.2     1  LIG1       -0.2730
     15 C          -2.8460   -0.1210    0.0000 C.3     1  LIG1        0.0087
     16 C          -2.8460   -1.0290    0.0000 C.3     1  LIG1        0.0005
     17 C          -1.5420   -1.4040    0.0000 C.3     1  LIG1        0.0000
     18 C          -1.0290   -0.9290    0.0000 C.3     1  LIG1        0.0005
     19 C          -1.0290   -0.0880    0.0000 C.3     1  LIG1        0.0087
     20 C          -1.2670   -1.7960    0.0000 C.3     1  LIG1        0.0000
     21 C          -2.4500   -1.4040    0.0000 C.3     1  LIG1        0.0005
     22 C          -2.4500   -0.3210    0.0000 C.3     1  LIG1        0.0087
     23 C          -3.5040   -1.6960    0.0000 C.3     1  LIG1        0.0000
@<TRIPOS>BOND
     1     1     2    1
     2     1    15    1
     3     1    19    1
     4     1    22    1
     5     2     3   am
     6     2    14    2
     7     3     4    1
     8     4     5   ar
     9     4     9   ar
    10     5     6   ar
    11     6     7   ar
    12     6    13   ar
    13     7     8   ar
    14     7    10   ar
    15     8     9   ar
    16    10    11   ar
    17    11    12   ar
    18    12    13   ar
    19    15    16    1
    20    16    17    1
    21    16    23    1
    22    17    18    1
    23    18    19    1
    24    18    20    1
    25    20    21    1
    26    21    22    1
    27    21    23    1
