@<TRIPOS>MOLECULE
27619_ChemDiv_5639-0047
 28 30 0 0 0
SMALL
GASTEIGER
Energy = 0

@<TRIPOS>ATOM
      1 C           0.3000    0.2210    0.0000 C.2     1  LIG1        0.0791
      2 C           0.8250   -0.6540    0.0000 C.2     1  LIG1        0.3458
      3 O           0.1580   -1.3880    0.0000 O.3     1  LIG1       -0.4210
      4 C          -0.7670   -0.9790    0.0000 C.2     1  LIG1        0.1489
      5 C          -0.6540    0.0130    0.0000 C.2     1  LIG1        0.0441
      6 C          -1.6380   -1.4790    0.0000 C.ar    1  LIG1        0.0347
      7 C          -2.5040   -0.9790    0.0000 C.ar    1  LIG1        0.0027
      8 C          -3.3540   -1.4790    0.0000 C.ar    1  LIG1       -0.0042
      9 C          -3.3540   -2.4880    0.0000 C.ar    1  LIG1       -0.0225
     10 C          -2.5040   -2.9790    0.0000 C.ar    1  LIG1       -0.0042
     11 C          -1.6380   -2.4880    0.0000 C.ar    1  LIG1        0.0027
     12 C          -4.2250   -2.9790    0.0000 C.3     1  LIG1        0.0224
     13 C          -4.2250   -3.9880    0.0000 C.3     1  LIG1        0.0047
     14 C          -5.0920   -2.4880    0.0000 C.3     1  LIG1        0.0047
     15 O           1.8170   -0.7670    0.0000 O.2     1  LIG1       -0.2445
     16 C           0.7080    1.1460    0.0000 C.2     1  LIG1        0.0068
     17 C           1.7080    1.2500    0.0000 C.ar    1  LIG1        0.0064
     18 C           2.2880    0.4380    0.0000 C.ar    1  LIG1        0.0403
     19 C           3.2880    0.5420    0.0000 C.ar    1  LIG1        0.1754
     20 C           3.6960    1.4500    0.0000 C.ar    1  LIG1        0.2061
     21 C           3.1040    2.2670    0.0000 C.ar    1  LIG1        0.1754
     22 C           2.1000    2.1580    0.0000 C.ar    1  LIG1        0.0403
     23 O           3.5000    3.1750    0.0000 O.3     1  LIG1       -0.4683
     24 C           2.9080    3.9920    0.0000 C.3     1  LIG1        0.2526
     25 O           4.6790    1.5670    0.0000 O.3     1  LIG1       -0.4654
     26 C           5.0880    2.4790    0.0000 C.3     1  LIG1        0.2528
     27 O           3.8790   -0.2670    0.0000 O.3     1  LIG1       -0.4683
     28 C           4.8710   -0.1580    0.0000 C.3     1  LIG1        0.2526
@<TRIPOS>BOND
     1     1     2    1
     2     1     5    1
     3     1    16    2
     4     2     3    1
     5     2    15    2
     6     3     4    1
     7     4     5    2
     8     4     6    1
     9     6     7   ar
    10     6    11   ar
    11     7     8   ar
    12     8     9   ar
    13     9    10   ar
    14     9    12    1
    15    10    11   ar
    16    12    13    1
    17    12    14    1
    18    16    17    1
    19    17    18   ar
    20    17    22   ar
    21    18    19   ar
    22    19    20   ar
    23    19    27    1
    24    20    21   ar
    25    20    25    1
    26    21    22   ar
    27    21    23    1
    28    23    24    1
    29    25    26    1
    30    27    28    1
