@<TRIPOS>MOLECULE
27612_ChemDiv_2039-0570
 24 25 0 0 0
SMALL
GASTEIGER
Energy = 0

@<TRIPOS>ATOM
      1 C           0.1710   -1.0080    0.0000 C.ar    1  LIG1        0.1148
      2 C          -0.1290   -0.0500    0.0000 C.ar    1  LIG1        0.1617
      3 N           0.6710    0.5460    0.0000 N.ar    1  LIG1       -0.2889
      4 C           1.4880   -0.0500    0.0000 C.ar    1  LIG1        0.1325
      5 S           1.1750   -1.0080    0.0000 S.2     1  LIG1       -0.0453
      6 S           2.4420    0.2630    0.0000 S.2     1  LIG1       -0.0244
      7 C           0.6710    1.5330    0.0000 C.ar    1  LIG1        0.0651
      8 C          -0.1880    2.0250    0.0000 C.ar    1  LIG1        0.0175
      9 C          -0.1880    3.0290    0.0000 C.ar    1  LIG1        0.0015
     10 C           0.6710    3.5420    0.0000 C.ar    1  LIG1        0.0001
     11 C           1.5420    3.0460    0.0000 C.ar    1  LIG1        0.0015
     12 C           1.5420    2.0420    0.0000 C.ar    1  LIG1        0.0175
     13 C          -1.0830    0.2630    0.0000 C.2     1  LIG1        0.3594
     14 O          -1.8210   -0.4080    0.0000 O.2     1  LIG1       -0.2432
     15 O          -1.3000    1.2210    0.0000 O.3     1  LIG1       -0.4444
     16 C          -2.2460    1.5500    0.0000 C.3     1  LIG1        0.2089
     17 C          -2.4460    2.5210    0.0000 C.3     1  LIG1        0.0513
     18 N          -0.4170   -1.8130    0.0000 N.am    1  LIG1       -0.2008
     19 C          -1.4170   -1.7080    0.0000 C.2     1  LIG1        0.2360
     20 O          -1.9920   -2.5290    0.0000 O.2     1  LIG1       -0.2741
     21 C          -1.8040   -0.7920    0.0000 C.3     1  LIG1        0.0956
     22 C          -0.0130   -2.7330    0.0000 C.2     1  LIG1        0.2360
     23 O           0.9920   -2.8330    0.0000 O.2     1  LIG1       -0.2741
     24 C          -0.6000   -3.5380    0.0000 C.3     1  LIG1        0.0956
@<TRIPOS>BOND
     1     1     2   ar
     2     1     5   ar
     3     1    18    1
     4     2     3   ar
     5     2    13    1
     6     3     4   ar
     7     3     7    1
     8     4     5   ar
     9     4     6    2
    10     7     8   ar
    11     7    12   ar
    12     8     9   ar
    13     9    10   ar
    14    10    11   ar
    15    11    12   ar
    16    13    14    2
    17    13    15    1
    18    15    16    1
    19    16    17    1
    20    18    19   am
    21    18    22   am
    22    19    20    2
    23    19    21    1
    24    22    23    2
    25    22    24    1
