@<TRIPOS>MOLECULE
27617_ChemDiv_5639-0028
 25 28 0 0 0
SMALL
GASTEIGER
Energy = 0

@<TRIPOS>ATOM
      1 C           0.5500    0.9210    0.0000 C.2     1  LIG1        0.0791
      2 C           1.0500    0.0380    0.0000 C.2     1  LIG1        0.3458
      3 O           0.3960   -0.7040    0.0000 O.3     1  LIG1       -0.4210
      4 C          -0.5130   -0.2920    0.0000 C.2     1  LIG1        0.1489
      5 C          -0.4040    0.7080    0.0000 C.2     1  LIG1        0.0441
      6 C          -1.4040   -0.7790    0.0000 C.ar    1  LIG1        0.0349
      7 C          -2.2580   -0.2920    0.0000 C.ar    1  LIG1        0.0061
      8 C          -3.1290   -0.7790    0.0000 C.ar    1  LIG1        0.0370
      9 C          -3.1290   -1.7830    0.0000 C.ar    1  LIG1        0.1386
     10 C          -2.2580   -2.3000    0.0000 C.ar    1  LIG1        0.0370
     11 C          -1.4040   -1.7830    0.0000 C.ar    1  LIG1        0.0061
     12 O          -3.9920   -2.3000    0.0000 O.3     1  LIG1       -0.4755
     13 C          -3.9920   -3.3040    0.0000 C.3     1  LIG1        0.2055
     14 C          -4.8580   -3.7920    0.0000 C.3     1  LIG1        0.0512
     15 O           2.0670   -0.0580    0.0000 O.2     1  LIG1       -0.2445
     16 C           0.9540    1.8460    0.0000 C.2     1  LIG1        0.0067
     17 C           1.9580    1.9500    0.0000 C.ar    1  LIG1        0.0034
     18 C           2.3460    2.8750    0.0000 C.ar    1  LIG1        0.0402
     19 C           3.3500    2.9880    0.0000 C.ar    1  LIG1        0.1764
     20 C           3.9290    2.1960    0.0000 C.ar    1  LIG1        0.1764
     21 O           4.8540    2.4920    0.0000 O.3     1  LIG1       -0.4346
     22 C           4.8540    3.4880    0.0000 C.3     1  LIG1        0.4294
     23 O           3.9210    3.7960    0.0000 O.3     1  LIG1       -0.4346
     24 C           3.5380    1.2540    0.0000 C.ar    1  LIG1        0.0402
     25 C           2.5380    1.1500    0.0000 C.ar    1  LIG1        0.0033
@<TRIPOS>BOND
     1     1     2    1
     2     1     5    1
     3     1    16    2
     4     2     3    1
     5     2    15    2
     6     3     4    1
     7     4     5    2
     8     4     6    1
     9     6     7   ar
    10     6    11   ar
    11     7     8   ar
    12     8     9   ar
    13     9    10   ar
    14     9    12    1
    15    10    11   ar
    16    12    13    1
    17    13    14    1
    18    16    17    1
    19    17    18   ar
    20    17    25   ar
    21    18    19   ar
    22    19    20   ar
    23    19    23    1
    24    20    21    1
    25    20    24   ar
    26    21    22    1
    27    22    23    1
    28    24    25   ar
