@<TRIPOS>MOLECULE
27627_ChemDiv_5639-0230
 29 31 0 0 0
SMALL
GASTEIGER
Energy = 0

@<TRIPOS>ATOM
      1 C          -1.1920   -0.9920    0.0000 C.2     1  LIG1        0.1518
      2 O          -0.2670   -1.4130    0.0000 O.3     1  LIG1       -0.4209
      3 C           0.4000   -0.6750    0.0000 C.2     1  LIG1        0.3458
      4 C          -0.1210    0.2040    0.0000 C.2     1  LIG1        0.0791
      5 C          -1.0750   -0.0080    0.0000 C.2     1  LIG1        0.0442
      6 C           0.2710    1.1290    0.0000 C.2     1  LIG1        0.0068
      7 C           1.2710    1.2460    0.0000 C.ar    1  LIG1        0.0064
      8 C           1.8630    0.4330    0.0000 C.ar    1  LIG1        0.0403
      9 C           2.8630    0.5500    0.0000 C.ar    1  LIG1        0.1754
     10 C           3.2670    1.4750    0.0000 C.ar    1  LIG1        0.2061
     11 C           2.6580    2.2710    0.0000 C.ar    1  LIG1        0.1754
     12 C           1.6580    2.1670    0.0000 C.ar    1  LIG1        0.0403
     13 O           3.0630    3.1750    0.0000 O.3     1  LIG1       -0.4683
     14 C           2.4790    3.9960    0.0000 C.3     1  LIG1        0.2526
     15 O           4.2500    1.5790    0.0000 O.3     1  LIG1       -0.4654
     16 C           4.6540    2.4830    0.0000 C.3     1  LIG1        0.2528
     17 O           3.4460   -0.2580    0.0000 O.3     1  LIG1       -0.4683
     18 C           4.4290   -0.1420    0.0000 C.3     1  LIG1        0.2526
     19 O           1.3880   -0.7580    0.0000 O.2     1  LIG1       -0.2445
     20 C          -2.0460   -1.5040    0.0000 C.ar    1  LIG1        0.0688
     21 C          -2.9130   -0.9920    0.0000 C.ar    1  LIG1        0.1446
     22 C          -3.7920   -1.5040    0.0000 C.ar    1  LIG1        0.0739
     23 C          -3.7920   -2.5040    0.0000 C.ar    1  LIG1        0.1418
     24 C          -2.9130   -2.9920    0.0000 C.ar    1  LIG1        0.0372
     25 C          -2.0460   -2.5040    0.0000 C.ar    1  LIG1        0.0092
     26 O          -4.6580   -2.9920    0.0000 O.3     1  LIG1       -0.4713
     27 C          -4.6580   -3.9920    0.0000 C.3     1  LIG1        0.2525
     28 O          -2.9130    0.0130    0.0000 O.3     1  LIG1       -0.4712
     29 C          -3.7710    0.5000    0.0000 C.3     1  LIG1        0.2525
@<TRIPOS>BOND
     1     1     2    1
     2     1     5    2
     3     1    20    1
     4     2     3    1
     5     3     4    1
     6     3    19    2
     7     4     5    1
     8     4     6    2
     9     6     7    1
    10     7     8   ar
    11     7    12   ar
    12     8     9   ar
    13     9    10   ar
    14     9    17    1
    15    10    11   ar
    16    10    15    1
    17    11    12   ar
    18    11    13    1
    19    13    14    1
    20    15    16    1
    21    17    18    1
    22    20    21   ar
    23    20    25   ar
    24    21    22   ar
    25    21    28    1
    26    22    23   ar
    27    23    24   ar
    28    23    26    1
    29    24    25   ar
    30    26    27    1
    31    28    29    1
