@<TRIPOS>MOLECULE
27620_ChemDiv_2158-0051
 16 18 0 0 0
SMALL
GASTEIGER
Energy = 0

@<TRIPOS>ATOM
      1 C           1.3790   -0.5000    0.0000 C.ar    1  LIG1        0.2049
      2 C           1.3790    0.5040    0.0000 C.ar    1  LIG1        0.0719
      3 C           0.5170    1.0000    0.0000 C.ar    1  LIG1        0.1975
      4 C          -0.3420    0.4920    0.0000 C.ar    1  LIG1        0.0547
      5 C          -0.3420   -0.5000    0.0000 C.ar    1  LIG1        0.0663
      6 N           0.5170   -1.0000    0.0000 N.ar    1  LIG1       -0.2972
      7 C           0.5170   -2.0000    0.0000 C.3     1  LIG1        0.1334
      8 C          -1.2040   -1.0170    0.0000 C.ar    1  LIG1        0.0288
      9 C          -2.0790   -0.5000    0.0000 C.ar    1  LIG1        0.0591
     10 C          -2.0790    0.4920    0.0000 C.ar    1  LIG1        0.0116
     11 C          -1.2040    1.0000    0.0000 C.ar    1  LIG1        0.0055
     12 CL         -2.9380   -0.9920    0.0000 Cl      1  LIG1       -0.0822
     13 O           0.5170    2.0040    0.0000 O.2     1  LIG1       -0.2867
     14 C           2.3130    0.8040    0.0000 C.3     1  LIG1        0.0817
     15 C           2.9330    0.0380    0.0000 C.3     1  LIG1        0.2120
     16 O           2.3420   -0.8080    0.0000 O.3     1  LIG1       -0.4611
@<TRIPOS>BOND
     1     1     2   ar
     2     1     6   ar
     3     1    16    1
     4     2     3   ar
     5     2    14    1
     6     3     4   ar
     7     3    13    2
     8     4     5   ar
     9     4    11   ar
    10     5     6   ar
    11     5     8   ar
    12     6     7    1
    13     8     9   ar
    14     9    10   ar
    15     9    12    1
    16    10    11   ar
    17    14    15    1
    18    15    16    1
