@<TRIPOS>MOLECULE
27623_ChemDiv_5639-0112
 24 27 0 0 0
SMALL
GASTEIGER
Energy = 0

@<TRIPOS>ATOM
      1 C           0.0960    0.6540    0.0000 C.2     1  LIG1        0.0791
      2 C           0.6170   -0.2210    0.0000 C.2     1  LIG1        0.3458
      3 O          -0.0500   -0.9580    0.0000 O.3     1  LIG1       -0.4210
      4 C          -0.9710   -0.5380    0.0000 C.2     1  LIG1        0.1489
      5 C          -0.8580    0.4420    0.0000 C.2     1  LIG1        0.0441
      6 C          -1.8250   -1.0460    0.0000 C.ar    1  LIG1        0.0349
      7 C          -1.8250   -2.0460    0.0000 C.ar    1  LIG1        0.0061
      8 C          -2.6880   -2.5330    0.0000 C.ar    1  LIG1        0.0370
      9 C          -3.5670   -2.0460    0.0000 C.ar    1  LIG1        0.1387
     10 C          -3.5670   -1.0460    0.0000 C.ar    1  LIG1        0.0370
     11 C          -2.6880   -0.5380    0.0000 C.ar    1  LIG1        0.0061
     12 O          -4.4290   -2.5330    0.0000 O.3     1  LIG1       -0.4714
     13 C          -4.4290   -3.5330    0.0000 C.3     1  LIG1        0.2525
     14 O           1.6000   -0.3040    0.0000 O.2     1  LIG1       -0.2445
     15 C           0.4880    1.5750    0.0000 C.2     1  LIG1        0.0067
     16 C           1.4880    1.6920    0.0000 C.ar    1  LIG1        0.0034
     17 C           1.8710    2.6130    0.0000 C.ar    1  LIG1        0.0402
     18 C           2.8710    2.7170    0.0000 C.ar    1  LIG1        0.1764
     19 C           3.4790    1.9210    0.0000 C.ar    1  LIG1        0.1764
     20 O           4.4250    2.2380    0.0000 O.3     1  LIG1       -0.4346
     21 C           4.4040    3.2330    0.0000 C.3     1  LIG1        0.4294
     22 O           3.4460    3.5380    0.0000 O.3     1  LIG1       -0.4346
     23 C           3.0750    1.0000    0.0000 C.ar    1  LIG1        0.0402
     24 C           2.0750    0.8830    0.0000 C.ar    1  LIG1        0.0033
@<TRIPOS>BOND
     1     1     2    1
     2     1     5    1
     3     1    15    2
     4     2     3    1
     5     2    14    2
     6     3     4    1
     7     4     5    2
     8     4     6    1
     9     6     7   ar
    10     6    11   ar
    11     7     8   ar
    12     8     9   ar
    13     9    10   ar
    14     9    12    1
    15    10    11   ar
    16    12    13    1
    17    15    16    1
    18    16    17   ar
    19    16    24   ar
    20    17    18   ar
    21    18    19   ar
    22    18    22    1
    23    19    20    1
    24    19    23   ar
    25    20    21    1
    26    21    22    1
    27    23    24   ar
