@<TRIPOS>MOLECULE
27625_ChemDiv_5639-0225
 26 29 0 0 0
SMALL
GASTEIGER
Energy = 0

@<TRIPOS>ATOM
      1 C          -0.9710   -0.5380    0.0000 C.2     1  LIG1        0.1518
      2 O          -0.0500   -0.9580    0.0000 O.3     1  LIG1       -0.4209
      3 C           0.6170   -0.2210    0.0000 C.2     1  LIG1        0.3458
      4 C           0.0960    0.6540    0.0000 C.2     1  LIG1        0.0791
      5 C          -0.8580    0.4420    0.0000 C.2     1  LIG1        0.0442
      6 C           0.4880    1.5790    0.0000 C.2     1  LIG1        0.0067
      7 C           1.4880    1.6920    0.0000 C.ar    1  LIG1        0.0034
      8 C           1.8710    2.6170    0.0000 C.ar    1  LIG1        0.0402
      9 C           2.8710    2.7170    0.0000 C.ar    1  LIG1        0.1764
     10 C           3.4790    1.9250    0.0000 C.ar    1  LIG1        0.1764
     11 O           4.4290    2.2380    0.0000 O.3     1  LIG1       -0.4346
     12 C           4.4080    3.2380    0.0000 C.3     1  LIG1        0.4294
     13 O           3.4460    3.5380    0.0000 O.3     1  LIG1       -0.4346
     14 C           3.0750    1.0000    0.0000 C.ar    1  LIG1        0.0402
     15 C           2.0750    0.8880    0.0000 C.ar    1  LIG1        0.0033
     16 O           1.6040   -0.3040    0.0000 O.2     1  LIG1       -0.2445
     17 C          -1.8250   -1.0500    0.0000 C.ar    1  LIG1        0.0688
     18 C          -2.6880   -0.5380    0.0000 C.ar    1  LIG1        0.1446
     19 C          -3.5670   -1.0500    0.0000 C.ar    1  LIG1        0.0739
     20 C          -3.5670   -2.0460    0.0000 C.ar    1  LIG1        0.1418
     21 C          -2.6880   -2.5330    0.0000 C.ar    1  LIG1        0.0372
     22 C          -1.8250   -2.0460    0.0000 C.ar    1  LIG1        0.0092
     23 O          -4.4330   -2.5330    0.0000 O.3     1  LIG1       -0.4713
     24 C          -4.4330   -3.5330    0.0000 C.3     1  LIG1        0.2525
     25 O          -2.6880    0.4630    0.0000 O.3     1  LIG1       -0.4712
     26 C          -3.5460    0.9500    0.0000 C.3     1  LIG1        0.2525
@<TRIPOS>BOND
     1     1     2    1
     2     1     5    2
     3     1    17    1
     4     2     3    1
     5     3     4    1
     6     3    16    2
     7     4     5    1
     8     4     6    2
     9     6     7    1
    10     7     8   ar
    11     7    15   ar
    12     8     9   ar
    13     9    10   ar
    14     9    13    1
    15    10    11    1
    16    10    14   ar
    17    11    12    1
    18    12    13    1
    19    14    15   ar
    20    17    18   ar
    21    17    22   ar
    22    18    19   ar
    23    18    25    1
    24    19    20   ar
    25    20    21   ar
    26    20    23    1
    27    21    22   ar
    28    23    24    1
    29    25    26    1
