@<TRIPOS>MOLECULE
27621_ChemDiv_5639-0048
 26 28 0 0 0
SMALL
GASTEIGER
Energy = 0

@<TRIPOS>ATOM
      1 C          -1.7250    0.0210    0.0000 C.2     1  LIG1        0.1519
      2 O          -0.8000   -0.3880    0.0000 O.3     1  LIG1       -0.4209
      3 C          -0.1330    0.3460    0.0000 C.2     1  LIG1        0.3458
      4 C          -0.6580    1.2210    0.0000 C.2     1  LIG1        0.0791
      5 C          -1.6130    1.0130    0.0000 C.2     1  LIG1        0.0442
      6 C          -0.2500    2.1460    0.0000 C.2     1  LIG1        0.0066
      7 C           0.7500    2.2500    0.0000 C.ar    1  LIG1        0.0003
      8 C           1.1420    3.1580    0.0000 C.ar    1  LIG1        0.0013
      9 C           2.1460    3.2670    0.0000 C.ar    1  LIG1        0.0145
     10 C           2.7380    2.4540    0.0000 C.ar    1  LIG1        0.0479
     11 N           3.7330    2.5540    0.0000 N.pl3   1  LIG1       -0.3041
     12 C           4.3130    1.7500    0.0000 C.3     1  LIG1        0.1122
     13 C           4.1460    3.4790    0.0000 C.3     1  LIG1        0.1122
     14 C           2.3290    1.5420    0.0000 C.ar    1  LIG1        0.0145
     15 C           1.3250    1.4380    0.0000 C.ar    1  LIG1        0.0013
     16 O           0.8580    0.2330    0.0000 O.2     1  LIG1       -0.2445
     17 C          -2.6000   -0.4790    0.0000 C.ar    1  LIG1        0.0716
     18 C          -3.4630    0.0210    0.0000 C.ar    1  LIG1        0.1418
     19 C          -4.3170   -0.4790    0.0000 C.ar    1  LIG1        0.0401
     20 C          -4.3170   -1.4880    0.0000 C.ar    1  LIG1        0.0400
     21 C          -3.4630   -1.9790    0.0000 C.ar    1  LIG1        0.1390
     22 C          -2.6000   -1.4880    0.0000 C.ar    1  LIG1        0.0430
     23 O          -3.4630   -2.9790    0.0000 O.3     1  LIG1       -0.4714
     24 C          -2.6000   -3.4750    0.0000 C.3     1  LIG1        0.2525
     25 O          -3.4630    1.0210    0.0000 O.3     1  LIG1       -0.4713
     26 C          -4.3170    1.5250    0.0000 C.3     1  LIG1        0.2525
@<TRIPOS>BOND
     1     1     2    1
     2     1     5    2
     3     1    17    1
     4     2     3    1
     5     3     4    1
     6     3    16    2
     7     4     5    1
     8     4     6    2
     9     6     7    1
    10     7     8   ar
    11     7    15   ar
    12     8     9   ar
    13     9    10   ar
    14    10    11    1
    15    10    14   ar
    16    11    12    1
    17    11    13    1
    18    14    15   ar
    19    17    18   ar
    20    17    22   ar
    21    18    19   ar
    22    18    25    1
    23    19    20   ar
    24    20    21   ar
    25    21    22   ar
    26    21    23    1
    27    23    24    1
    28    25    26    1
