@<TRIPOS>MOLECULE
27629_ChemDiv_8007-7042
 25 27 0 0 0
SMALL
GASTEIGER
Energy = 0

@<TRIPOS>ATOM
      1 C          -2.0460    0.0210    0.0000 C.2     1  LIG1        0.1486
      2 O          -1.3130   -0.4210    0.0000 O.3     1  LIG1       -0.4210
      3 C          -0.5380    0.0210    0.0000 C.2     1  LIG1        0.3458
      4 C          -0.5380    0.9040    0.0000 C.2     1  LIG1        0.0792
      5 C          -2.0460    0.9040    0.0000 C.2     1  LIG1        0.0440
      6 C           0.3130    1.4040    0.0000 C.2     1  LIG1        0.0097
      7 C           1.1960    0.9210    0.0000 C.ar    1  LIG1        0.0372
      8 C           2.0710    1.4000    0.0000 C.ar    1  LIG1        0.1723
      9 C           2.9460    0.9210    0.0000 C.ar    1  LIG1        0.1724
     10 O           3.7830    1.4330    0.0000 O.3     1  LIG1       -0.4684
     11 C           4.6920    0.9210    0.0000 C.3     1  LIG1        0.2526
     12 C           2.9460   -0.1130    0.0000 C.ar    1  LIG1        0.0400
     13 C           2.0330   -0.5750    0.0000 C.ar    1  LIG1        0.0033
     14 C           1.1960   -0.1130    0.0000 C.ar    1  LIG1        0.0032
     15 O           2.0710    2.3880    0.0000 O.3     1  LIG1       -0.4684
     16 C           2.9170    2.8750    0.0000 C.3     1  LIG1        0.2526
     17 O           0.3250   -0.4790    0.0000 O.2     1  LIG1       -0.2445
     18 C          -2.9000   -0.4790    0.0000 C.ar    1  LIG1        0.0304
     19 C          -3.8080   -0.0040    0.0000 C.ar    1  LIG1       -0.0189
     20 C          -4.6960   -0.4790    0.0000 C.ar    1  LIG1       -0.0045
     21 C          -4.6960   -1.4580    0.0000 C.ar    1  LIG1       -0.0046
     22 C          -3.8210   -1.9080    0.0000 C.ar    1  LIG1       -0.0218
     23 C          -2.9000   -1.4750    0.0000 C.ar    1  LIG1       -0.0015
     24 C          -3.8210   -2.8710    0.0000 C.3     1  LIG1        0.0310
     25 C          -3.8000    0.9880    0.0000 C.3     1  LIG1        0.0311
@<TRIPOS>BOND
     1     1     2    1
     2     1     5    2
     3     1    18    1
     4     2     3    1
     5     3     4    1
     6     3    17    2
     7     4     5    1
     8     4     6    2
     9     6     7    1
    10     7     8   ar
    11     7    14   ar
    12     8     9   ar
    13     8    15    1
    14     9    10    1
    15     9    12   ar
    16    10    11    1
    17    12    13   ar
    18    13    14   ar
    19    15    16    1
    20    18    19   ar
    21    18    23   ar
    22    19    20   ar
    23    19    25    1
    24    20    21   ar
    25    21    22   ar
    26    22    23   ar
    27    22    24    1
