@<TRIPOS>MOLECULE
27622_ChemDiv_2159-1388
 28 31 0 0 0
SMALL
GASTEIGER
Energy = 0

@<TRIPOS>ATOM
      1 C           1.1960   -0.0880    0.0000 C.ar    1  LIG1        0.1069
      2 C           1.5170    0.8830    0.0000 C.ar    1  LIG1        0.0743
      3 C           2.5250    0.8830    0.0000 C.ar    1  LIG1       -0.0139
      4 C           2.8290   -0.0880    0.0000 C.ar    1  LIG1        0.0047
      5 S           2.0420   -0.6330    0.0000 S.2     1  LIG1       -0.0750
      6 C           3.8000   -0.2670    0.0000 C.3     1  LIG1        0.0327
      7 C           4.4670    0.4580    0.0000 C.3     1  LIG1        0.0055
      8 C           4.1630    1.4290    0.0000 C.3     1  LIG1        0.0050
      9 C           3.1920    1.6670    0.0000 C.3     1  LIG1        0.0268
     10 C           0.9500    1.7130    0.0000 C.2     1  LIG1        0.2856
     11 O           1.3330    2.6380    0.0000 O.2     1  LIG1       -0.2666
     12 N          -0.0750    1.6130    0.0000 N.am    1  LIG1       -0.0837
     13 N           0.2420   -0.3880    0.0000 N.am    1  LIG1       -0.1686
     14 C          -0.7460   -0.2670    0.0000 C.2     1  LIG1        0.2737
     15 C          -1.3330   -1.0630    0.0000 C.ar    1  LIG1        0.1090
     16 C          -2.3250   -1.0630    0.0000 C.ar    1  LIG1        0.1278
     17 N          -2.6250   -2.0250    0.0000 N.ar    1  LIG1       -0.0772
     18 O          -1.8380   -2.6330    0.0000 O.2     1  LIG1       -0.3576
     19 C          -1.0290   -2.0250    0.0000 C.ar    1  LIG1        0.1592
     20 C          -0.0920   -2.3290    0.0000 C.3     1  LIG1        0.0755
     21 C          -2.8960   -0.2670    0.0000 C.ar    1  LIG1        0.0316
     22 C          -3.8790   -0.3880    0.0000 C.ar    1  LIG1        0.0592
     23 CL         -4.2880   -1.3000    0.0000 Cl      1  LIG1       -0.0822
     24 C          -4.4710    0.4380    0.0000 C.ar    1  LIG1        0.0114
     25 C          -4.0630    1.3630    0.0000 C.ar    1  LIG1        0.0009
     26 C          -3.0670    1.4290    0.0000 C.ar    1  LIG1        0.0001
     27 C          -2.5040    0.6420    0.0000 C.ar    1  LIG1        0.0024
     28 O          -1.1670    0.6420    0.0000 O.2     1  LIG1       -0.2678
@<TRIPOS>BOND
     1     1     2   ar
     2     1     5   ar
     3     1    13    1
     4     2     3   ar
     5     2    10    1
     6     3     4   ar
     7     3     9    1
     8     4     5   ar
     9     4     6    1
    10     6     7    1
    11     7     8    1
    12     8     9    1
    13    10    11    2
    14    10    12   am
    15    13    14   am
    16    14    15    1
    17    14    28    2
    18    15    16   ar
    19    15    19   ar
    20    16    17   ar
    21    16    21    1
    22    17    18   ar
    23    18    19   ar
    24    19    20    1
    25    21    22   ar
    26    21    27   ar
    27    22    23    1
    28    22    24   ar
    29    24    25   ar
    30    25    26   ar
    31    26    27   ar
