@<TRIPOS>MOLECULE
27637_ChemDiv_1988-1789
 30 35 0 0 0
SMALL
GASTEIGER
Energy = 0

@<TRIPOS>ATOM
      1 C           0.4250   -0.2380    0.0000 C.2     1  LIG1        0.0658
      2 C           0.7460    0.7130    0.0000 C.ar    1  LIG1        0.0931
      3 C           0.1380    1.5210    0.0000 C.ar    1  LIG1        0.2724
      4 N           0.7290    2.3250    0.0000 N.ar    1  LIG1       -0.2521
      5 C           1.6750    2.0210    0.0000 C.ar    1  LIG1        0.1818
      6 S           1.6750    1.0170    0.0000 S.2     1  LIG1       -0.0450
      7 N           2.2670    2.8210    0.0000 N.ar    1  LIG1       -0.2205
      8 C           1.6750    3.6080    0.0000 C.ar    1  LIG1        0.0996
      9 C           0.7460    3.3210    0.0000 C.ar    1  LIG1        0.0863
     10 C           0.0000    3.9920    0.0000 C.ar    1  LIG1        0.0192
     11 C           0.2040    4.9420    0.0000 C.ar    1  LIG1        0.0016
     12 C           1.1670    5.2580    0.0000 C.ar    1  LIG1        0.0016
     13 C           1.8960    4.5790    0.0000 C.ar    1  LIG1        0.0207
     14 O          -0.8580    1.5170    0.0000 O.2     1  LIG1       -0.2660
     15 C           1.0210   -1.0460    0.0000 C.2     1  LIG1        0.2537
     16 N           0.4250   -1.8750    0.0000 N.am    1  LIG1       -0.2509
     17 C          -0.5290   -1.5580    0.0000 C.ar    1  LIG1        0.0546
     18 C          -0.5290   -0.5460    0.0000 C.ar    1  LIG1        0.0187
     19 C          -1.4040   -0.0540    0.0000 C.ar    1  LIG1        0.0014
     20 C          -2.2710   -0.5460    0.0000 C.ar    1  LIG1        0.0001
     21 C          -2.2710   -1.5580    0.0000 C.ar    1  LIG1        0.0013
     22 C          -1.4040   -2.0580    0.0000 C.ar    1  LIG1        0.0149
     23 C           0.7460   -2.8210    0.0000 C.3     1  LIG1        0.1250
     24 C           0.0630   -3.5630    0.0000 C.ar    1  LIG1       -0.0020
     25 C          -0.9080   -3.3540    0.0000 C.ar    1  LIG1       -0.0026
     26 C          -1.5790   -4.0960    0.0000 C.ar    1  LIG1       -0.0003
     27 C          -1.2750   -5.0540    0.0000 C.ar    1  LIG1       -0.0000
     28 C          -0.2880   -5.2580    0.0000 C.ar    1  LIG1       -0.0003
     29 C           0.3790   -4.5080    0.0000 C.ar    1  LIG1       -0.0026
     30 O           2.0170   -1.0460    0.0000 O.2     1  LIG1       -0.2695
@<TRIPOS>BOND
     1     1     2    2
     2     1    15    1
     3     1    18    1
     4     2     3   ar
     5     2     6   ar
     6     3     4   ar
     7     3    14    2
     8     4     5   ar
     9     4     9   ar
    10     5     6   ar
    11     5     7   ar
    12     7     8   ar
    13     8     9   ar
    14     8    13   ar
    15     9    10   ar
    16    10    11   ar
    17    11    12   ar
    18    12    13   ar
    19    15    16   am
    20    15    30    2
    21    16    17    1
    22    16    23    1
    23    17    18   ar
    24    17    22   ar
    25    18    19   ar
    26    19    20   ar
    27    20    21   ar
    28    21    22   ar
    29    23    24    1
    30    24    25   ar
    31    24    29   ar
    32    25    26   ar
    33    26    27   ar
    34    27    28   ar
    35    28    29   ar
