@<TRIPOS>MOLECULE
27634_ChemDiv_8015-7429
 24 28 0 0 0
SMALL
GASTEIGER
Energy = 0

@<TRIPOS>ATOM
      1 C          -1.7920   -1.2170    0.0000 C.3     1  LIG1        0.0087
      2 C          -0.9080   -1.6920    0.0000 C.3     1  LIG1        0.0872
      3 C          -0.0540   -1.1790    0.0000 C.2     1  LIG1        0.2456
      4 N           0.8130   -1.6790    0.0000 N.am    1  LIG1       -0.1792
      5 C           1.7000   -1.1670    0.0000 C.ar    1  LIG1        0.0735
      6 C           1.7000   -0.1790    0.0000 C.ar    1  LIG1        0.0181
      7 C           2.5630    0.3170    0.0000 C.ar    1  LIG1        0.0190
      8 C           3.4170   -0.1670    0.0000 C.ar    1  LIG1        0.0814
      9 N           4.2790    0.3290    0.0000 N.ar    1  LIG1       -0.2438
     10 C           4.2790    1.3210    0.0000 C.ar    1  LIG1        0.0988
     11 C           3.4170    1.8170    0.0000 C.ar    1  LIG1        0.0207
     12 C           2.5630    1.3170    0.0000 C.ar    1  LIG1        0.0031
     13 C           3.4170   -1.1670    0.0000 C.ar    1  LIG1        0.0204
     14 C           2.5420   -1.6670    0.0000 C.ar    1  LIG1        0.0181
     15 O          -0.0540   -0.1790    0.0000 O.2     1  LIG1       -0.2730
     16 C          -1.3290   -0.1960    0.0000 C.3     1  LIG1        0.0005
     17 C          -1.9210    0.4790    0.0000 C.3     1  LIG1        0.0000
     18 C          -2.5670    0.0750    0.0000 C.3     1  LIG1        0.0000
     19 C          -3.1210   -1.1790    0.0000 C.3     1  LIG1        0.0000
     20 C          -2.2790   -1.8130    0.0000 C.3     1  LIG1        0.0005
     21 C          -4.2830   -0.9920    0.0000 C.3     1  LIG1        0.0000
     22 C          -3.2830   -0.5170    0.0000 C.3     1  LIG1        0.0000
     23 C          -2.7420   -1.1420    0.0000 C.3     1  LIG1        0.0005
     24 C          -2.8540    0.4580    0.0000 C.3     1  LIG1        0.0000
@<TRIPOS>BOND
     1     1     2    1
     2     1    16    1
     3     1    20    1
     4     1    23    1
     5     2     3    1
     6     3     4   am
     7     3    15    2
     8     4     5    1
     9     5     6   ar
    10     5    14   ar
    11     6     7   ar
    12     7     8   ar
    13     7    12   ar
    14     8     9   ar
    15     8    13   ar
    16     9    10   ar
    17    10    11   ar
    18    11    12   ar
    19    13    14   ar
    20    16    17    1
    21    17    18    1
    22    17    24    1
    23    18    19    1
    24    19    20    1
    25    19    21    1
    26    21    22    1
    27    22    23    1
    28    22    24    1
