@<TRIPOS>MOLECULE
27644_ChemDiv_4478-3763
 28 30 0 0 0
SMALL
GASTEIGER
Energy = 0

@<TRIPOS>ATOM
      1 C          -1.7580   -1.0000    0.0000 C.2     1  LIG1        0.2491
      2 C          -2.6250   -0.5080    0.0000 C.ar    1  LIG1        0.0547
      3 C          -3.4920   -1.0000    0.0000 C.ar    1  LIG1        0.0184
      4 C          -3.4920   -1.9920    0.0000 C.2     1  LIG1        0.0730
      5 O          -2.6250   -2.4880    0.0000 O.co2   1  LIG1       -0.5446
      6 O          -4.3670   -2.4040    0.0000 O.co2   1  LIG1       -0.5446
      7 C          -4.3670   -0.5080    0.0000 C.ar    1  LIG1        0.0013
      8 C          -4.3670    0.4920    0.0000 C.ar    1  LIG1        0.0000
      9 C          -3.4920    1.0040    0.0000 C.ar    1  LIG1        0.0001
     10 C          -2.6250    0.4920    0.0000 C.ar    1  LIG1        0.0046
     11 N          -0.8630   -0.5080    0.0000 N.am    1  LIG1       -0.2726
     12 C          -0.8630    0.4920    0.0000 C.3     1  LIG1        0.1152
     13 C           0.0000    1.0040    0.0000 C.3     1  LIG1        0.1152
     14 N           0.8630    0.4920    0.0000 N.am    1  LIG1       -0.2726
     15 C           1.7630    1.0040    0.0000 C.2     1  LIG1        0.2491
     16 C           2.6250    0.4920    0.0000 C.ar    1  LIG1        0.0547
     17 C           3.5000    1.0040    0.0000 C.ar    1  LIG1        0.0184
     18 C           3.5000    1.9960    0.0000 C.2     1  LIG1        0.0730
     19 O           2.6250    2.4920    0.0000 O.co2   1  LIG1       -0.5446
     20 O           4.3630    2.4080    0.0000 O.co2   1  LIG1       -0.5446
     21 C           4.3630    0.4920    0.0000 C.ar    1  LIG1        0.0013
     22 C           4.3630   -0.5080    0.0000 C.ar    1  LIG1        0.0000
     23 C           3.5000   -1.0000    0.0000 C.ar    1  LIG1        0.0001
     24 C           2.6250   -0.5080    0.0000 C.ar    1  LIG1        0.0046
     25 O           1.7630    2.0000    0.0000 O.2     1  LIG1       -0.2699
     26 C           0.8630   -0.5080    0.0000 C.3     1  LIG1        0.1152
     27 C           0.0000   -1.0000    0.0000 C.3     1  LIG1        0.1152
     28 O          -1.7580   -2.0000    0.0000 O.2     1  LIG1       -0.2699
@<TRIPOS>BOND
     1     1     2    1
     2     1    11   am
     3     1    28    2
     4     2     3   ar
     5     2    10   ar
     6     3     4    1
     7     3     7   ar
     8     4     5   ar
     9     4     6   ar
    10     7     8   ar
    11     8     9   ar
    12     9    10   ar
    13    11    12    1
    14    11    27    1
    15    12    13    1
    16    13    14    1
    17    14    15   am
    18    14    26    1
    19    15    16    1
    20    15    25    2
    21    16    17   ar
    22    16    24   ar
    23    17    18    1
    24    17    21   ar
    25    18    19   ar
    26    18    20   ar
    27    21    22   ar
    28    22    23   ar
    29    23    24   ar
    30    26    27    1
