@<TRIPOS>MOLECULE
27648_ChemDiv_4513-1361
 26 28 0 0 0
SMALL
GASTEIGER
Energy = 0

@<TRIPOS>ATOM
      1 N           0.4290   -1.4920    0.0000 N.am    1  LIG1       -0.2681
      2 C           1.3080   -1.9920    0.0000 C.2     1  LIG1        0.2263
      3 O           1.2960   -3.0040    0.0000 O.2     1  LIG1       -0.2749
      4 C           2.1750   -1.4920    0.0000 C.3     1  LIG1        0.0912
      5 C           3.0290   -1.9920    0.0000 C.3     1  LIG1        0.0513
      6 C           3.9000   -1.4920    0.0000 C.2     1  LIG1        0.0508
      7 O           3.8750   -0.4830    0.0000 O.co2   1  LIG1       -0.5492
      8 O           4.7710   -1.9920    0.0000 O.co2   1  LIG1       -0.5492
      9 C           0.4290   -0.4830    0.0000 C.3     1  LIG1        0.1565
     10 C          -0.4290    0.0040    0.0000 C.3     1  LIG1        0.1612
     11 N          -1.3000   -0.4830    0.0000 N.4     1  LIG1        0.3820
     12 C          -2.1580    0.0040    0.0000 C.3     1  LIG1        0.1331
     13 C          -3.0330   -0.4830    0.0000 C.ar    1  LIG1        0.0328
     14 C          -3.0330   -1.4830    0.0000 C.ar    1  LIG1        0.0016
     15 C          -3.8920   -1.9750    0.0000 C.ar    1  LIG1       -0.0001
     16 C          -4.7750   -1.4830    0.0000 C.ar    1  LIG1       -0.0000
     17 C          -4.7580   -0.4710    0.0000 C.ar    1  LIG1       -0.0001
     18 C          -3.8790    0.0170    0.0000 C.ar    1  LIG1        0.0016
     19 C          -2.1630    0.9960    0.0000 C.ar    1  LIG1        0.0328
     20 C          -1.3130    1.5080    0.0000 C.ar    1  LIG1        0.0016
     21 C          -1.3130    2.5040    0.0000 C.ar    1  LIG1       -0.0001
     22 C          -2.1830    3.0080    0.0000 C.ar    1  LIG1       -0.0000
     23 C          -3.0330    2.5000    0.0000 C.ar    1  LIG1       -0.0001
     24 C          -3.0330    1.4960    0.0000 C.ar    1  LIG1        0.0016
     25 C          -1.3000   -1.4920    0.0000 C.3     1  LIG1        0.1612
     26 C          -0.4290   -1.9920    0.0000 C.3     1  LIG1        0.1565
@<TRIPOS>BOND
     1     1     2   am
     2     1     9    1
     3     1    26    1
     4     2     3    2
     5     2     4    1
     6     4     5    1
     7     5     6    1
     8     6     7   ar
     9     6     8   ar
    10     9    10    1
    11    10    11    1
    12    11    12    1
    13    11    25    1
    14    12    13    1
    15    12    19    1
    16    13    14   ar
    17    13    18   ar
    18    14    15   ar
    19    15    16   ar
    20    16    17   ar
    21    17    18   ar
    22    19    20   ar
    23    19    24   ar
    24    20    21   ar
    25    21    22   ar
    26    22    23   ar
    27    23    24   ar
    28    25    26    1
