@<TRIPOS>MOLECULE
27641_ChemDiv_4073-0008
 21 23 0 0 0
SMALL
GASTEIGER
Energy = 0

@<TRIPOS>ATOM
      1 N           0.5540    0.8830    0.0000 N.ar    1  LIG1       -0.2110
      2 C          -0.4210    0.8830    0.0000 C.ar    1  LIG1        0.1655
      3 N          -0.7460    1.8380    0.0000 N.ar    1  LIG1       -0.2034
      4 C           0.0580    2.4250    0.0000 C.ar    1  LIG1        0.2213
      5 N           0.8880    1.8630    0.0000 N.ar    1  LIG1       -0.1410
      6 C          -0.9830    0.0580    0.0000 C.ar    1  LIG1        0.0359
      7 C          -1.9790    0.1250    0.0000 C.ar    1  LIG1        0.0035
      8 C          -2.5460   -0.6880    0.0000 C.ar    1  LIG1        0.0062
      9 C          -2.1210   -1.6000    0.0000 C.ar    1  LIG1        0.0252
     10 S          -2.6830   -2.4210    0.0000 S.3     1  LIG1       -0.1127
     11 C          -3.6790   -2.3460    0.0000 C.3     1  LIG1        0.0742
     12 C          -1.1210   -1.6630    0.0000 C.ar    1  LIG1        0.0062
     13 C          -0.5670   -0.8420    0.0000 C.ar    1  LIG1        0.0035
     14 C           1.1210    0.0710    0.0000 C.ar    1  LIG1        0.0813
     15 C           2.1170    0.1210    0.0000 C.ar    1  LIG1        0.0065
     16 C           2.6790   -0.6960    0.0000 C.ar    1  LIG1        0.0551
     17 CL          3.6750   -0.5830    0.0000 Cl      1  LIG1       -0.0825
     18 C           2.2500   -1.6170    0.0000 C.ar    1  LIG1        0.0112
     19 C           1.2460   -1.6830    0.0000 C.ar    1  LIG1        0.0024
     20 C           0.6880   -0.8420    0.0000 C.ar    1  LIG1        0.0189
     21 C           2.5540    1.0080    0.0000 C.3     1  LIG1        0.0335
@<TRIPOS>BOND
     1     1     2   ar
     2     1     5   ar
     3     1    14    1
     4     2     3   ar
     5     2     6    1
     6     3     4   ar
     7     4     5   ar
     8     6     7   ar
     9     6    13   ar
    10     7     8   ar
    11     8     9   ar
    12     9    10    1
    13     9    12   ar
    14    10    11    1
    15    12    13   ar
    16    14    15   ar
    17    14    20   ar
    18    15    16   ar
    19    15    21    1
    20    16    17    1
    21    16    18   ar
    22    18    19   ar
    23    19    20   ar
