@<TRIPOS>MOLECULE
27649_ChemDiv_8008-1557
 27 29 0 0 0
SMALL
GASTEIGER
Energy = 0

@<TRIPOS>ATOM
      1 C           0.3130    1.2040    0.0000 C.2     1  LIG1        0.0791
      2 C           0.3130    0.3290    0.0000 C.2     1  LIG1        0.3458
      3 O          -0.4460   -0.1080    0.0000 O.3     1  LIG1       -0.4210
      4 C          -1.1960    0.3290    0.0000 C.2     1  LIG1        0.1490
      5 C          -1.1960    1.2040    0.0000 C.2     1  LIG1        0.0441
      6 C          -2.0460   -0.1580    0.0000 C.ar    1  LIG1        0.0379
      7 C          -2.9000    0.3290    0.0000 C.ar    1  LIG1        0.0431
      8 C          -3.7750   -0.1580    0.0000 C.ar    1  LIG1        0.1725
      9 C          -3.7750   -1.1790    0.0000 C.ar    1  LIG1        0.1724
     10 C          -2.9000   -1.6670    0.0000 C.ar    1  LIG1        0.0401
     11 C          -2.0460   -1.1790    0.0000 C.ar    1  LIG1        0.0064
     12 O          -4.6380   -1.6880    0.0000 O.3     1  LIG1       -0.4684
     13 C          -5.5130   -1.2130    0.0000 C.3     1  LIG1        0.2526
     14 O          -4.6380    0.3540    0.0000 O.3     1  LIG1       -0.4684
     15 C          -4.6380    1.3540    0.0000 C.3     1  LIG1        0.2526
     16 O           1.1750   -0.1790    0.0000 O.2     1  LIG1       -0.2445
     17 C           1.1630    1.6920    0.0000 C.2     1  LIG1        0.0067
     18 C           2.0250    1.1710    0.0000 C.ar    1  LIG1        0.0034
     19 C           2.9210    1.6830    0.0000 C.ar    1  LIG1        0.0400
     20 C           3.7830    1.1710    0.0000 C.ar    1  LIG1        0.1724
     21 C           3.7830    0.1710    0.0000 C.ar    1  LIG1        0.1724
     22 C           2.9210   -0.3250    0.0000 C.ar    1  LIG1        0.0400
     23 C           2.0250    0.1710    0.0000 C.ar    1  LIG1        0.0033
     24 O           4.6420   -0.3250    0.0000 O.3     1  LIG1       -0.4684
     25 C           5.5080    0.1630    0.0000 C.3     1  LIG1        0.2526
     26 O           4.6420    1.6580    0.0000 O.3     1  LIG1       -0.4684
     27 C           5.4960    1.1580    0.0000 C.3     1  LIG1        0.2526
@<TRIPOS>BOND
     1     1     2    1
     2     1     5    1
     3     1    17    2
     4     2     3    1
     5     2    16    2
     6     3     4    1
     7     4     5    2
     8     4     6    1
     9     6     7   ar
    10     6    11   ar
    11     7     8   ar
    12     8     9   ar
    13     8    14    1
    14     9    10   ar
    15     9    12    1
    16    10    11   ar
    17    12    13    1
    18    14    15    1
    19    17    18    1
    20    18    19   ar
    21    18    23   ar
    22    19    20   ar
    23    20    21   ar
    24    20    26    1
    25    21    22   ar
    26    21    24    1
    27    22    23   ar
    28    24    25    1
    29    26    27    1
