@<TRIPOS>MOLECULE
27642_ChemDiv_4048-0004
 20 22 0 0 0
SMALL
GASTEIGER
Energy = 0

@<TRIPOS>ATOM
      1 N           0.0000    0.0000    0.0000 N.3     1  LIG1       -0.2567
      2 C          -1.0000    0.0000    0.0000 C.3     1  LIG1        0.1033
      3 C          -1.5000    0.8670    0.0000 C.ar    1  LIG1       -0.0036
      4 C          -2.5000    0.8670    0.0000 C.ar    1  LIG1       -0.0026
      5 C          -3.0040    1.7330    0.0000 C.ar    1  LIG1       -0.0003
      6 C          -2.5000    2.6000    0.0000 C.ar    1  LIG1       -0.0000
      7 C          -1.5000    2.6000    0.0000 C.ar    1  LIG1       -0.0003
      8 C          -1.0000    1.7330    0.0000 C.ar    1  LIG1       -0.0026
      9 C          -1.5000   -0.8630    0.0000 C.ar    1  LIG1       -0.0036
     10 C          -2.5000   -0.8630    0.0000 C.ar    1  LIG1       -0.0026
     11 C          -3.0040   -1.7290    0.0000 C.ar    1  LIG1       -0.0003
     12 C          -2.5000   -2.5960    0.0000 C.ar    1  LIG1       -0.0000
     13 C          -1.5000   -2.5960    0.0000 C.ar    1  LIG1       -0.0003
     14 C          -1.0000   -1.7290    0.0000 C.ar    1  LIG1       -0.0026
     15 C           0.4960   -0.8630    0.0000 C.3     1  LIG1        0.1363
     16 C           1.4960   -0.8630    0.0000 C.3     1  LIG1        0.1566
     17 N           1.9960    0.0000    0.0000 N.4     1  LIG1        0.3842
     18 C           1.4960    0.8670    0.0000 C.3     1  LIG1        0.1566
     19 C           0.4960    0.8670    0.0000 C.3     1  LIG1        0.1363
     20 C           3.0000    0.0000    0.0000 C.3     1  LIG1        0.2024
@<TRIPOS>BOND
     1     1     2    1
     2     1    15    1
     3     1    19    1
     4     2     3    1
     5     2     9    1
     6     3     4   ar
     7     3     8   ar
     8     4     5   ar
     9     5     6   ar
    10     6     7   ar
    11     7     8   ar
    12     9    10   ar
    13     9    14   ar
    14    10    11   ar
    15    11    12   ar
    16    12    13   ar
    17    13    14   ar
    18    15    16    1
    19    16    17    1
    20    17    18    1
    21    17    20    1
    22    18    19    1
