@<TRIPOS>MOLECULE
27645_ChemDiv_4073-0020
 22 24 0 0 0
SMALL
GASTEIGER
Energy = 0

@<TRIPOS>ATOM
      1 N           0.5750    1.3210    0.0000 N.ar    1  LIG1       -0.2110
      2 C          -0.4000    1.3210    0.0000 C.ar    1  LIG1        0.1655
      3 N          -0.7250    2.2710    0.0000 N.ar    1  LIG1       -0.2034
      4 C           0.0750    2.8580    0.0000 C.ar    1  LIG1        0.2213
      5 N           0.9000    2.2960    0.0000 N.ar    1  LIG1       -0.1410
      6 C          -0.9710    0.5040    0.0000 C.ar    1  LIG1        0.0360
      7 C          -0.5420   -0.4080    0.0000 C.ar    1  LIG1        0.0043
      8 C          -1.1040   -1.2330    0.0000 C.ar    1  LIG1        0.0146
      9 C          -2.1170   -1.1670    0.0000 C.ar    1  LIG1        0.0479
     10 N          -2.6830   -1.9750    0.0000 N.pl3   1  LIG1       -0.3041
     11 C          -3.6880   -1.9000    0.0000 C.3     1  LIG1        0.1122
     12 C          -2.2330   -2.8540    0.0000 C.3     1  LIG1        0.1122
     13 C          -2.5420   -0.2500    0.0000 C.ar    1  LIG1        0.0146
     14 C          -1.9750    0.5710    0.0000 C.ar    1  LIG1        0.0043
     15 C           1.1330    0.5040    0.0000 C.ar    1  LIG1        0.0813
     16 C           2.1290    0.5630    0.0000 C.ar    1  LIG1        0.0065
     17 C           2.6920   -0.2580    0.0000 C.ar    1  LIG1        0.0551
     18 CL          3.6830   -0.1630    0.0000 Cl      1  LIG1       -0.0825
     19 C           2.2630   -1.1750    0.0000 C.ar    1  LIG1        0.0112
     20 C           1.2580   -1.2330    0.0000 C.ar    1  LIG1        0.0024
     21 C           0.7040   -0.4040    0.0000 C.ar    1  LIG1        0.0189
     22 C           2.5750    1.4460    0.0000 C.3     1  LIG1        0.0335
@<TRIPOS>BOND
     1     1     2   ar
     2     1     5   ar
     3     1    15    1
     4     2     3   ar
     5     2     6    1
     6     3     4   ar
     7     4     5   ar
     8     6     7   ar
     9     6    14   ar
    10     7     8   ar
    11     8     9   ar
    12     9    10    1
    13     9    13   ar
    14    10    11    1
    15    10    12    1
    16    13    14   ar
    17    15    16   ar
    18    15    21   ar
    19    16    17   ar
    20    16    22    1
    21    17    18    1
    22    17    19   ar
    23    19    20   ar
    24    20    21   ar
