@<TRIPOS>MOLECULE
27650_ChemDiv_2174-0444
 24 26 0 0 0
SMALL
GASTEIGER
Energy = 0

@<TRIPOS>ATOM
      1 N           0.7670   -0.2080    0.0000 N.am    1  LIG1       -0.2081
      2 C           0.7420   -1.2000    0.0000 C.2     1  LIG1        0.2356
      3 C          -0.2250   -1.5000    0.0000 C.3     1  LIG1        0.0954
      4 C          -0.7670   -0.6580    0.0000 C.3     1  LIG1        0.0910
      5 C          -0.1460    0.1460    0.0000 C.2     1  LIG1        0.2354
      6 O          -0.4210    1.1380    0.0000 O.2     1  LIG1       -0.2741
      7 C          -1.7830   -0.6580    0.0000 C.3     1  LIG1        0.0390
      8 C          -2.2790   -1.5250    0.0000 C.ar    1  LIG1        0.0123
      9 C          -3.2710   -1.5250    0.0000 C.ar    1  LIG1        0.1347
     10 O          -3.7670   -0.6580    0.0000 O.3     1  LIG1       -0.4717
     11 C          -3.2710    0.1920    0.0000 C.3     1  LIG1        0.2525
     12 C          -3.7670   -2.3920    0.0000 C.ar    1  LIG1        0.0366
     13 C          -3.2710   -3.2580    0.0000 C.ar    1  LIG1        0.0031
     14 C          -2.2790   -3.2580    0.0000 C.ar    1  LIG1       -0.0001
     15 C          -1.7830   -2.3920    0.0000 C.ar    1  LIG1       -0.0013
     16 O           1.5330   -1.8380    0.0000 O.2     1  LIG1       -0.2741
     17 C           1.2830    0.6630    0.0000 C.ar    1  LIG1        0.0608
     18 C           0.7880    1.5290    0.0000 C.ar    1  LIG1        0.0184
     19 C           1.2830    2.3960    0.0000 C.ar    1  LIG1        0.0382
     20 C           2.2750    2.3960    0.0000 C.ar    1  LIG1        0.1388
     21 C           2.7710    1.5290    0.0000 C.ar    1  LIG1        0.0382
     22 C           2.2750    0.6630    0.0000 C.ar    1  LIG1        0.0184
     23 O           2.7710    3.2630    0.0000 O.3     1  LIG1       -0.4714
     24 C           3.7630    3.2630    0.0000 C.3     1  LIG1        0.2525
@<TRIPOS>BOND
     1     1     2   am
     2     1     5   am
     3     1    17    1
     4     2     3    1
     5     2    16    2
     6     3     4    1
     7     4     5    1
     8     4     7    1
     9     5     6    2
    10     7     8    1
    11     8     9   ar
    12     8    15   ar
    13     9    10    1
    14     9    12   ar
    15    10    11    1
    16    12    13   ar
    17    13    14   ar
    18    14    15   ar
    19    17    18   ar
    20    17    22   ar
    21    18    19   ar
    22    19    20   ar
    23    20    21   ar
    24    20    23    1
    25    21    22   ar
    26    23    24    1
