@<TRIPOS>MOLECULE
27658_ChemDiv_8010-4464
 27 31 0 0 0
SMALL
GASTEIGER
Energy = 0

@<TRIPOS>ATOM
      1 C           1.8830    0.0130    0.0000 C.3     1  LIG1        0.0550
      2 C           1.3170    0.8420    0.0000 C.3     1  LIG1        0.0946
      3 C           1.3170   -0.8130    0.0000 C.3     1  LIG1        0.0946
      4 C           0.3750   -0.8130    0.0000 C.2     1  LIG1        0.2358
      5 N          -0.1170    0.0250    0.0000 N.am    1  LIG1       -0.2081
      6 C           0.3750    0.8420    0.0000 C.2     1  LIG1        0.2358
      7 O          -0.1000    1.6670    0.0000 O.2     1  LIG1       -0.2741
      8 C          -1.0750    0.0250    0.0000 C.ar    1  LIG1        0.0607
      9 C          -1.5630    0.8420    0.0000 C.ar    1  LIG1        0.0162
     10 C          -2.5170    0.8420    0.0000 C.ar    1  LIG1        0.0127
     11 C          -3.0080    0.0250    0.0000 C.ar    1  LIG1        0.0578
     12 C          -2.5170   -0.8130    0.0000 C.ar    1  LIG1        0.0127
     13 C          -1.5630   -0.8130    0.0000 C.ar    1  LIG1        0.0162
     14 CL         -3.9580    0.0250    0.0000 Cl      1  LIG1       -0.0822
     15 O          -0.1000   -1.6330    0.0000 O.2     1  LIG1       -0.2741
     16 C           2.3830   -0.8330    0.0000 C.ar    1  LIG1       -0.0181
     17 C           3.3920   -0.8330    0.0000 C.ar    1  LIG1       -0.0040
     18 C           3.8750   -1.7170    0.0000 C.ar    1  LIG1       -0.0003
     19 C           3.3920   -2.5630    0.0000 C.ar    1  LIG1       -0.0000
     20 C           2.3830   -2.5630    0.0000 C.ar    1  LIG1       -0.0003
     21 C           1.8830   -1.7380    0.0000 C.ar    1  LIG1       -0.0040
     22 C           2.4460    0.8250    0.0000 C.ar    1  LIG1       -0.0181
     23 C           1.9460    1.6960    0.0000 C.ar    1  LIG1       -0.0040
     24 C           2.4630    2.5670    0.0000 C.ar    1  LIG1       -0.0003
     25 C           3.4500    2.5670    0.0000 C.ar    1  LIG1       -0.0000
     26 C           3.9540    1.6960    0.0000 C.ar    1  LIG1       -0.0003
     27 C           3.4500    0.8250    0.0000 C.ar    1  LIG1       -0.0040
@<TRIPOS>BOND
     1     1     2    1
     2     1     3    1
     3     1    16    1
     4     1    22    1
     5     2     3    1
     6     2     6    1
     7     3     4    1
     8     4     5   am
     9     4    15    2
    10     5     6   am
    11     5     8    1
    12     6     7    2
    13     8     9   ar
    14     8    13   ar
    15     9    10   ar
    16    10    11   ar
    17    11    12   ar
    18    11    14    1
    19    12    13   ar
    20    16    17   ar
    21    16    21   ar
    22    17    18   ar
    23    18    19   ar
    24    19    20   ar
    25    20    21   ar
    26    22    23   ar
    27    22    27   ar
    28    23    24   ar
    29    24    25   ar
    30    25    26   ar
    31    26    27   ar
