@<TRIPOS>MOLECULE
27651_ChemDiv_8008-1832
 24 26 0 0 0
SMALL
GASTEIGER
Energy = 0

@<TRIPOS>ATOM
      1 C          -0.5040    1.2250    0.0000 C.2     1  LIG1        0.0791
      2 C          -0.5040    0.3420    0.0000 C.2     1  LIG1        0.3458
      3 O          -1.2420   -0.1000    0.0000 O.3     1  LIG1       -0.4210
      4 C          -2.0000    0.3420    0.0000 C.2     1  LIG1        0.1489
      5 C          -2.0000    1.2250    0.0000 C.2     1  LIG1        0.0441
      6 C          -2.8500   -0.1290    0.0000 C.ar    1  LIG1        0.0347
      7 C          -2.8500   -1.1420    0.0000 C.ar    1  LIG1        0.0027
      8 C          -3.7250   -1.6460    0.0000 C.ar    1  LIG1       -0.0042
      9 C          -4.5830   -1.1420    0.0000 C.ar    1  LIG1       -0.0218
     10 C          -4.5830   -0.1290    0.0000 C.ar    1  LIG1       -0.0042
     11 C          -3.7250    0.3500    0.0000 C.ar    1  LIG1        0.0027
     12 C          -5.5080   -1.6960    0.0000 C.3     1  LIG1        0.0310
     13 O           0.3580   -0.1630    0.0000 O.2     1  LIG1       -0.2445
     14 C           0.3500    1.7000    0.0000 C.2     1  LIG1        0.0067
     15 C           1.1790    1.1920    0.0000 C.ar    1  LIG1        0.0034
     16 C           2.0380    1.7000    0.0000 C.ar    1  LIG1        0.0402
     17 C           2.9210    1.1920    0.0000 C.ar    1  LIG1        0.1772
     18 C           2.9210    0.1880    0.0000 C.ar    1  LIG1        0.2293
     19 C           2.0380   -0.3130    0.0000 C.ar    1  LIG1        0.0452
     20 C           1.1790    0.1880    0.0000 C.ar    1  LIG1        0.0035
     21 O           3.7830   -0.3130    0.0000 O.3     1  LIG1       -0.2833
     22 O           3.7920    1.6710    0.0000 O.3     1  LIG1       -0.4722
     23 C           4.6420    1.1750    0.0000 C.3     1  LIG1        0.2057
     24 C           5.5040    1.6500    0.0000 C.3     1  LIG1        0.0512
@<TRIPOS>BOND
     1     1     2    1
     2     1     5    1
     3     1    14    2
     4     2     3    1
     5     2    13    2
     6     3     4    1
     7     4     5    2
     8     4     6    1
     9     6     7   ar
    10     6    11   ar
    11     7     8   ar
    12     8     9   ar
    13     9    10   ar
    14     9    12    1
    15    10    11   ar
    16    14    15    1
    17    15    16   ar
    18    15    20   ar
    19    16    17   ar
    20    17    18   ar
    21    17    22    1
    22    18    19   ar
    23    18    21    1
    24    19    20   ar
    25    22    23    1
    26    23    24    1
