@<TRIPOS>MOLECULE
27655_ChemDiv_8009-6658
 27 31 0 0 0
SMALL
GASTEIGER
Energy = 0

@<TRIPOS>ATOM
      1 C           0.8500    0.6330    0.0000 C.2     1  LIG1        0.0791
      2 C           1.3330   -0.2630    0.0000 C.2     1  LIG1        0.3458
      3 O           0.6330   -0.9580    0.0000 O.3     1  LIG1       -0.4210
      4 C          -0.2630   -0.5460    0.0000 C.2     1  LIG1        0.1489
      5 C          -0.1380    0.4540    0.0000 C.2     1  LIG1        0.0441
      6 C          -1.1290   -1.0290    0.0000 C.ar    1  LIG1        0.0347
      7 C          -2.0000   -0.5380    0.0000 C.ar    1  LIG1        0.0030
      8 C          -2.8540   -1.0420    0.0000 C.ar    1  LIG1        0.0001
      9 C          -2.8540   -2.0290    0.0000 C.ar    1  LIG1       -0.0003
     10 C          -3.7210   -2.5380    0.0000 C.ar    1  LIG1       -0.0043
     11 C          -4.5960   -2.0420    0.0000 C.ar    1  LIG1       -0.0218
     12 C          -4.5880   -1.0290    0.0000 C.ar    1  LIG1       -0.0043
     13 C          -3.7210   -0.5210    0.0000 C.ar    1  LIG1       -0.0003
     14 C          -5.4630   -2.5380    0.0000 C.3     1  LIG1        0.0310
     15 C          -2.0000   -2.5210    0.0000 C.ar    1  LIG1        0.0001
     16 C          -1.1290   -2.0210    0.0000 C.ar    1  LIG1        0.0030
     17 O           2.3210   -0.4210    0.0000 O.2     1  LIG1       -0.2445
     18 C           1.2790    1.5250    0.0000 C.2     1  LIG1        0.0067
     19 C           2.2790    1.6000    0.0000 C.ar    1  LIG1        0.0034
     20 C           2.8500    0.7630    0.0000 C.ar    1  LIG1        0.0402
     21 C           3.8420    0.8380    0.0000 C.ar    1  LIG1        0.1764
     22 C           4.2880    1.7540    0.0000 C.ar    1  LIG1        0.1764
     23 O           5.2630    1.6290    0.0000 O.3     1  LIG1       -0.4346
     24 C           5.4580    0.6330    0.0000 C.3     1  LIG1        0.4294
     25 O           4.5790    0.1540    0.0000 O.3     1  LIG1       -0.4346
     26 C           3.7130    2.5380    0.0000 C.ar    1  LIG1        0.0402
     27 C           2.7000    2.4960    0.0000 C.ar    1  LIG1        0.0033
@<TRIPOS>BOND
     1     1     2    1
     2     1     5    1
     3     1    18    2
     4     2     3    1
     5     2    17    2
     6     3     4    1
     7     4     5    2
     8     4     6    1
     9     6     7   ar
    10     6    16   ar
    11     7     8   ar
    12     8     9   ar
    13     8    13   ar
    14     9    10   ar
    15     9    15   ar
    16    10    11   ar
    17    11    12   ar
    18    11    14    1
    19    12    13   ar
    20    15    16   ar
    21    18    19    1
    22    19    20   ar
    23    19    27   ar
    24    20    21   ar
    25    21    22   ar
    26    21    25    1
    27    22    23    1
    28    22    26   ar
    29    23    24    1
    30    24    25    1
    31    26    27   ar
