@<TRIPOS>MOLECULE
27652_ChemDiv_3578-0857
 26 28 0 0 0
SMALL
GASTEIGER
Energy = 0

@<TRIPOS>ATOM
      1 N           0.0290    0.0080    0.0000 N.am    1  LIG1       -0.2081
      2 C          -0.5960   -0.7960    0.0000 C.2     1  LIG1        0.2356
      3 C          -1.5250   -0.4420    0.0000 C.3     1  LIG1        0.0954
      4 C          -1.4670    0.5750    0.0000 C.3     1  LIG1        0.0909
      5 C          -0.5250    0.8250    0.0000 C.2     1  LIG1        0.2354
      6 O          -0.1750    1.8000    0.0000 O.2     1  LIG1       -0.2741
      7 C          -2.2710    1.2000    0.0000 C.3     1  LIG1        0.0359
      8 C          -3.1920    0.8500    0.0000 C.ar    1  LIG1       -0.0217
      9 C          -3.3630   -0.1460    0.0000 C.ar    1  LIG1       -0.0046
     10 C          -4.3130   -0.5210    0.0000 C.ar    1  LIG1       -0.0046
     11 C          -5.0790    0.1330    0.0000 C.ar    1  LIG1       -0.0219
     12 C          -4.9080    1.1330    0.0000 C.ar    1  LIG1       -0.0046
     13 C          -3.9830    1.4750    0.0000 C.ar    1  LIG1       -0.0046
     14 C          -6.0130   -0.2080    0.0000 C.3     1  LIG1        0.0310
     15 O          -0.3250   -1.7670    0.0000 O.2     1  LIG1       -0.2741
     16 C           1.0250   -0.0040    0.0000 C.ar    1  LIG1        0.0606
     17 C           1.5080   -0.8630    0.0000 C.ar    1  LIG1        0.0153
     18 C           2.5040   -0.8920    0.0000 C.ar    1  LIG1        0.0013
     19 C           3.0420   -0.0460    0.0000 C.ar    1  LIG1        0.0001
     20 C           4.0370   -0.0460    0.0000 C.2     1  LIG1        0.0012
     21 C           4.5170   -0.9040    0.0000 C.2     1  LIG1        0.0151
     22 C           5.5130   -0.9210    0.0000 C.2     1  LIG1        0.0729
     23 O           6.0130   -0.0460    0.0000 O.co2   1  LIG1       -0.5446
     24 O           5.9210   -1.7960    0.0000 O.co2   1  LIG1       -0.5446
     25 C           2.5420    0.8210    0.0000 C.ar    1  LIG1        0.0013
     26 C           1.5460    0.8420    0.0000 C.ar    1  LIG1        0.0153
@<TRIPOS>BOND
     1     1     2   am
     2     1     5   am
     3     1    16    1
     4     2     3    1
     5     2    15    2
     6     3     4    1
     7     4     5    1
     8     4     7    1
     9     5     6    2
    10     7     8    1
    11     8     9   ar
    12     8    13   ar
    13     9    10   ar
    14    10    11   ar
    15    11    12   ar
    16    11    14    1
    17    12    13   ar
    18    16    17   ar
    19    16    26   ar
    20    17    18   ar
    21    18    19   ar
    22    19    20    1
    23    19    25   ar
    24    20    21    2
    25    21    22    1
    26    22    23   ar
    27    22    24   ar
    28    25    26   ar
