@<TRIPOS>MOLECULE
27654_ChemDiv_3578-0863
 24 26 0 0 0
SMALL
GASTEIGER
Energy = 0

@<TRIPOS>ATOM
      1 N           0.7670   -0.0040    0.0000 N.am    1  LIG1       -0.2081
      2 C           0.1420   -0.8080    0.0000 C.2     1  LIG1        0.2356
      3 C          -0.7830   -0.4580    0.0000 C.3     1  LIG1        0.0954
      4 C          -0.7290    0.5580    0.0000 C.3     1  LIG1        0.0909
      5 C           0.2130    0.8080    0.0000 C.2     1  LIG1        0.2354
      6 O           0.5630    1.7830    0.0000 O.2     1  LIG1       -0.2741
      7 C          -1.5330    1.1830    0.0000 C.3     1  LIG1        0.0359
      8 C          -2.4500    0.8330    0.0000 C.ar    1  LIG1       -0.0216
      9 C          -2.6210   -0.1630    0.0000 C.ar    1  LIG1       -0.0034
     10 C          -3.5710   -0.5330    0.0000 C.ar    1  LIG1        0.0111
     11 C          -4.3380    0.1210    0.0000 C.ar    1  LIG1        0.0577
     12 CL         -5.2710   -0.2250    0.0000 Cl      1  LIG1       -0.0822
     13 C          -4.1670    1.1170    0.0000 C.ar    1  LIG1        0.0111
     14 C          -3.2460    1.4580    0.0000 C.ar    1  LIG1       -0.0034
     15 O           0.4130   -1.7790    0.0000 O.2     1  LIG1       -0.2741
     16 C           1.7630   -0.0210    0.0000 C.ar    1  LIG1        0.0606
     17 C           2.2790    0.8250    0.0000 C.ar    1  LIG1        0.0154
     18 C           3.2750    0.8040    0.0000 C.ar    1  LIG1        0.0024
     19 C           3.7750   -0.0630    0.0000 C.ar    1  LIG1        0.0141
     20 C           4.7710   -0.0630    0.0000 C.2     1  LIG1        0.0729
     21 O           5.2670    0.8080    0.0000 O.co2   1  LIG1       -0.5446
     22 O           5.1880   -0.9380    0.0000 O.co2   1  LIG1       -0.5446
     23 C           3.2420   -0.9080    0.0000 C.ar    1  LIG1        0.0024
     24 C           2.2460   -0.8790    0.0000 C.ar    1  LIG1        0.0154
@<TRIPOS>BOND
     1     1     2   am
     2     1     5   am
     3     1    16    1
     4     2     3    1
     5     2    15    2
     6     3     4    1
     7     4     5    1
     8     4     7    1
     9     5     6    2
    10     7     8    1
    11     8     9   ar
    12     8    14   ar
    13     9    10   ar
    14    10    11   ar
    15    11    12    1
    16    11    13   ar
    17    13    14   ar
    18    16    17   ar
    19    16    24   ar
    20    17    18   ar
    21    18    19   ar
    22    19    20    1
    23    19    23   ar
    24    20    21   ar
    25    20    22   ar
    26    23    24   ar
