@<TRIPOS>MOLECULE
27663_ChemDiv_1900-0307
 22 25 0 0 0
SMALL
GASTEIGER
Energy = 0

@<TRIPOS>ATOM
      1 C          -2.3960    1.0170    0.0000 C.ar    1  LIG1        0.4611
      2 N          -2.3960    0.0040    0.0000 N.ar    1  LIG1       -0.2289
      3 C          -3.2580   -0.4960    0.0000 C.ar    1  LIG1        0.0502
      4 C          -4.1080    0.0040    0.0000 C.ar    1  LIG1        0.0283
      5 C          -4.1080    1.0170    0.0000 C.ar    1  LIG1        0.0680
      6 N          -3.2580    1.5080    0.0000 N.ar    1  LIG1       -0.1673
      7 C          -4.9960    1.5080    0.0000 C.3     1  LIG1        0.0524
      8 C          -3.2580   -1.5040    0.0000 C.3     1  LIG1        0.0507
      9 C          -1.4460   -0.3170    0.0000 C.ar    1  LIG1        0.1591
     10 C          -0.8540    0.5040    0.0000 C.ar    1  LIG1        0.3068
     11 N          -1.4460    1.3040    0.0000 N.ar    1  LIG1        0.1154
     12 C           0.1460    0.5040    0.0000 C.3     1  LIG1        0.1719
     13 S           0.6580   -0.3460    0.0000 S.3     1  LIG1       -0.0451
     14 C           1.6460   -0.3460    0.0000 C.ar    1  LIG1        0.2592
     15 N           2.3290   -1.0880    0.0000 N.ar    1  LIG1       -0.2027
     16 C           3.2460   -0.6790    0.0000 C.ar    1  LIG1        0.1194
     17 C           3.1250    0.3000    0.0000 C.ar    1  LIG1        0.1652
     18 O           2.1420    0.5040    0.0000 O.2     1  LIG1       -0.4300
     19 C           3.9210    0.8920    0.0000 C.ar    1  LIG1        0.0391
     20 C           4.8420    0.4750    0.0000 C.ar    1  LIG1        0.0032
     21 C           4.9920   -0.5290    0.0000 C.ar    1  LIG1        0.0018
     22 C           4.1580   -1.0880    0.0000 C.ar    1  LIG1        0.0223
@<TRIPOS>BOND
     1     1     2   ar
     2     1     6   ar
     3     1    11   ar
     4     2     3   ar
     5     2     9   ar
     6     3     4   ar
     7     3     8    1
     8     4     5   ar
     9     5     6   ar
    10     5     7    1
    11     9    10   ar
    12    10    11   ar
    13    10    12    1
    14    12    13    1
    15    13    14    1
    16    14    15   ar
    17    14    18   ar
    18    15    16   ar
    19    16    17   ar
    20    16    22   ar
    21    17    18   ar
    22    17    19   ar
    23    19    20   ar
    24    20    21   ar
    25    21    22   ar
