@<TRIPOS>MOLECULE
27668_ChemDiv_6049-1441
 24 26 0 0 0
SMALL
GASTEIGER
Energy = 0

@<TRIPOS>ATOM
      1 N           1.0750   -0.0880    0.0000 N.am    1  LIG1       -0.2338
      2 C           2.0790   -0.0880    0.0000 C.2     1  LIG1        0.4052
      3 O           2.5630    0.7830    0.0000 O.2     1  LIG1       -0.2262
      4 O           2.5880   -0.9330    0.0000 O.3     1  LIG1       -0.4345
      5 C           3.5580   -0.9210    0.0000 C.3     1  LIG1        0.2102
      6 C           4.0290   -0.0750    0.0000 C.3     1  LIG1        0.0513
      7 C           0.6000    0.7960    0.0000 C.3     1  LIG1        0.1594
      8 C          -0.4170    0.8210    0.0000 C.3     1  LIG1        0.1613
      9 N          -0.9290   -0.0250    0.0000 N.4     1  LIG1        0.3820
     10 C          -1.9670   -0.0250    0.0000 C.3     1  LIG1        0.1331
     11 C          -2.4630    0.8380    0.0000 C.ar    1  LIG1        0.0328
     12 C          -3.4670    0.8670    0.0000 C.ar    1  LIG1        0.0016
     13 C          -3.9630    1.7540    0.0000 C.ar    1  LIG1       -0.0001
     14 C          -3.4540    2.6080    0.0000 C.ar    1  LIG1       -0.0000
     15 C          -2.4500    2.5960    0.0000 C.ar    1  LIG1       -0.0001
     16 C          -1.9670    1.7130    0.0000 C.ar    1  LIG1        0.0016
     17 C          -2.5040   -0.8630    0.0000 C.ar    1  LIG1        0.0328
     18 C          -3.5130   -0.8080    0.0000 C.ar    1  LIG1        0.0016
     19 C          -4.0330   -1.6500    0.0000 C.ar    1  LIG1       -0.0001
     20 C          -3.5540   -2.5380    0.0000 C.ar    1  LIG1       -0.0000
     21 C          -2.5580   -2.6040    0.0000 C.ar    1  LIG1       -0.0001
     22 C          -2.0290   -1.7500    0.0000 C.ar    1  LIG1        0.0016
     23 C          -0.4580   -0.8880    0.0000 C.3     1  LIG1        0.1613
     24 C           0.5460   -0.9290    0.0000 C.3     1  LIG1        0.1594
@<TRIPOS>BOND
     1     1     2   am
     2     1     7    1
     3     1    24    1
     4     2     3    2
     5     2     4    1
     6     4     5    1
     7     5     6    1
     8     7     8    1
     9     8     9    1
    10     9    10    1
    11     9    23    1
    12    10    11    1
    13    10    17    1
    14    11    12   ar
    15    11    16   ar
    16    12    13   ar
    17    13    14   ar
    18    14    15   ar
    19    15    16   ar
    20    17    18   ar
    21    17    22   ar
    22    18    19   ar
    23    19    20   ar
    24    20    21   ar
    25    21    22   ar
    26    23    24    1
