@<TRIPOS>MOLECULE
27660_ChemDiv_8015-1558
 25 27 0 0 0
SMALL
GASTEIGER
Energy = 0

@<TRIPOS>ATOM
      1 N           0.8130   -0.7250    0.0000 N.am    1  LIG1       -0.2081
      2 C           0.3830   -1.6250    0.0000 C.2     1  LIG1        0.2356
      3 C          -0.6040   -1.5290    0.0000 C.3     1  LIG1        0.0954
      4 C          -0.7960   -0.5290    0.0000 C.3     1  LIG1        0.0909
      5 C           0.0830   -0.0460    0.0000 C.2     1  LIG1        0.2354
      6 O           0.2130    0.9540    0.0000 O.2     1  LIG1       -0.2741
      7 C          -1.6580   -0.0130    0.0000 C.3     1  LIG1        0.0359
      8 C          -2.5380   -0.5290    0.0000 C.ar    1  LIG1       -0.0216
      9 C          -3.3960   -0.0460    0.0000 C.ar    1  LIG1       -0.0034
     10 C          -4.2580   -0.5290    0.0000 C.ar    1  LIG1        0.0111
     11 C          -4.2580   -1.5290    0.0000 C.ar    1  LIG1        0.0577
     12 CL         -5.1420   -2.0130    0.0000 Cl      1  LIG1       -0.0822
     13 C          -3.3960   -2.0130    0.0000 C.ar    1  LIG1        0.0111
     14 C          -2.5380   -1.5290    0.0000 C.ar    1  LIG1       -0.0034
     15 O           0.8580   -2.5290    0.0000 O.2     1  LIG1       -0.2741
     16 C           1.8040   -0.5630    0.0000 C.ar    1  LIG1        0.0619
     17 C           2.1710    0.3750    0.0000 C.ar    1  LIG1        0.0319
     18 C           3.1580    0.5040    0.0000 C.ar    1  LIG1        0.0746
     19 N           3.5250    1.4670    0.0000 N.am    1  LIG1       -0.1792
     20 C           4.5130    1.6290    0.0000 C.2     1  LIG1        0.2461
     21 O           4.8790    2.5330    0.0000 O.2     1  LIG1       -0.2730
     22 C           5.1380    0.8580    0.0000 C.3     1  LIG1        0.0968
     23 C           3.7830   -0.2710    0.0000 C.ar    1  LIG1        0.0167
     24 C           3.3960   -1.2080    0.0000 C.ar    1  LIG1        0.0026
     25 C           2.4290   -1.3380    0.0000 C.ar    1  LIG1        0.0154
@<TRIPOS>BOND
     1     1     2   am
     2     1     5   am
     3     1    16    1
     4     2     3    1
     5     2    15    2
     6     3     4    1
     7     4     5    1
     8     4     7    1
     9     5     6    2
    10     7     8    1
    11     8     9   ar
    12     8    14   ar
    13     9    10   ar
    14    10    11   ar
    15    11    12    1
    16    11    13   ar
    17    13    14   ar
    18    16    17   ar
    19    16    25   ar
    20    17    18   ar
    21    18    19    1
    22    18    23   ar
    23    19    20   am
    24    20    21    2
    25    20    22    1
    26    23    24   ar
    27    24    25   ar
