@<TRIPOS>MOLECULE
27669_ChemDiv_4073-0045
 20 22 0 0 0
SMALL
GASTEIGER
Energy = 0

@<TRIPOS>ATOM
      1 N           0.9830    0.9000    0.0000 N.ar    1  LIG1       -0.2107
      2 C           0.0130    0.9000    0.0000 C.ar    1  LIG1        0.1655
      3 N          -0.3080    1.8460    0.0000 N.ar    1  LIG1       -0.2034
      4 C           0.4960    2.4380    0.0000 C.ar    1  LIG1        0.2213
      5 N           1.3170    1.8710    0.0000 N.ar    1  LIG1       -0.1410
      6 C          -0.5540    0.0790    0.0000 C.ar    1  LIG1        0.0361
      7 C          -0.1460   -0.8250    0.0000 C.ar    1  LIG1        0.0062
      8 C          -0.7040   -1.6500    0.0000 C.ar    1  LIG1        0.0370
      9 C          -1.7000   -1.5830    0.0000 C.ar    1  LIG1        0.1387
     10 C          -2.1250   -0.6670    0.0000 C.ar    1  LIG1        0.0370
     11 C          -1.5540    0.1500    0.0000 C.ar    1  LIG1        0.0062
     12 O          -2.2580   -2.4000    0.0000 O.3     1  LIG1       -0.4714
     13 C          -3.2460   -2.3290    0.0000 C.3     1  LIG1        0.2525
     14 C           1.5460    0.0710    0.0000 C.ar    1  LIG1        0.0845
     15 C           2.5540    0.1330    0.0000 C.ar    1  LIG1        0.0201
     16 C           3.1130   -0.6960    0.0000 C.ar    1  LIG1        0.0129
     17 C           2.6920   -1.6170    0.0000 C.ar    1  LIG1        0.0578
     18 C           1.6830   -1.6710    0.0000 C.ar    1  LIG1        0.0129
     19 C           1.1130   -0.8330    0.0000 C.ar    1  LIG1        0.0201
     20 CL          3.2420   -2.4330    0.0000 Cl      1  LIG1       -0.0822
@<TRIPOS>BOND
     1     1     2   ar
     2     1     5   ar
     3     1    14    1
     4     2     3   ar
     5     2     6    1
     6     3     4   ar
     7     4     5   ar
     8     6     7   ar
     9     6    11   ar
    10     7     8   ar
    11     8     9   ar
    12     9    10   ar
    13     9    12    1
    14    10    11   ar
    15    12    13    1
    16    14    15   ar
    17    14    19   ar
    18    15    16   ar
    19    16    17   ar
    20    17    18   ar
    21    17    20    1
    22    18    19   ar
