@<TRIPOS>MOLECULE
27666_ChemDiv_6049-1411
 27 29 0 0 0
SMALL
GASTEIGER
Energy = 0

@<TRIPOS>ATOM
      1 N           0.3420   -0.0880    0.0000 N.am    1  LIG1       -0.2681
      2 C           1.3420   -0.0880    0.0000 C.2     1  LIG1        0.2260
      3 O           1.8670   -0.9330    0.0000 O.2     1  LIG1       -0.2749
      4 C           1.8290    0.7500    0.0000 C.3     1  LIG1        0.0857
      5 C           2.7920    0.7830    0.0000 C.3     1  LIG1        0.0155
      6 C           3.2670    1.6500    0.0000 C.3     1  LIG1        0.0422
      7 C           4.2460    1.7040    0.0000 C.2     1  LIG1        0.0503
      8 O           4.7330    2.5540    0.0000 O.co2   1  LIG1       -0.5492
      9 O           4.7670    0.8250    0.0000 O.co2   1  LIG1       -0.5492
     10 C          -0.1330    0.7960    0.0000 C.3     1  LIG1        0.1565
     11 C          -1.1500    0.8210    0.0000 C.3     1  LIG1        0.1612
     12 N          -1.6750   -0.0210    0.0000 N.4     1  LIG1        0.3820
     13 C          -2.7040   -0.0210    0.0000 C.3     1  LIG1        0.1331
     14 C          -3.2000    0.8380    0.0000 C.ar    1  LIG1        0.0328
     15 C          -4.2080    0.8670    0.0000 C.ar    1  LIG1        0.0016
     16 C          -4.7000    1.7500    0.0000 C.ar    1  LIG1       -0.0001
     17 C          -4.2000    2.6130    0.0000 C.ar    1  LIG1       -0.0000
     18 C          -3.1830    2.5960    0.0000 C.ar    1  LIG1       -0.0001
     19 C          -2.7040    1.7080    0.0000 C.ar    1  LIG1        0.0016
     20 C          -3.2420   -0.8630    0.0000 C.ar    1  LIG1        0.0328
     21 C          -4.2500   -0.8080    0.0000 C.ar    1  LIG1        0.0016
     22 C          -4.7710   -1.6580    0.0000 C.ar    1  LIG1       -0.0001
     23 C          -4.2880   -2.5380    0.0000 C.ar    1  LIG1       -0.0000
     24 C          -3.2960   -2.6080    0.0000 C.ar    1  LIG1       -0.0001
     25 C          -2.7630   -1.7500    0.0000 C.ar    1  LIG1        0.0016
     26 C          -1.1960   -0.8920    0.0000 C.3     1  LIG1        0.1612
     27 C          -0.1880   -0.9330    0.0000 C.3     1  LIG1        0.1565
@<TRIPOS>BOND
     1     1     2   am
     2     1    10    1
     3     1    27    1
     4     2     3    2
     5     2     4    1
     6     4     5    1
     7     5     6    1
     8     6     7    1
     9     7     8   ar
    10     7     9   ar
    11    10    11    1
    12    11    12    1
    13    12    13    1
    14    12    26    1
    15    13    14    1
    16    13    20    1
    17    14    15   ar
    18    14    19   ar
    19    15    16   ar
    20    16    17   ar
    21    17    18   ar
    22    18    19   ar
    23    20    21   ar
    24    20    25   ar
    25    21    22   ar
    26    22    23   ar
    27    23    24   ar
    28    24    25   ar
    29    26    27    1
