@<TRIPOS>MOLECULE
27664_ChemDiv_8015-5197
 24 26 0 0 0
SMALL
GASTEIGER
Energy = 0

@<TRIPOS>ATOM
      1 N           1.0670   -0.8130    0.0000 N.am    1  LIG1       -0.2081
      2 C           0.8630    0.1670    0.0000 C.2     1  LIG1        0.2356
      3 C          -0.1290    0.2710    0.0000 C.3     1  LIG1        0.0954
      4 C          -0.5420   -0.6420    0.0000 C.3     1  LIG1        0.0909
      5 C           0.2000   -1.3040    0.0000 C.2     1  LIG1        0.2354
      6 O           0.2000   -2.3130    0.0000 O.2     1  LIG1       -0.2741
      7 C          -1.5420   -0.6420    0.0000 C.3     1  LIG1        0.0359
      8 C          -2.0420    0.2210    0.0000 C.ar    1  LIG1       -0.0223
      9 C          -3.0420    0.2210    0.0000 C.ar    1  LIG1       -0.0085
     10 C          -3.5330    1.0920    0.0000 C.ar    1  LIG1       -0.0225
     11 C          -3.0420    1.9540    0.0000 C.ar    1  LIG1       -0.0085
     12 C          -2.0420    1.9540    0.0000 C.ar    1  LIG1       -0.0225
     13 C          -1.5420    1.0920    0.0000 C.ar    1  LIG1       -0.0085
     14 C          -1.5420    2.8170    0.0000 C.3     1  LIG1        0.0310
     15 C          -4.5420    1.0920    0.0000 C.3     1  LIG1        0.0310
     16 O           1.3540    1.0290    0.0000 O.2     1  LIG1       -0.2741
     17 C           1.9290   -1.3040    0.0000 C.ar    1  LIG1        0.0611
     18 C           2.8000   -0.8130    0.0000 C.ar    1  LIG1        0.0217
     19 C           3.6670   -1.3040    0.0000 C.ar    1  LIG1        0.0319
     20 C           3.6670   -2.3130    0.0000 C.ar    1  LIG1       -0.0155
     21 C           2.8000   -2.8130    0.0000 C.ar    1  LIG1       -0.0025
     22 C           1.9290   -2.3130    0.0000 C.ar    1  LIG1        0.0150
     23 C           4.5380   -2.8130    0.0000 C.3     1  LIG1        0.0315
     24 BR          4.5290   -0.8130    0.0000 Br      1  LIG1       -0.0493
@<TRIPOS>BOND
     1     1     2   am
     2     1     5   am
     3     1    17    1
     4     2     3    1
     5     2    16    2
     6     3     4    1
     7     4     5    1
     8     4     7    1
     9     5     6    2
    10     7     8    1
    11     8     9   ar
    12     8    13   ar
    13     9    10   ar
    14    10    11   ar
    15    10    15    1
    16    11    12   ar
    17    12    13   ar
    18    12    14    1
    19    17    18   ar
    20    17    22   ar
    21    18    19   ar
    22    19    20   ar
    23    19    24    1
    24    20    21   ar
    25    20    23    1
    26    21    22   ar
