@<TRIPOS>MOLECULE
27667_ChemDiv_4073-0044
 20 22 0 0 0
SMALL
GASTEIGER
Energy = 0

@<TRIPOS>ATOM
      1 N           0.0630    0.8830    0.0000 N.ar    1  LIG1       -0.2110
      2 C          -0.9130    0.8830    0.0000 C.ar    1  LIG1        0.1655
      3 N          -1.2290    1.8290    0.0000 N.ar    1  LIG1       -0.2034
      4 C          -0.4250    2.4210    0.0000 C.ar    1  LIG1        0.2213
      5 N           0.3960    1.8540    0.0000 N.ar    1  LIG1       -0.1410
      6 C          -1.4790    0.0670    0.0000 C.ar    1  LIG1        0.0359
      7 C          -2.4790    0.1330    0.0000 C.ar    1  LIG1        0.0027
      8 C          -3.0500   -0.6790    0.0000 C.ar    1  LIG1       -0.0042
      9 C          -2.6210   -1.6000    0.0000 C.ar    1  LIG1       -0.0218
     10 C          -1.6290   -1.6670    0.0000 C.ar    1  LIG1       -0.0042
     11 C          -1.0710   -0.8380    0.0000 C.ar    1  LIG1        0.0027
     12 C          -3.1790   -2.4170    0.0000 C.3     1  LIG1        0.0310
     13 C           0.6210    0.0540    0.0000 C.ar    1  LIG1        0.0813
     14 C           1.6290    0.1170    0.0000 C.ar    1  LIG1        0.0065
     15 C           2.1880   -0.7080    0.0000 C.ar    1  LIG1        0.0551
     16 CL          3.1750   -0.6130    0.0000 Cl      1  LIG1       -0.0825
     17 C           1.7670   -1.6330    0.0000 C.ar    1  LIG1        0.0112
     18 C           0.7580   -1.6830    0.0000 C.ar    1  LIG1        0.0024
     19 C           0.1920   -0.8500    0.0000 C.ar    1  LIG1        0.0189
     20 C           2.0710    1.0000    0.0000 C.3     1  LIG1        0.0335
@<TRIPOS>BOND
     1     1     2   ar
     2     1     5   ar
     3     1    13    1
     4     2     3   ar
     5     2     6    1
     6     3     4   ar
     7     4     5   ar
     8     6     7   ar
     9     6    11   ar
    10     7     8   ar
    11     8     9   ar
    12     9    10   ar
    13     9    12    1
    14    10    11   ar
    15    13    14   ar
    16    13    19   ar
    17    14    15   ar
    18    14    20    1
    19    15    16    1
    20    15    17   ar
    21    17    18   ar
    22    18    19   ar
