@<TRIPOS>MOLECULE
27674_ChemDiv_8006-5135
 28 31 0 0 0
SMALL
GASTEIGER
Energy = 0

@<TRIPOS>ATOM
      1 C          -1.2540   -1.2830    0.0000 C.2     1  LIG1        0.2337
      2 N          -0.2540   -1.2830    0.0000 N.am    1  LIG1       -0.2676
      3 C           0.2540   -0.4210    0.0000 C.3     1  LIG1        0.1565
      4 C           1.2710   -0.4210    0.0000 C.3     1  LIG1        0.1610
      5 N           1.7670   -1.2830    0.0000 N.4     1  LIG1        0.3834
      6 C           2.7830   -1.2830    0.0000 C.3     1  LIG1        0.1663
      7 C           3.2670   -0.4210    0.0000 C.ar    1  LIG1        0.0344
      8 C           4.2880   -0.4210    0.0000 C.ar    1  LIG1        0.0014
      9 C           4.7710    0.4290    0.0000 C.ar    1  LIG1       -0.0001
     10 C           4.2880    1.2920    0.0000 C.ar    1  LIG1       -0.0000
     11 C           3.2670    1.2920    0.0000 C.ar    1  LIG1       -0.0001
     12 C           2.7830    0.4290    0.0000 C.ar    1  LIG1        0.0014
     13 C           1.2710   -2.1500    0.0000 C.3     1  LIG1        0.1610
     14 C           0.2540   -2.1500    0.0000 C.3     1  LIG1        0.1565
     15 C          -1.7580   -0.4210    0.0000 C.3     1  LIG1        0.1211
     16 C          -2.7540   -0.4210    0.0000 C.ar    1  LIG1       -0.0098
     17 C          -3.2580   -1.2830    0.0000 C.ar    1  LIG1       -0.0035
     18 C          -4.2670   -1.2830    0.0000 C.ar    1  LIG1       -0.0003
     19 C          -4.7750   -0.4210    0.0000 C.ar    1  LIG1       -0.0000
     20 C          -4.2670    0.4290    0.0000 C.ar    1  LIG1       -0.0003
     21 C          -3.2580    0.4290    0.0000 C.ar    1  LIG1       -0.0035
     22 C          -1.2540    0.4290    0.0000 C.ar    1  LIG1       -0.0098
     23 C          -0.2540    0.4290    0.0000 C.ar    1  LIG1       -0.0035
     24 C           0.2540    1.2920    0.0000 C.ar    1  LIG1       -0.0003
     25 C          -0.2540    2.1540    0.0000 C.ar    1  LIG1       -0.0000
     26 C          -1.2540    2.1540    0.0000 C.ar    1  LIG1       -0.0003
     27 C          -1.7580    1.2920    0.0000 C.ar    1  LIG1       -0.0035
     28 O          -1.7580   -2.1500    0.0000 O.2     1  LIG1       -0.2742
@<TRIPOS>BOND
     1     1     2   am
     2     1    15    1
     3     1    28    2
     4     2     3    1
     5     2    14    1
     6     3     4    1
     7     4     5    1
     8     5     6    1
     9     5    13    1
    10     6     7    1
    11     7     8   ar
    12     7    12   ar
    13     8     9   ar
    14     9    10   ar
    15    10    11   ar
    16    11    12   ar
    17    13    14    1
    18    15    16    1
    19    15    22    1
    20    16    17   ar
    21    16    21   ar
    22    17    18   ar
    23    18    19   ar
    24    19    20   ar
    25    20    21   ar
    26    22    23   ar
    27    22    27   ar
    28    23    24   ar
    29    24    25   ar
    30    25    26   ar
    31    26    27   ar
