@<TRIPOS>MOLECULE
27670_ChemDiv_6186-3354
 32 35 0 0 0
SMALL
GASTEIGER
Energy = 0

@<TRIPOS>ATOM
      1 C          -0.3710    1.5580    0.0000 C.2     1  LIG1        0.2707
      2 N          -0.1170    0.5500    0.0000 N.am    1  LIG1       -0.2649
      3 C          -0.7920   -0.1580    0.0000 C.3     1  LIG1        0.1566
      4 C          -0.5380   -1.0960    0.0000 C.3     1  LIG1        0.1612
      5 N           0.4170   -1.3880    0.0000 N.4     1  LIG1        0.3820
      6 C           0.7250   -2.3170    0.0000 C.3     1  LIG1        0.1331
      7 C           1.7080   -2.5000    0.0000 C.ar    1  LIG1        0.0328
      8 C           2.3630   -1.7290    0.0000 C.ar    1  LIG1        0.0016
      9 C           3.3630   -1.9380    0.0000 C.ar    1  LIG1       -0.0001
     10 C           3.7290   -2.8960    0.0000 C.ar    1  LIG1       -0.0000
     11 C           3.0380   -3.6540    0.0000 C.ar    1  LIG1       -0.0001
     12 C           2.0500   -3.4710    0.0000 C.ar    1  LIG1        0.0016
     13 C           0.0500   -3.0250    0.0000 C.ar    1  LIG1        0.0328
     14 C          -0.9500   -2.8170    0.0000 C.ar    1  LIG1        0.0016
     15 C          -1.6130   -3.5250    0.0000 C.ar    1  LIG1       -0.0001
     16 C          -1.3420   -4.4960    0.0000 C.ar    1  LIG1       -0.0000
     17 C          -0.3250   -4.7080    0.0000 C.ar    1  LIG1       -0.0001
     18 C           0.3420   -3.9710    0.0000 C.ar    1  LIG1        0.0016
     19 C           1.1460   -0.6750    0.0000 C.3     1  LIG1        0.1612
     20 C           0.8380    0.2960    0.0000 C.3     1  LIG1        0.1566
     21 C          -1.3420    1.8460    0.0000 C.3     1  LIG1        0.2664
     22 O          -2.0540    1.1380    0.0000 O.3     1  LIG1       -0.4381
     23 C          -3.0250    1.4250    0.0000 C.2     1  LIG1        0.3182
     24 O          -3.2380    2.3630    0.0000 O.2     1  LIG1       -0.2501
     25 C          -3.7330    0.7330    0.0000 C.3     1  LIG1        0.1212
     26 C          -1.5880    2.7830    0.0000 C.ar    1  LIG1        0.0263
     27 C          -0.8790    3.4500    0.0000 C.ar    1  LIG1       -0.0003
     28 C          -1.0880    4.4080    0.0000 C.ar    1  LIG1       -0.0002
     29 C          -2.0080    4.7080    0.0000 C.ar    1  LIG1       -0.0000
     30 C          -2.7710    4.0420    0.0000 C.ar    1  LIG1       -0.0002
     31 C          -2.5250    3.0750    0.0000 C.ar    1  LIG1       -0.0003
     32 O           0.3420    2.2670    0.0000 O.2     1  LIG1       -0.2706
@<TRIPOS>BOND
     1     1     2   am
     2     1    21    1
     3     1    32    2
     4     2     3    1
     5     2    20    1
     6     3     4    1
     7     4     5    1
     8     5     6    1
     9     5    19    1
    10     6     7    1
    11     6    13    1
    12     7     8   ar
    13     7    12   ar
    14     8     9   ar
    15     9    10   ar
    16    10    11   ar
    17    11    12   ar
    18    13    14   ar
    19    13    18   ar
    20    14    15   ar
    21    15    16   ar
    22    16    17   ar
    23    17    18   ar
    24    19    20    1
    25    21    22    1
    26    21    26    1
    27    22    23    1
    28    23    24    2
    29    23    25    1
    30    26    27   ar
    31    26    31   ar
    32    27    28   ar
    33    28    29   ar
    34    29    30   ar
    35    30    31   ar
