@<TRIPOS>MOLECULE
27677_ChemDiv_4073-0058
 21 24 0 0 0
SMALL
GASTEIGER
Energy = 0

@<TRIPOS>ATOM
      1 C           0.0420    0.8960    0.0000 C.ar    1  LIG1        0.1656
      2 N           1.0130    0.8960    0.0000 N.ar    1  LIG1       -0.2107
      3 N           1.3460    1.8670    0.0000 N.ar    1  LIG1       -0.1410
      4 C           0.5250    2.4330    0.0000 C.ar    1  LIG1        0.2213
      5 N          -0.2790    1.8420    0.0000 N.ar    1  LIG1       -0.2034
      6 C           1.5710    0.0710    0.0000 C.ar    1  LIG1        0.0845
      7 C           2.5750    0.1330    0.0000 C.ar    1  LIG1        0.0201
      8 C           3.1330   -0.6920    0.0000 C.ar    1  LIG1        0.0129
      9 C           2.7170   -1.6130    0.0000 C.ar    1  LIG1        0.0578
     10 C           1.7080   -1.6670    0.0000 C.ar    1  LIG1        0.0129
     11 C           1.1420   -0.8330    0.0000 C.ar    1  LIG1        0.0201
     12 CL          3.2630   -2.4290    0.0000 Cl      1  LIG1       -0.0822
     13 C          -0.5250    0.0790    0.0000 C.ar    1  LIG1        0.0391
     14 C          -1.5250    0.1500    0.0000 C.ar    1  LIG1        0.0432
     15 C          -2.0920   -0.6630    0.0000 C.ar    1  LIG1        0.1765
     16 C          -1.6670   -1.5790    0.0000 C.ar    1  LIG1        0.1764
     17 O          -2.3540   -2.2670    0.0000 O.3     1  LIG1       -0.4346
     18 C          -3.2670   -1.7960    0.0000 C.3     1  LIG1        0.4294
     19 O          -3.0960   -0.8080    0.0000 O.3     1  LIG1       -0.4346
     20 C          -0.6750   -1.6500    0.0000 C.ar    1  LIG1        0.0403
     21 C          -0.1170   -0.8210    0.0000 C.ar    1  LIG1        0.0064
@<TRIPOS>BOND
     1     1     2   ar
     2     1     5   ar
     3     1    13    1
     4     2     3   ar
     5     2     6    1
     6     3     4   ar
     7     4     5   ar
     8     6     7   ar
     9     6    11   ar
    10     7     8   ar
    11     8     9   ar
    12     9    10   ar
    13     9    12    1
    14    10    11   ar
    15    13    14   ar
    16    13    21   ar
    17    14    15   ar
    18    15    16   ar
    19    15    19    1
    20    16    17    1
    21    16    20   ar
    22    17    18    1
    23    18    19    1
    24    20    21   ar
