@<TRIPOS>MOLECULE
27676_ChemDiv_8006-8260
 23 25 0 0 0
SMALL
GASTEIGER
Energy = 0

@<TRIPOS>ATOM
      1 N          -1.7040    0.4460    0.0000 N.am    1  LIG1       -0.1834
      2 C          -2.7210    0.4210    0.0000 C.2     1  LIG1        0.2661
      3 O          -3.2290    1.2830    0.0000 O.2     1  LIG1       -0.2683
      4 C          -3.2130   -0.4420    0.0000 C.ar    1  LIG1        0.0551
      5 C          -2.6830   -1.3040    0.0000 C.ar    1  LIG1        0.0046
      6 C          -3.1630   -2.1920    0.0000 C.ar    1  LIG1        0.0001
      7 C          -4.1790   -2.1920    0.0000 C.ar    1  LIG1        0.0000
      8 C          -4.7080   -1.3380    0.0000 C.ar    1  LIG1        0.0001
      9 C          -4.2170   -0.4630    0.0000 C.ar    1  LIG1        0.0046
     10 C          -1.2330    1.3080    0.0000 C.3     1  LIG1        0.1908
     11 N          -0.2420    1.3330    0.0000 N.3     1  LIG1       -0.2439
     12 C           0.2500    0.4790    0.0000 C.3     1  LIG1        0.1372
     13 C           1.2670    0.4790    0.0000 C.3     1  LIG1        0.1568
     14 N           1.7750    1.3330    0.0000 N.4     1  LIG1        0.3829
     15 C           2.7750    1.3330    0.0000 C.3     1  LIG1        0.1663
     16 C           3.2710    0.4460    0.0000 C.ar    1  LIG1        0.0344
     17 C           2.7420   -0.4040    0.0000 C.ar    1  LIG1        0.0014
     18 C           3.2210   -1.2710    0.0000 C.ar    1  LIG1       -0.0001
     19 C           4.2380   -1.2830    0.0000 C.ar    1  LIG1       -0.0000
     20 C           4.7040   -0.4420    0.0000 C.ar    1  LIG1       -0.0001
     21 C           4.2500    0.4330    0.0000 C.ar    1  LIG1        0.0014
     22 C           1.2670    2.1960    0.0000 C.3     1  LIG1        0.1568
     23 C           0.2500    2.1960    0.0000 C.3     1  LIG1        0.1372
@<TRIPOS>BOND
     1     1     2   am
     2     1    10    1
     3     2     3    2
     4     2     4    1
     5     4     5   ar
     6     4     9   ar
     7     5     6   ar
     8     6     7   ar
     9     7     8   ar
    10     8     9   ar
    11    10    11    1
    12    11    12    1
    13    11    23    1
    14    12    13    1
    15    13    14    1
    16    14    15    1
    17    14    22    1
    18    15    16    1
    19    16    17   ar
    20    16    21   ar
    21    17    18   ar
    22    18    19   ar
    23    19    20   ar
    24    20    21   ar
    25    22    23    1
