@<TRIPOS>MOLECULE
27675_ChemDiv_4073-0057
 22 25 0 0 0
SMALL
GASTEIGER
Energy = 0

@<TRIPOS>ATOM
      1 N           1.0130    0.8960    0.0000 N.ar    1  LIG1       -0.2085
      2 C           0.0420    0.8960    0.0000 C.ar    1  LIG1        0.1657
      3 N          -0.2790    1.8420    0.0000 N.ar    1  LIG1       -0.2034
      4 C           0.5250    2.4330    0.0000 C.ar    1  LIG1        0.2213
      5 N           1.3460    1.8710    0.0000 N.ar    1  LIG1       -0.1409
      6 C          -0.5250    0.0790    0.0000 C.ar    1  LIG1        0.0391
      7 C          -1.5250    0.1500    0.0000 C.ar    1  LIG1        0.0432
      8 C          -2.0960   -0.6630    0.0000 C.ar    1  LIG1        0.1765
      9 C          -1.6670   -1.5830    0.0000 C.ar    1  LIG1        0.1764
     10 O          -2.3540   -2.2710    0.0000 O.3     1  LIG1       -0.4346
     11 C          -3.2710   -1.7960    0.0000 C.3     1  LIG1        0.4294
     12 O          -3.0960   -0.8080    0.0000 O.3     1  LIG1       -0.4346
     13 C          -0.6750   -1.6500    0.0000 C.ar    1  LIG1        0.0403
     14 C          -0.1170   -0.8210    0.0000 C.ar    1  LIG1        0.0064
     15 C           1.5710    0.0710    0.0000 C.ar    1  LIG1        0.1119
     16 C           2.5790    0.1330    0.0000 C.ar    1  LIG1        0.1582
     17 C           3.1380   -0.6920    0.0000 C.ar    1  LIG1        0.0379
     18 C           2.7170   -1.6130    0.0000 C.ar    1  LIG1        0.0369
     19 C           1.7130   -1.6670    0.0000 C.ar    1  LIG1        0.0084
     20 C           1.1420   -0.8330    0.0000 C.ar    1  LIG1        0.0220
     21 BR          3.2670   -2.4290    0.0000 Br      1  LIG1       -0.0489
     22 F           3.0210    1.0170    0.0000 F       1  LIG1       -0.2026
@<TRIPOS>BOND
     1     1     2   ar
     2     1     5   ar
     3     1    15    1
     4     2     3   ar
     5     2     6    1
     6     3     4   ar
     7     4     5   ar
     8     6     7   ar
     9     6    14   ar
    10     7     8   ar
    11     8     9   ar
    12     8    12    1
    13     9    10    1
    14     9    13   ar
    15    10    11    1
    16    11    12    1
    17    13    14   ar
    18    15    16   ar
    19    15    20   ar
    20    16    17   ar
    21    16    22    1
    22    17    18   ar
    23    18    19   ar
    24    18    21    1
    25    19    20   ar
