@<TRIPOS>MOLECULE
27672_ChemDiv_7752-0295
 33 37 0 0 0
SMALL
GASTEIGER
Energy = 0

@<TRIPOS>ATOM
      1 N          -3.0380    3.2330    0.0000 N.am    1  LIG1       -0.1961
      2 C          -2.1630    2.7330    0.0000 C.2     1  LIG1        0.2990
      3 C          -2.1630    1.7330    0.0000 C.3     1  LIG1        0.2310
      4 N          -3.0380    1.2330    0.0000 N.4     1  LIG1        0.4475
      5 C          -3.9000    1.7330    0.0000 C.3     1  LIG1        0.1639
      6 C          -3.9000    2.7330    0.0000 C.3     1  LIG1        0.1518
      7 C          -4.7630    3.2330    0.0000 C.3     1  LIG1        0.0278
      8 C          -5.6290    2.7330    0.0000 C.3     1  LIG1        0.0022
      9 C          -5.6290    1.7330    0.0000 C.3     1  LIG1        0.0062
     10 C          -4.7630    1.2330    0.0000 C.3     1  LIG1        0.0644
     11 C          -1.2960    1.2330    0.0000 C.3     1  LIG1        0.1574
     12 C          -0.4290    1.7330    0.0000 C.2     1  LIG1        0.2326
     13 N           0.4420    1.2420    0.0000 N.am    1  LIG1       -0.2679
     14 C           1.2960    1.7580    0.0000 C.3     1  LIG1        0.1565
     15 C           2.1670    1.2500    0.0000 C.3     1  LIG1        0.1612
     16 N           2.1750    0.2460    0.0000 N.4     1  LIG1        0.3820
     17 C           3.0380   -0.2500    0.0000 C.3     1  LIG1        0.1331
     18 C           3.9000    0.2580    0.0000 C.ar    1  LIG1        0.0328
     19 C           4.7630   -0.2420    0.0000 C.ar    1  LIG1        0.0016
     20 C           5.6250    0.2580    0.0000 C.ar    1  LIG1       -0.0001
     21 C           5.6210    1.2580    0.0000 C.ar    1  LIG1       -0.0000
     22 C           4.7460    1.7580    0.0000 C.ar    1  LIG1       -0.0001
     23 C           3.8830    1.2500    0.0000 C.ar    1  LIG1        0.0016
     24 C           3.0380   -1.2500    0.0000 C.ar    1  LIG1        0.0328
     25 C           2.1670   -1.7380    0.0000 C.ar    1  LIG1        0.0016
     26 C           2.1750   -2.7380    0.0000 C.ar    1  LIG1       -0.0001
     27 C           3.0380   -3.2380    0.0000 C.ar    1  LIG1       -0.0000
     28 C           3.9000   -2.7330    0.0000 C.ar    1  LIG1       -0.0001
     29 C           3.9000   -1.7330    0.0000 C.ar    1  LIG1        0.0016
     30 C           1.3040   -0.2540    0.0000 C.3     1  LIG1        0.1612
     31 C           0.4420    0.2460    0.0000 C.3     1  LIG1        0.1565
     32 O          -0.4380    2.7420    0.0000 O.2     1  LIG1       -0.2746
     33 O          -1.2960    3.2420    0.0000 O.2     1  LIG1       -0.2669
@<TRIPOS>BOND
     1     1     2   am
     2     1     6    1
     3     2     3    1
     4     2    33    2
     5     3     4    1
     6     3    11    1
     7     4     5    1
     8     5     6    1
     9     5    10    1
    10     6     7    1
    11     7     8    1
    12     8     9    1
    13     9    10    1
    14    11    12    1
    15    12    13   am
    16    12    32    2
    17    13    14    1
    18    13    31    1
    19    14    15    1
    20    15    16    1
    21    16    17    1
    22    16    30    1
    23    17    18    1
    24    17    24    1
    25    18    19   ar
    26    18    23   ar
    27    19    20   ar
    28    20    21   ar
    29    21    22   ar
    30    22    23   ar
    31    24    25   ar
    32    24    29   ar
    33    25    26   ar
    34    26    27   ar
    35    27    28   ar
    36    28    29   ar
    37    30    31    1
