@<TRIPOS>MOLECULE
27671_ChemDiv_4073-0050
 24 26 0 0 0
SMALL
GASTEIGER
Energy = 0

@<TRIPOS>ATOM
      1 C           0.1630    1.3670    0.0000 C.ar    1  LIG1        0.1657
      2 N           1.1330    1.3670    0.0000 N.ar    1  LIG1       -0.2107
      3 N           1.4630    2.3330    0.0000 N.ar    1  LIG1       -0.1410
      4 C           0.6460    2.9000    0.0000 C.ar    1  LIG1        0.2213
      5 N          -0.1540    2.3080    0.0000 N.ar    1  LIG1       -0.2034
      6 C           1.6880    0.5420    0.0000 C.ar    1  LIG1        0.0845
      7 C           2.6920    0.6040    0.0000 C.ar    1  LIG1        0.0201
      8 C           3.2500   -0.2210    0.0000 C.ar    1  LIG1        0.0129
      9 C           2.8330   -1.1380    0.0000 C.ar    1  LIG1        0.0578
     10 C           1.8290   -1.1920    0.0000 C.ar    1  LIG1        0.0129
     11 C           1.2630   -0.3580    0.0000 C.ar    1  LIG1        0.0201
     12 CL          3.3920   -1.9630    0.0000 Cl      1  LIG1       -0.0822
     13 C          -0.4130    0.5420    0.0000 C.ar    1  LIG1        0.0421
     14 C           0.0290   -0.3670    0.0000 C.ar    1  LIG1        0.0433
     15 C          -0.5420   -1.1920    0.0000 C.ar    1  LIG1        0.1755
     16 C          -1.5500   -1.1290    0.0000 C.ar    1  LIG1        0.2061
     17 C          -1.9670   -0.2210    0.0000 C.ar    1  LIG1        0.1755
     18 C          -1.4130    0.6210    0.0000 C.ar    1  LIG1        0.0433
     19 O          -2.9670   -0.1500    0.0000 O.3     1  LIG1       -0.4683
     20 C          -3.3960    0.7330    0.0000 C.3     1  LIG1        0.2526
     21 O          -2.1170   -1.9460    0.0000 O.3     1  LIG1       -0.4654
     22 C          -3.1380   -1.8580    0.0000 C.3     1  LIG1        0.2528
     23 O          -0.0920   -2.0750    0.0000 O.3     1  LIG1       -0.4683
     24 C          -0.6380   -2.8960    0.0000 C.3     1  LIG1        0.2526
@<TRIPOS>BOND
     1     1     2   ar
     2     1     5   ar
     3     1    13    1
     4     2     3   ar
     5     2     6    1
     6     3     4   ar
     7     4     5   ar
     8     6     7   ar
     9     6    11   ar
    10     7     8   ar
    11     8     9   ar
    12     9    10   ar
    13     9    12    1
    14    10    11   ar
    15    13    14   ar
    16    13    18   ar
    17    14    15   ar
    18    15    16   ar
    19    15    23    1
    20    16    17   ar
    21    16    21    1
    22    17    18   ar
    23    17    19    1
    24    19    20    1
    25    21    22    1
    26    23    24    1
