@<TRIPOS>MOLECULE
27686_ChemDiv_2187-1556
 31 32 0 0 0
SMALL
GASTEIGER
Energy = 0

@<TRIPOS>ATOM
      1 S           0.2750   -1.6960    0.0000 S.O2    1  LIG1        0.0634
      2 N           1.2880   -1.6960    0.0000 N.3     1  LIG1       -0.1504
      3 C           1.7920   -0.8130    0.0000 C.3     1  LIG1        0.1279
      4 C           1.2880    0.0380    0.0000 C.3     1  LIG1        0.1614
      5 O           1.7920    0.9000    0.0000 O.3     1  LIG1       -0.3496
      6 C           1.3290    1.7540    0.0000 C.3     1  LIG1        0.1742
      7 C           1.7380   -2.5500    0.0000 C.3     1  LIG1        0.1279
      8 C           2.7500   -2.5500    0.0000 C.3     1  LIG1        0.1614
      9 O           3.2540   -3.4210    0.0000 O.3     1  LIG1       -0.3496
     10 C           4.2630   -3.4210    0.0000 C.3     1  LIG1        0.1742
     11 C          -0.7330   -1.6960    0.0000 C.ar    1  LIG1        0.1222
     12 C          -1.2380   -0.8130    0.0000 C.ar    1  LIG1        0.0201
     13 C          -2.2580   -0.8130    0.0000 C.ar    1  LIG1        0.0059
     14 C          -2.7630   -1.6960    0.0000 C.ar    1  LIG1        0.0555
     15 C          -3.7630   -1.6960    0.0000 C.2     1  LIG1        0.2690
     16 N          -4.2670   -0.8130    0.0000 N.am    1  LIG1       -0.1754
     17 C          -3.7210    0.1000    0.0000 C.ar    1  LIG1        0.0738
     18 C          -4.2250    0.9540    0.0000 C.ar    1  LIG1        0.0180
     19 C          -3.7210    1.8080    0.0000 C.ar    1  LIG1        0.0213
     20 C          -2.7130    1.8080    0.0000 C.ar    1  LIG1        0.1251
     21 S          -2.1750    2.6380    0.0000 S.O2    1  LIG1        0.0935
     22 O          -3.0040    3.1960    0.0000 O.2     1  LIG1       -0.1503
     23 O          -1.3630    2.0920    0.0000 O.2     1  LIG1       -0.1503
     24 N          -1.6380    3.4250    0.0000 N.3     1  LIG1        0.0392
     25 C          -2.2580    0.9540    0.0000 C.ar    1  LIG1        0.0213
     26 C          -2.7630    0.1000    0.0000 C.ar    1  LIG1        0.0180
     27 O          -4.2670   -2.5500    0.0000 O.2     1  LIG1       -0.2680
     28 C          -2.2580   -2.5500    0.0000 C.ar    1  LIG1        0.0059
     29 C          -1.2380   -2.5500    0.0000 C.ar    1  LIG1        0.0201
     30 O           0.2750   -2.7080    0.0000 O.2     1  LIG1       -0.1528
     31 O           0.2750   -0.6540    0.0000 O.2     1  LIG1       -0.1528
@<TRIPOS>BOND
     1     1     2    1
     2     1    11    1
     3     1    30    2
     4     1    31    2
     5     2     3    1
     6     2     7    1
     7     3     4    1
     8     4     5    1
     9     5     6    1
    10     7     8    1
    11     8     9    1
    12     9    10    1
    13    11    12   ar
    14    11    29   ar
    15    12    13   ar
    16    13    14   ar
    17    14    15    1
    18    14    28   ar
    19    15    16   am
    20    15    27    2
    21    16    17    1
    22    17    18   ar
    23    17    26   ar
    24    18    19   ar
    25    19    20   ar
    26    20    21    1
    27    20    25   ar
    28    21    22    2
    29    21    23    2
    30    21    24    1
    31    25    26   ar
    32    28    29   ar
