@<TRIPOS>MOLECULE
27680_ChemDiv_8017-1890
 31 34 0 0 0
SMALL
GASTEIGER
Energy = 0

@<TRIPOS>ATOM
      1 C          -3.0830   -0.0670    0.0000 C.2     1  LIG1        0.2494
      2 N          -2.2080   -0.5540    0.0000 N.am    1  LIG1       -0.2645
      3 C          -1.3460   -0.0670    0.0000 C.3     1  LIG1        0.1567
      4 C          -0.4710   -0.5540    0.0000 C.3     1  LIG1        0.1620
      5 N          -0.4710   -1.5500    0.0000 N.4     1  LIG1        0.3901
      6 C          -1.3460   -2.0540    0.0000 C.3     1  LIG1        0.1620
      7 C          -2.2080   -1.5500    0.0000 C.3     1  LIG1        0.1567
      8 C           0.4040   -2.0540    0.0000 C.3     1  LIG1        0.2176
      9 C           1.2790   -1.5670    0.0000 C.1     1  LIG1       -0.0258
     10 C           2.1630   -1.0630    0.0000 C.1     1  LIG1       -0.0483
     11 C           3.0420   -0.5750    0.0000 C.3     1  LIG1        0.2169
     12 C           3.9170   -0.0670    0.0000 C.ar    1  LIG1        0.0204
     13 C           3.9170    0.9330    0.0000 C.ar    1  LIG1       -0.0006
     14 C           4.7750    1.4330    0.0000 C.ar    1  LIG1       -0.0002
     15 C           5.6540    0.9330    0.0000 C.ar    1  LIG1       -0.0000
     16 C           5.6290   -0.0670    0.0000 C.ar    1  LIG1       -0.0002
     17 C           4.7750   -0.5750    0.0000 C.ar    1  LIG1       -0.0006
     18 C           2.5290    0.3250    0.0000 C.ar    1  LIG1        0.0204
     19 C           3.0420    1.1830    0.0000 C.ar    1  LIG1       -0.0006
     20 C           2.5290    2.0460    0.0000 C.ar    1  LIG1       -0.0002
     21 C           1.5380    2.0580    0.0000 C.ar    1  LIG1       -0.0000
     22 C           1.0500    1.1830    0.0000 C.ar    1  LIG1       -0.0002
     23 C           1.5380    0.3250    0.0000 C.ar    1  LIG1       -0.0006
     24 O           3.5420   -1.4500    0.0000 O.3     1  LIG1       -0.2032
     25 O          -3.0830    0.9500    0.0000 O.2     1  LIG1       -0.2699
     26 C          -3.9460   -0.5750    0.0000 C.ar    1  LIG1        0.0536
     27 C          -3.9210   -1.5670    0.0000 C.ar    1  LIG1        0.0045
     28 C          -4.7830   -2.0540    0.0000 C.ar    1  LIG1        0.0001
     29 C          -5.6420   -1.5880    0.0000 C.ar    1  LIG1        0.0000
     30 C          -5.6580   -0.5920    0.0000 C.ar    1  LIG1        0.0001
     31 C          -4.8000   -0.0880    0.0000 C.ar    1  LIG1        0.0045
@<TRIPOS>BOND
     1     1     2   am
     2     1    25    2
     3     1    26    1
     4     2     3    1
     5     2     7    1
     6     3     4    1
     7     4     5    1
     8     5     6    1
     9     5     8    1
    10     6     7    1
    11     8     9    1
    12     9    10    3
    13    10    11    1
    14    11    12    1
    15    11    18    1
    16    11    24    1
    17    12    13   ar
    18    12    17   ar
    19    13    14   ar
    20    14    15   ar
    21    15    16   ar
    22    16    17   ar
    23    18    19   ar
    24    18    23   ar
    25    19    20   ar
    26    20    21   ar
    27    21    22   ar
    28    22    23   ar
    29    26    27   ar
    30    26    31   ar
    31    27    28   ar
    32    28    29   ar
    33    29    30   ar
    34    30    31   ar
