@<TRIPOS>MOLECULE
27682_ChemDiv_8016-1942
 35 38 0 0 0
SMALL
GASTEIGER
Energy = 0

@<TRIPOS>ATOM
      1 N           1.3000    2.2290    0.0000 N.am    1  LIG1       -0.2574
      2 C           1.3000    1.2330    0.0000 C.ar    1  LIG1        0.0689
      3 C           0.4290    0.7330    0.0000 C.ar    1  LIG1        0.0882
      4 C           0.4290   -0.2670    0.0000 C.ar    1  LIG1        0.0341
      5 C           1.3000   -0.7670    0.0000 C.ar    1  LIG1        0.0708
      6 N           1.3000   -1.7670    0.0000 N.am    1  LIG1       -0.1795
      7 C           2.1670   -2.2670    0.0000 C.2     1  LIG1        0.2459
      8 O           3.0290   -1.7670    0.0000 O.2     1  LIG1       -0.2730
      9 C           2.1670   -3.2670    0.0000 C.3     1  LIG1        0.0918
     10 C           3.0290   -3.7670    0.0000 C.3     1  LIG1        0.0360
     11 C           3.9000   -3.2670    0.0000 C.ar    1  LIG1       -0.0217
     12 C           4.7670   -3.7670    0.0000 C.ar    1  LIG1       -0.0043
     13 C           5.6290   -3.2670    0.0000 C.ar    1  LIG1       -0.0003
     14 C           5.6290   -2.2670    0.0000 C.ar    1  LIG1       -0.0000
     15 C           4.7670   -1.7670    0.0000 C.ar    1  LIG1       -0.0003
     16 C           3.9000   -2.2670    0.0000 C.ar    1  LIG1       -0.0043
     17 C           2.1670   -0.2670    0.0000 C.ar    1  LIG1       -0.0052
     18 C           2.1670    0.7330    0.0000 C.ar    1  LIG1        0.0132
     19 C           3.0290   -0.7670    0.0000 C.3     1  LIG1        0.0324
     20 N          -0.4330    1.2330    0.0000 N.am    1  LIG1       -0.1779
     21 C          -1.3000    0.7330    0.0000 C.2     1  LIG1        0.2459
     22 O          -1.3000   -0.2670    0.0000 O.2     1  LIG1       -0.2730
     23 C          -2.1710    1.2330    0.0000 C.3     1  LIG1        0.0918
     24 C          -3.0330    0.7330    0.0000 C.3     1  LIG1        0.0360
     25 C          -3.9000    1.2330    0.0000 C.ar    1  LIG1       -0.0217
     26 C          -4.7710    0.7330    0.0000 C.ar    1  LIG1       -0.0043
     27 C          -5.6330    1.2330    0.0000 C.ar    1  LIG1       -0.0003
     28 C          -5.6330    2.2290    0.0000 C.ar    1  LIG1       -0.0000
     29 C          -4.7710    2.7330    0.0000 C.ar    1  LIG1       -0.0003
     30 C          -3.9000    2.2290    0.0000 C.ar    1  LIG1       -0.0043
     31 C           2.1040    2.8210    0.0000 C.2     1  LIG1        0.2294
     32 O           2.9750    2.3290    0.0000 O.2     1  LIG1       -0.2745
     33 C           1.8000    3.7710    0.0000 C.3     1  LIG1        0.0874
     34 C           0.8000    3.7710    0.0000 C.3     1  LIG1        0.0315
     35 C           0.4920    2.8210    0.0000 C.3     1  LIG1        0.0987
@<TRIPOS>BOND
     1     1     2    1
     2     1    31   am
     3     1    35    1
     4     2     3   ar
     5     2    18   ar
     6     3     4   ar
     7     3    20    1
     8     4     5   ar
     9     5     6    1
    10     5    17   ar
    11     6     7   am
    12     7     8    2
    13     7     9    1
    14     9    10    1
    15    10    11    1
    16    11    12   ar
    17    11    16   ar
    18    12    13   ar
    19    13    14   ar
    20    14    15   ar
    21    15    16   ar
    22    17    18   ar
    23    17    19    1
    24    20    21   am
    25    21    22    2
    26    21    23    1
    27    23    24    1
    28    24    25    1
    29    25    26   ar
    30    25    30   ar
    31    26    27   ar
    32    27    28   ar
    33    28    29   ar
    34    29    30   ar
    35    31    32    2
    36    31    33    1
    37    33    34    1
    38    34    35    1
