@<TRIPOS>MOLECULE
27681_ChemDiv_1900-1531
 19 21 0 0 0
SMALL
GASTEIGER
Energy = 0

@<TRIPOS>ATOM
      1 C           0.4330    0.4460    0.0000 C.ar    1  LIG1        0.1597
      2 N           1.3670    0.7460    0.0000 N.ar    1  LIG1       -0.2605
      3 C           1.3670    1.7380    0.0000 C.ar    1  LIG1        0.2380
      4 N           0.4330    2.0380    0.0000 N.ar    1  LIG1       -0.2082
      5 C          -0.1380    1.2290    0.0000 C.ar    1  LIG1        0.1164
      6 C          -1.1250    1.1380    0.0000 C.ar    1  LIG1        0.0205
      7 C          -1.5580    0.2330    0.0000 C.ar    1  LIG1        0.0016
      8 C          -2.5420    0.1460    0.0000 C.ar    1  LIG1        0.0000
      9 C          -3.1210    0.9540    0.0000 C.ar    1  LIG1        0.0000
     10 C          -2.6920    1.8580    0.0000 C.ar    1  LIG1        0.0000
     11 C          -1.6960    1.9500    0.0000 C.ar    1  LIG1        0.0016
     12 N           2.2380    2.2500    0.0000 N.ar    1  LIG1       -0.2095
     13 C           3.1170    1.7380    0.0000 C.ar    1  LIG1        0.1036
     14 C           3.1170    0.7460    0.0000 C.ar    1  LIG1        0.0399
     15 C           2.2380    0.2330    0.0000 C.ar    1  LIG1        0.0857
     16 N           0.1080   -0.5500    0.0000 N.am    1  LIG1       -0.1601
     17 C           0.7920   -1.3000    0.0000 C.2     1  LIG1        0.2474
     18 O           1.7630   -1.0750    0.0000 O.2     1  LIG1       -0.2729
     19 C           0.4330   -2.2460    0.0000 C.3     1  LIG1        0.0968
@<TRIPOS>BOND
     1     1     2   ar
     2     1     5   ar
     3     1    16    1
     4     2     3   ar
     5     2    15   ar
     6     3     4   ar
     7     3    12   ar
     8     4     5   ar
     9     5     6    1
    10     6     7   ar
    11     6    11   ar
    12     7     8   ar
    13     8     9   ar
    14     9    10   ar
    15    10    11   ar
    16    12    13   ar
    17    13    14   ar
    18    14    15   ar
    19    16    17   am
    20    17    18    2
    21    17    19    1
