@<TRIPOS>MOLECULE
27688_ChemDiv_2187-2163
 19 20 0 0 0
SMALL
GASTEIGER
Energy = 0

@<TRIPOS>ATOM
      1 C          -2.5420    0.3920    0.0000 C.ar    1  LIG1        0.3646
      2 N          -2.2380   -0.5380    0.0000 N.ar    1  LIG1       -0.2409
      3 C          -1.2540   -0.5670    0.0000 C.ar    1  LIG1        0.1580
      4 C          -0.9500    0.3920    0.0000 C.ar    1  LIG1        0.3046
      5 N          -1.7330    0.9710    0.0000 N.ar    1  LIG1        0.0931
      6 C           0.0210    0.7250    0.0000 C.3     1  LIG1        0.1691
      7 S           0.7920    0.0630    0.0000 S.3     1  LIG1       -0.0806
      8 C           1.7500    0.3670    0.0000 C.2     1  LIG1        0.1115
      9 S           1.9540    1.3290    0.0000 S.2     1  LIG1       -0.0279
     10 N           2.4960   -0.2920    0.0000 N.am    1  LIG1       -0.2976
     11 C           2.2790   -1.2960    0.0000 C.3     1  LIG1        0.0918
     12 C           1.3210   -1.6000    0.0000 C.3     1  LIG1        0.0232
     13 C           3.4420    0.0000    0.0000 C.3     1  LIG1        0.0918
     14 C           4.1960   -0.6580    0.0000 C.3     1  LIG1        0.0232
     15 C          -2.9330   -1.2630    0.0000 C.ar    1  LIG1        0.0859
     16 C          -3.8960   -1.0500    0.0000 C.ar    1  LIG1        0.0191
     17 C          -4.2000   -0.1210    0.0000 C.ar    1  LIG1        0.0050
     18 C          -3.5330    0.6380    0.0000 C.ar    1  LIG1        0.0670
     19 C          -3.8330    1.6040    0.0000 C.3     1  LIG1        0.0393
@<TRIPOS>BOND
     1     1     2   ar
     2     1     5   ar
     3     1    18   ar
     4     2     3   ar
     5     2    15   ar
     6     3     4   ar
     7     4     5   ar
     8     4     6    1
     9     6     7    1
    10     7     8    1
    11     8     9    2
    12     8    10    1
    13    10    11    1
    14    10    13    1
    15    11    12    1
    16    13    14    1
    17    15    16   ar
    18    16    17   ar
    19    17    18   ar
    20    18    19    1
