@<TRIPOS>MOLECULE
27698_ChemDiv_8018-0406
 23 25 0 0 0
SMALL
GASTEIGER
Energy = 0

@<TRIPOS>ATOM
      1 C           0.8630   -1.9880    0.0000 C.2     1  LIG1        0.2504
      2 C          -0.0080   -2.4880    0.0000 C.ar    1  LIG1        0.0703
      3 C          -0.8710   -1.9960    0.0000 C.ar    1  LIG1        0.0934
      4 N          -0.8710   -0.9960    0.0000 N.pl3   1  LIG1       -0.1279
      5 C          -1.7330   -2.4960    0.0000 C.ar    1  LIG1        0.0182
      6 C          -1.7330   -3.5000    0.0000 C.ar    1  LIG1        0.0014
      7 C          -0.8710   -4.0000    0.0000 C.ar    1  LIG1        0.0002
      8 C           0.0000   -3.5000    0.0000 C.ar    1  LIG1        0.0059
      9 N           0.8540   -0.9880    0.0000 N.am    1  LIG1       -0.2725
     10 C          -0.0080   -0.4880    0.0000 C.3     1  LIG1        0.1152
     11 C          -0.0080    0.5080    0.0000 C.3     1  LIG1        0.1152
     12 N           0.8630    1.0080    0.0000 N.am    1  LIG1       -0.2726
     13 C           0.8540    2.0080    0.0000 C.2     1  LIG1        0.2491
     14 O           1.7250    2.5080    0.0000 O.2     1  LIG1       -0.2699
     15 C          -0.0080    2.5080    0.0000 C.ar    1  LIG1        0.0536
     16 C           0.0000    3.5080    0.0000 C.ar    1  LIG1        0.0045
     17 C          -0.8630    4.0000    0.0000 C.ar    1  LIG1        0.0001
     18 C          -1.7330    3.5080    0.0000 C.ar    1  LIG1        0.0000
     19 C          -1.7330    2.5080    0.0000 C.ar    1  LIG1        0.0001
     20 C          -0.8630    2.0080    0.0000 C.ar    1  LIG1        0.0045
     21 C           1.7250    0.5080    0.0000 C.3     1  LIG1        0.1152
     22 C           1.7290   -0.4830    0.0000 C.3     1  LIG1        0.1152
     23 O           1.7290   -2.4830    0.0000 O.2     1  LIG1       -0.2699
@<TRIPOS>BOND
     1     1     2    1
     2     1     9   am
     3     1    23    2
     4     2     3   ar
     5     2     8   ar
     6     3     4    1
     7     3     5   ar
     8     5     6   ar
     9     6     7   ar
    10     7     8   ar
    11     9    10    1
    12     9    22    1
    13    10    11    1
    14    11    12    1
    15    12    13   am
    16    12    21    1
    17    13    14    2
    18    13    15    1
    19    15    16   ar
    20    15    20   ar
    21    16    17   ar
    22    17    18   ar
    23    18    19   ar
    24    19    20   ar
    25    21    22    1
