@<TRIPOS>MOLECULE
27699_ChemDiv_4073-0071
 24 26 0 0 0
SMALL
GASTEIGER
Energy = 0

@<TRIPOS>ATOM
      1 N           0.4880    1.7460    0.0000 N.ar    1  LIG1       -0.2107
      2 C          -0.4880    1.7460    0.0000 C.ar    1  LIG1        0.1655
      3 N          -0.8080    2.6960    0.0000 N.ar    1  LIG1       -0.2034
      4 C           0.0000    3.2880    0.0000 C.ar    1  LIG1        0.2213
      5 N           0.8210    2.7210    0.0000 N.ar    1  LIG1       -0.1410
      6 C          -1.0540    0.9250    0.0000 C.ar    1  LIG1        0.0360
      7 C          -2.0580    0.9960    0.0000 C.ar    1  LIG1        0.0043
      8 C          -2.6290    0.1790    0.0000 C.ar    1  LIG1        0.0146
      9 C          -2.2000   -0.7420    0.0000 C.ar    1  LIG1        0.0479
     10 N          -2.7630   -1.5580    0.0000 N.pl3   1  LIG1       -0.3041
     11 C          -2.3170   -2.4380    0.0000 C.3     1  LIG1        0.1122
     12 C          -3.7670   -1.4880    0.0000 C.3     1  LIG1        0.1122
     13 C          -1.2040   -0.8080    0.0000 C.ar    1  LIG1        0.0146
     14 C          -0.6460    0.0210    0.0000 C.ar    1  LIG1        0.0043
     15 C           1.0460    0.9170    0.0000 C.ar    1  LIG1        0.0845
     16 C           0.6170    0.0130    0.0000 C.ar    1  LIG1        0.0194
     17 C           1.1880   -0.8250    0.0000 C.ar    1  LIG1        0.0080
     18 C           2.1960   -0.7710    0.0000 C.ar    1  LIG1        0.0757
     19 C           2.7460   -1.5920    0.0000 C.2     1  LIG1        0.3413
     20 O           3.7630   -1.5290    0.0000 O.2     1  LIG1       -0.2449
     21 O           2.2540   -2.4210    0.0000 O.3     1  LIG1       -0.4413
     22 C           2.7290   -3.2830    0.0000 C.3     1  LIG1        0.2560
     23 C           2.6170    0.1500    0.0000 C.ar    1  LIG1        0.0080
     24 C           2.0580    0.9790    0.0000 C.ar    1  LIG1        0.0194
@<TRIPOS>BOND
     1     1     2   ar
     2     1     5   ar
     3     1    15    1
     4     2     3   ar
     5     2     6    1
     6     3     4   ar
     7     4     5   ar
     8     6     7   ar
     9     6    14   ar
    10     7     8   ar
    11     8     9   ar
    12     9    10    1
    13     9    13   ar
    14    10    11    1
    15    10    12    1
    16    13    14   ar
    17    15    16   ar
    18    15    24   ar
    19    16    17   ar
    20    17    18   ar
    21    18    19    1
    22    18    23   ar
    23    19    20    2
    24    19    21    1
    25    21    22    1
    26    23    24   ar
