@<TRIPOS>MOLECULE
27693_ChemDiv_4456-0726
 29 31 0 0 0
SMALL
GASTEIGER
Energy = 0

@<TRIPOS>ATOM
      1 C          -0.8130   -1.5080    0.0000 C.ar    1  LIG1       -0.0397
      2 C          -1.7540   -1.8580    0.0000 C.ar    1  LIG1        0.2577
      3 N          -2.3460   -1.0790    0.0000 N.ar    1  LIG1       -0.2160
      4 N          -1.8130   -0.2540    0.0000 N.ar    1  LIG1       -0.2677
      5 C          -0.8420   -0.5420    0.0000 C.ar    1  LIG1        0.0371
      6 C          -0.0330    0.0830    0.0000 C.3     1  LIG1        0.0499
      7 C          -2.1630    0.7080    0.0000 C.3     1  LIG1        0.1517
      8 C          -3.3460   -1.0790    0.0000 C.ar    1  LIG1        0.0840
      9 C          -3.8460   -1.9170    0.0000 C.ar    1  LIG1        0.0192
     10 C          -4.8500   -1.9170    0.0000 C.ar    1  LIG1        0.0015
     11 C          -5.3540   -1.0790    0.0000 C.ar    1  LIG1        0.0001
     12 C          -4.8500   -0.1960    0.0000 C.ar    1  LIG1        0.0015
     13 C          -3.8460   -0.2290    0.0000 C.ar    1  LIG1        0.0192
     14 O          -2.0080   -2.8290    0.0000 O.2     1  LIG1       -0.2672
     15 N           0.0290   -2.0500    0.0000 N.pl3   1  LIG1       -0.5312
     16 S           0.9420   -1.5790    0.0000 S.O2    1  LIG1       -0.0576
     17 C           1.8210   -1.1080    0.0000 C.ar    1  LIG1        0.0894
     18 C           2.6630   -1.6380    0.0000 C.ar    1  LIG1        0.0182
     19 C           3.5420   -1.1960    0.0000 C.ar    1  LIG1        0.0180
     20 C           3.5670   -0.1710    0.0000 C.ar    1  LIG1        0.0768
     21 N           4.4790    0.3710    0.0000 N.am    1  LIG1       -0.1424
     22 C           4.4790    1.3670    0.0000 C.2     1  LIG1        0.4255
     23 O           3.6250    1.8630    0.0000 O.2     1  LIG1       -0.2242
     24 O           5.3210    1.8380    0.0000 O.3     1  LIG1       -0.4292
     25 C           5.3500    2.8330    0.0000 C.3     1  LIG1        0.2574
     26 C           2.7580    0.3710    0.0000 C.ar    1  LIG1        0.0180
     27 C           1.8790   -0.1000    0.0000 C.ar    1  LIG1        0.0182
     28 O           1.4080   -2.4880    0.0000 O.2     1  LIG1       -0.1842
     29 O           0.4710   -0.7000    0.0000 O.2     1  LIG1       -0.1842
@<TRIPOS>BOND
     1     1     2   ar
     2     1     5   ar
     3     1    15    1
     4     2     3   ar
     5     2    14    2
     6     3     4   ar
     7     3     8    1
     8     4     5   ar
     9     4     7    1
    10     5     6    1
    11     8     9   ar
    12     8    13   ar
    13     9    10   ar
    14    10    11   ar
    15    11    12   ar
    16    12    13   ar
    17    15    16    1
    18    16    17    1
    19    16    28    2
    20    16    29    2
    21    17    18   ar
    22    17    27   ar
    23    18    19   ar
    24    19    20   ar
    25    20    21    1
    26    20    26   ar
    27    21    22   am
    28    22    23    2
    29    22    24    1
    30    24    25    1
    31    26    27   ar
