@<TRIPOS>MOLECULE
27705_ChemDiv_4073-0074
 22 24 0 0 0
SMALL
GASTEIGER
Energy = 0

@<TRIPOS>ATOM
      1 C          -0.5630    1.7460    0.0000 C.ar    1  LIG1        0.1655
      2 N           0.4130    1.7460    0.0000 N.ar    1  LIG1       -0.2107
      3 N           0.7460    2.7170    0.0000 N.ar    1  LIG1       -0.1410
      4 C          -0.0750    3.2880    0.0000 C.ar    1  LIG1        0.2213
      5 N          -0.8790    2.6920    0.0000 N.ar    1  LIG1       -0.2034
      6 C           0.9710    0.9170    0.0000 C.ar    1  LIG1        0.0845
      7 C           0.5420    0.0130    0.0000 C.ar    1  LIG1        0.0194
      8 C           1.1130   -0.8250    0.0000 C.ar    1  LIG1        0.0080
      9 C           2.1210   -0.7710    0.0000 C.ar    1  LIG1        0.0757
     10 C           2.6710   -1.5920    0.0000 C.2     1  LIG1        0.3413
     11 O           3.6880   -1.5290    0.0000 O.2     1  LIG1       -0.2449
     12 O           2.1790   -2.4210    0.0000 O.3     1  LIG1       -0.4413
     13 C           2.6540   -3.2830    0.0000 C.3     1  LIG1        0.2560
     14 C           2.5420    0.1500    0.0000 C.ar    1  LIG1        0.0080
     15 C           1.9830    0.9790    0.0000 C.ar    1  LIG1        0.0194
     16 C          -1.1290    0.9250    0.0000 C.ar    1  LIG1        0.0364
     17 C          -2.1290    0.9960    0.0000 C.ar    1  LIG1        0.0097
     18 C          -2.7000    0.1790    0.0000 C.ar    1  LIG1        0.0347
     19 BR         -3.6920    0.2710    0.0000 Br      1  LIG1       -0.0490
     20 C          -2.2750   -0.7380    0.0000 C.ar    1  LIG1        0.0067
     21 C          -1.2790   -0.8080    0.0000 C.ar    1  LIG1        0.0006
     22 C          -0.7170    0.0210    0.0000 C.ar    1  LIG1        0.0031
@<TRIPOS>BOND
     1     1     2   ar
     2     1     5   ar
     3     1    16    1
     4     2     3   ar
     5     2     6    1
     6     3     4   ar
     7     4     5   ar
     8     6     7   ar
     9     6    15   ar
    10     7     8   ar
    11     8     9   ar
    12     9    10    1
    13     9    14   ar
    14    10    11    2
    15    10    12    1
    16    12    13    1
    17    14    15   ar
    18    16    17   ar
    19    16    22   ar
    20    17    18   ar
    21    18    19    1
    22    18    20   ar
    23    20    21   ar
    24    21    22   ar
