@<TRIPOS>MOLECULE
27700_ChemDiv_R079-0003
 19 21 0 0 0
SMALL
GASTEIGER
Energy = 0

@<TRIPOS>ATOM
      1 N           0.0000    0.5040    0.0000 N.4     1  LIG1        0.3815
      2 C           0.0000   -0.5000    0.0000 C.3     1  LIG1        0.1331
      3 C          -0.8630   -1.0000    0.0000 C.ar    1  LIG1        0.0328
      4 C          -1.7290   -0.4880    0.0000 C.ar    1  LIG1        0.0016
      5 C          -2.6000   -0.9880    0.0000 C.ar    1  LIG1       -0.0001
      6 C          -2.6000   -1.9920    0.0000 C.ar    1  LIG1       -0.0000
      7 C          -1.7290   -2.4920    0.0000 C.ar    1  LIG1       -0.0001
      8 C          -0.8630   -1.9920    0.0000 C.ar    1  LIG1        0.0016
      9 C           0.8670   -1.0000    0.0000 C.ar    1  LIG1        0.0328
     10 C           0.8670   -2.0000    0.0000 C.ar    1  LIG1        0.0016
     11 C           1.7290   -2.5000    0.0000 C.ar    1  LIG1       -0.0001
     12 C           2.5960   -2.0000    0.0000 C.ar    1  LIG1       -0.0000
     13 C           2.5960   -0.9880    0.0000 C.ar    1  LIG1       -0.0001
     14 C           1.7290   -0.5000    0.0000 C.ar    1  LIG1        0.0016
     15 C          -0.8630    0.9960    0.0000 C.3     1  LIG1        0.1584
     16 C          -0.8630    2.0000    0.0000 C.3     1  LIG1        0.1514
     17 N           0.0000    2.5040    0.0000 N.3     1  LIG1       -0.2055
     18 C           0.8670    2.0000    0.0000 C.3     1  LIG1        0.1514
     19 C           0.8670    0.9960    0.0000 C.3     1  LIG1        0.1584
@<TRIPOS>BOND
     1     1     2    1
     2     1    15    1
     3     1    19    1
     4     2     3    1
     5     2     9    1
     6     3     4   ar
     7     3     8   ar
     8     4     5   ar
     9     5     6   ar
    10     6     7   ar
    11     7     8   ar
    12     9    10   ar
    13     9    14   ar
    14    10    11   ar
    15    11    12   ar
    16    12    13   ar
    17    13    14   ar
    18    15    16    1
    19    16    17    1
    20    17    18    1
    21    18    19    1
