@<TRIPOS>MOLECULE
27702_ChemDiv_R090-0003
 20 22 0 0 0
SMALL
GASTEIGER
Energy = 0

@<TRIPOS>ATOM
      1 N          -0.4960    0.5540    0.0000 N.4     1  LIG1        0.3815
      2 C          -0.4960   -0.4540    0.0000 C.3     1  LIG1        0.1331
      3 C           0.2460   -0.8580    0.0000 C.ar    1  LIG1        0.0328
      4 C           1.1170   -0.3630    0.0000 C.ar    1  LIG1        0.0024
      5 C           1.9880   -0.8580    0.0000 C.ar    1  LIG1        0.0113
      6 C           1.9880   -1.9040    0.0000 C.ar    1  LIG1        0.0577
      7 C           1.1170   -2.3960    0.0000 C.ar    1  LIG1        0.0113
      8 C           0.2460   -1.9040    0.0000 C.ar    1  LIG1        0.0024
      9 CL          3.0250   -2.4830    0.0000 Cl      1  LIG1       -0.0822
     10 C          -1.2880   -0.8580    0.0000 C.ar    1  LIG1        0.0328
     11 C          -2.1460   -0.3630    0.0000 C.ar    1  LIG1        0.0016
     12 C          -3.0290   -0.8580    0.0000 C.ar    1  LIG1       -0.0001
     13 C          -3.0290   -1.9040    0.0000 C.ar    1  LIG1       -0.0000
     14 C          -2.1460   -2.3960    0.0000 C.ar    1  LIG1       -0.0001
     15 C          -1.2880   -1.9040    0.0000 C.ar    1  LIG1        0.0016
     16 C           0.3250    1.0460    0.0000 C.3     1  LIG1        0.1584
     17 C           0.3250    2.0420    0.0000 C.3     1  LIG1        0.1514
     18 N          -0.4960    2.4880    0.0000 N.3     1  LIG1       -0.2055
     19 C          -1.3790    2.0420    0.0000 C.3     1  LIG1        0.1514
     20 C          -1.3790    1.0460    0.0000 C.3     1  LIG1        0.1584
@<TRIPOS>BOND
     1     1     2    1
     2     1    16    1
     3     1    20    1
     4     2     3    1
     5     2    10    1
     6     3     4   ar
     7     3     8   ar
     8     4     5   ar
     9     5     6   ar
    10     6     7   ar
    11     6     9    1
    12     7     8   ar
    13    10    11   ar
    14    10    15   ar
    15    11    12   ar
    16    12    13   ar
    17    13    14   ar
    18    14    15   ar
    19    16    17    1
    20    17    18    1
    21    18    19    1
    22    19    20    1
