@<TRIPOS>MOLECULE
27719_ChemDiv_8015-9737
 24 26 0 0 0
SMALL
GASTEIGER
Energy = 0

@<TRIPOS>ATOM
      1 C          -2.8920    1.1670    0.0000 C.ar    1  LIG1        0.0484
      2 C          -1.9170    0.9670    0.0000 C.ar    1  LIG1        0.2759
      3 N          -1.8040   -0.0330    0.0000 N.ar    1  LIG1       -0.2148
      4 N          -2.7210   -0.4380    0.0000 N.ar    1  LIG1       -0.2662
      5 C          -3.3920    0.3040    0.0000 C.ar    1  LIG1        0.0552
      6 C          -4.3920    0.3040    0.0000 C.3     1  LIG1        0.0515
      7 C          -2.7210   -1.4380    0.0000 C.3     1  LIG1        0.1518
      8 C          -0.9420   -0.5290    0.0000 C.ar    1  LIG1        0.0842
      9 C          -0.9420   -1.5290    0.0000 C.ar    1  LIG1        0.0206
     10 C          -0.0750   -2.0290    0.0000 C.ar    1  LIG1        0.0215
     11 C           0.7880   -1.5290    0.0000 C.ar    1  LIG1        0.1236
     12 S           1.6540   -2.0290    0.0000 S.O2    1  LIG1        0.0768
     13 N           2.5170   -2.5290    0.0000 N.3     1  LIG1       -0.0793
     14 C           3.3880   -2.0290    0.0000 C.3     1  LIG1        0.0978
     15 C           4.3880   -2.0290    0.0000 C.3     1  LIG1        0.0208
     16 C           3.8880   -1.1630    0.0000 C.3     1  LIG1        0.0208
     17 O           2.1540   -1.1630    0.0000 O.2     1  LIG1       -0.1516
     18 O           1.1540   -2.8920    0.0000 O.2     1  LIG1       -0.1516
     19 C           0.7880   -0.5290    0.0000 C.ar    1  LIG1        0.0215
     20 C          -0.0750   -0.0330    0.0000 C.ar    1  LIG1        0.0206
     21 O          -1.0460    1.4580    0.0000 O.2     1  LIG1       -0.2655
     22 C          -3.3920    2.0290    0.0000 C.3     1  LIG1        0.0282
     23 C          -4.3920    2.0290    0.0000 C.3     1  LIG1        0.0049
     24 C          -2.8920    2.8960    0.0000 C.3     1  LIG1        0.0049
@<TRIPOS>BOND
     1     1     2   ar
     2     1     5   ar
     3     1    22    1
     4     2     3   ar
     5     2    21    2
     6     3     4   ar
     7     3     8    1
     8     4     5   ar
     9     4     7    1
    10     5     6    1
    11     8     9   ar
    12     8    20   ar
    13     9    10   ar
    14    10    11   ar
    15    11    12    1
    16    11    19   ar
    17    12    13    1
    18    12    17    2
    19    12    18    2
    20    13    14    1
    21    14    15    1
    22    14    16    1
    23    15    16    1
    24    19    20   ar
    25    22    23    1
    26    22    24    1
