@<TRIPOS>MOLECULE
27712_ChemDiv_4340-0579
 37 41 0 0 0
SMALL
GASTEIGER
Energy = 0

@<TRIPOS>ATOM
      1 C          -0.6250    2.1960    0.0000 C.2     1  LIG1        0.0656
      2 C           0.3500    2.0630    0.0000 C.2     1  LIG1        0.0893
      3 C           1.0880    2.7540    0.0000 C.2     1  LIG1        0.2597
      4 N           1.9710    2.2460    0.0000 N.am    1  LIG1       -0.2440
      5 C           1.7880    1.3170    0.0000 C.2     1  LIG1        0.1212
      6 S           0.7880    1.1630    0.0000 S.3     1  LIG1       -0.0602
      7 S           2.5130    0.6040    0.0000 S.2     1  LIG1       -0.0272
      8 C           2.8750    2.6080    0.0000 C.3     1  LIG1        0.1063
      9 C           3.7380    2.0960    0.0000 C.3     1  LIG1        0.1709
     10 S           4.4830    2.7540    0.0000 S.O2    1  LIG1       -0.0083
     11 O           4.8920    1.8250    0.0000 O.2     1  LIG1       -0.1729
     12 O           5.4250    3.1790    0.0000 O.2     1  LIG1       -0.1729
     13 C           4.0750    3.6880    0.0000 C.3     1  LIG1        0.1527
     14 C           3.0750    3.5750    0.0000 C.3     1  LIG1        0.0473
     15 O           0.9540    3.7710    0.0000 O.2     1  LIG1       -0.2690
     16 C          -1.2330    1.4500    0.0000 C.2     1  LIG1        0.2538
     17 N          -2.1580    1.8130    0.0000 N.am    1  LIG1       -0.2461
     18 C          -2.0960    2.7880    0.0000 C.ar    1  LIG1        0.0547
     19 C          -1.1080    3.0330    0.0000 C.ar    1  LIG1        0.0187
     20 C          -0.8540    4.0040    0.0000 C.ar    1  LIG1        0.0014
     21 C          -1.5500    4.7330    0.0000 C.ar    1  LIG1        0.0001
     22 C          -2.5210    4.4960    0.0000 C.ar    1  LIG1        0.0013
     23 C          -2.8040    3.5170    0.0000 C.ar    1  LIG1        0.0149
     24 C          -3.0080    1.2540    0.0000 C.3     1  LIG1        0.1855
     25 C          -2.9540    0.2380    0.0000 C.2     1  LIG1        0.2662
     26 N          -3.8080   -0.2380    0.0000 N.am    1  LIG1       -0.1778
     27 C          -3.7920   -1.2540    0.0000 C.ar    1  LIG1        0.0736
     28 C          -2.8880   -1.7290    0.0000 C.ar    1  LIG1        0.0197
     29 C          -2.8710   -2.7170    0.0000 C.ar    1  LIG1        0.0382
     30 C          -3.7170   -3.2420    0.0000 C.ar    1  LIG1        0.1386
     31 C          -4.5670   -2.7880    0.0000 C.ar    1  LIG1        0.0382
     32 C          -4.6040   -1.7710    0.0000 C.ar    1  LIG1        0.0197
     33 O          -3.7000   -4.2380    0.0000 O.3     1  LIG1       -0.4755
     34 C          -4.5380   -4.7330    0.0000 C.3     1  LIG1        0.2055
     35 C          -5.4290   -4.2750    0.0000 C.3     1  LIG1        0.0512
     36 O          -2.0460   -0.1750    0.0000 O.2     1  LIG1       -0.2711
     37 O          -0.9210    0.4670    0.0000 O.2     1  LIG1       -0.2695
@<TRIPOS>BOND
     1     1     2    2
     2     1    16    1
     3     1    19    1
     4     2     3    1
     5     2     6    1
     6     3     4   am
     7     3    15    2
     8     4     5    1
     9     4     8    1
    10     5     6    1
    11     5     7    2
    12     8     9    1
    13     8    14    1
    14     9    10    1
    15    10    11    2
    16    10    12    2
    17    10    13    1
    18    13    14    1
    19    16    17   am
    20    16    37    2
    21    17    18    1
    22    17    24    1
    23    18    19   ar
    24    18    23   ar
    25    19    20   ar
    26    20    21   ar
    27    21    22   ar
    28    22    23   ar
    29    24    25    1
    30    25    26   am
    31    25    36    2
    32    26    27    1
    33    27    28   ar
    34    27    32   ar
    35    28    29   ar
    36    29    30   ar
    37    30    31   ar
    38    30    33    1
    39    31    32   ar
    40    33    34    1
    41    34    35    1
