@<TRIPOS>MOLECULE
27715_ChemDiv_7653-3856
 24 26 0 0 0
SMALL
GASTEIGER
Energy = 0

@<TRIPOS>ATOM
      1 C          -1.2130    0.9080    0.0000 C.ar    1  LIG1        0.0727
      2 C          -0.6210    0.0960    0.0000 C.ar    1  LIG1        0.2776
      3 N          -1.2040   -0.7130    0.0000 N.ar    1  LIG1       -0.2147
      4 N          -2.1540   -0.4080    0.0000 N.ar    1  LIG1       -0.2661
      5 C          -2.1540    0.5920    0.0000 C.ar    1  LIG1        0.0569
      6 C          -2.9710    1.1830    0.0000 C.3     1  LIG1        0.0515
      7 C          -2.9630   -0.9960    0.0000 C.3     1  LIG1        0.1518
      8 C          -0.8960   -1.6670    0.0000 C.ar    1  LIG1        0.0841
      9 C          -1.5630   -2.4130    0.0000 C.ar    1  LIG1        0.0192
     10 C          -1.2580   -3.3630    0.0000 C.ar    1  LIG1        0.0015
     11 C          -0.2710   -3.5630    0.0000 C.ar    1  LIG1        0.0001
     12 C           0.3960   -2.8210    0.0000 C.ar    1  LIG1        0.0015
     13 C           0.0750   -1.8670    0.0000 C.ar    1  LIG1        0.0192
     14 O           0.3790    0.0960    0.0000 O.2     1  LIG1       -0.2655
     15 C          -0.9000    1.8540    0.0000 C.3     1  LIG1        0.1882
     16 S           0.0750    2.0670    0.0000 S.O2    1  LIG1        0.0131
     17 O          -0.1580    3.0380    0.0000 O.2     1  LIG1       -0.1683
     18 O           0.3210    1.0920    0.0000 O.2     1  LIG1       -0.1683
     19 C           1.0460    2.3330    0.0000 C.ar    1  LIG1        0.1060
     20 C           1.7540    1.6250    0.0000 C.ar    1  LIG1        0.0184
     21 C           2.7130    1.8960    0.0000 C.ar    1  LIG1        0.0013
     22 C           2.9670    2.8670    0.0000 C.ar    1  LIG1        0.0001
     23 C           2.2460    3.5670    0.0000 C.ar    1  LIG1        0.0013
     24 C           1.2880    3.2960    0.0000 C.ar    1  LIG1        0.0184
@<TRIPOS>BOND
     1     1     2   ar
     2     1     5   ar
     3     1    15    1
     4     2     3   ar
     5     2    14    2
     6     3     4   ar
     7     3     8    1
     8     4     5   ar
     9     4     7    1
    10     5     6    1
    11     8     9   ar
    12     8    13   ar
    13     9    10   ar
    14    10    11   ar
    15    11    12   ar
    16    12    13   ar
    17    15    16    1
    18    16    17    2
    19    16    18    2
    20    16    19    1
    21    19    20   ar
    22    19    24   ar
    23    20    21   ar
    24    21    22   ar
    25    22    23   ar
    26    23    24   ar
