@<TRIPOS>MOLECULE
27710_ChemDiv_2534-6549
 25 27 0 0 0
SMALL
GASTEIGER
Energy = 0

@<TRIPOS>ATOM
      1 C          -0.0710   -0.0080    0.0000 C.2     1  LIG1        0.0656
      2 C           0.8710    0.3210    0.0000 C.2     1  LIG1        0.0894
      3 C           1.1750    1.2920    0.0000 C.2     1  LIG1        0.2600
      4 N           2.1710    1.2920    0.0000 N.am    1  LIG1       -0.2386
      5 C           2.4880    0.3750    0.0000 C.2     1  LIG1        0.1215
      6 S           1.7000   -0.2290    0.0000 S.3     1  LIG1       -0.0602
      7 S           3.4750    0.0630    0.0000 S.2     1  LIG1       -0.0272
      8 C           2.7830    2.0790    0.0000 C.3     1  LIG1        0.1410
      9 C           2.4080    3.0000    0.0000 C.2     1  LIG1        0.0708
     10 O           1.4250    3.1500    0.0000 O.co2   1  LIG1       -0.5474
     11 O           3.0000    3.8130    0.0000 O.co2   1  LIG1       -0.5474
     12 O           0.5790    2.1130    0.0000 O.2     1  LIG1       -0.2690
     13 C          -0.2380   -0.9000    0.0000 C.2     1  LIG1        0.2537
     14 N          -1.1250   -1.2250    0.0000 N.am    1  LIG1       -0.2497
     15 C          -1.8580   -0.6330    0.0000 C.ar    1  LIG1        0.0546
     16 C          -1.6790    0.2830    0.0000 C.ar    1  LIG1        0.0187
     17 C          -2.4250    0.8630    0.0000 C.ar    1  LIG1        0.0014
     18 C          -3.3170    0.5460    0.0000 C.ar    1  LIG1        0.0001
     19 C          -3.4790   -0.3380    0.0000 C.ar    1  LIG1        0.0013
     20 C          -2.7290   -0.9500    0.0000 C.ar    1  LIG1        0.0149
     21 C          -1.2920   -2.2000    0.0000 C.3     1  LIG1        0.1400
     22 C          -0.5420   -2.8330    0.0000 C.2     1  LIG1        0.0708
     23 O           0.3960   -2.5040    0.0000 O.co2   1  LIG1       -0.5474
     24 O          -0.6710   -3.8080    0.0000 O.co2   1  LIG1       -0.5474
     25 O           0.5380   -1.5380    0.0000 O.2     1  LIG1       -0.2695
@<TRIPOS>BOND
     1     1     2    2
     2     1    13    1
     3     1    16    1
     4     2     3    1
     5     2     6    1
     6     3     4   am
     7     3    12    2
     8     4     5    1
     9     4     8    1
    10     5     6    1
    11     5     7    2
    12     8     9    1
    13     9    10   ar
    14     9    11   ar
    15    13    14   am
    16    13    25    2
    17    14    15    1
    18    14    21    1
    19    15    16   ar
    20    15    20   ar
    21    16    17   ar
    22    17    18   ar
    23    18    19   ar
    24    19    20   ar
    25    21    22    1
    26    22    23   ar
    27    22    24   ar
