@<TRIPOS>MOLECULE
27725_ChemDiv_8017-4030
 25 26 0 0 0
SMALL
GASTEIGER
Energy = 0

@<TRIPOS>ATOM
      1 C          -3.1290    0.2960    0.0000 C.ar    1  LIG1        0.0484
      2 C          -2.1710    0.5920    0.0000 C.ar    1  LIG1        0.2759
      3 N          -1.5920   -0.2210    0.0000 N.ar    1  LIG1       -0.2148
      4 N          -2.1920   -1.0170    0.0000 N.ar    1  LIG1       -0.2662
      5 C          -3.1420   -0.7040    0.0000 C.ar    1  LIG1        0.0552
      6 C          -3.9540   -1.2790    0.0000 C.3     1  LIG1        0.0515
      7 C          -1.9000   -1.9750    0.0000 C.3     1  LIG1        0.1518
      8 C          -0.5960   -0.2330    0.0000 C.ar    1  LIG1        0.0842
      9 C          -0.1000   -1.1130    0.0000 C.ar    1  LIG1        0.0206
     10 C           0.8920   -1.1170    0.0000 C.ar    1  LIG1        0.0215
     11 C           1.4040   -0.2670    0.0000 C.ar    1  LIG1        0.1236
     12 S           2.4000   -0.2790    0.0000 S.O2    1  LIG1        0.0767
     13 N           3.3920   -0.2920    0.0000 N.3     1  LIG1       -0.0807
     14 C           4.0920    0.4290    0.0000 C.3     1  LIG1        0.0827
     15 C           4.8040    1.1420    0.0000 C.3     1  LIG1        0.0194
     16 C           3.3880    1.1290    0.0000 C.3     1  LIG1        0.0194
     17 C           4.8040   -0.2790    0.0000 C.3     1  LIG1        0.0194
     18 O           2.4250    0.7170    0.0000 O.2     1  LIG1       -0.1516
     19 O           2.3790   -1.2750    0.0000 O.2     1  LIG1       -0.1516
     20 C           0.9170    0.6040    0.0000 C.ar    1  LIG1        0.0215
     21 C          -0.0830    0.6170    0.0000 C.ar    1  LIG1        0.0206
     22 O          -1.6790    1.4670    0.0000 O.2     1  LIG1       -0.2655
     23 C          -3.8420    1.0080    0.0000 C.3     1  LIG1        0.0282
     24 C          -3.5830    1.9790    0.0000 C.3     1  LIG1        0.0049
     25 C          -4.8080    0.7540    0.0000 C.3     1  LIG1        0.0049
@<TRIPOS>BOND
     1     1     2   ar
     2     1     5   ar
     3     1    23    1
     4     2     3   ar
     5     2    22    2
     6     3     4   ar
     7     3     8    1
     8     4     5   ar
     9     4     7    1
    10     5     6    1
    11     8     9   ar
    12     8    21   ar
    13     9    10   ar
    14    10    11   ar
    15    11    12    1
    16    11    20   ar
    17    12    13    1
    18    12    18    2
    19    12    19    2
    20    13    14    1
    21    14    15    1
    22    14    16    1
    23    14    17    1
    24    20    21   ar
    25    23    24    1
    26    23    25    1
