@<TRIPOS>MOLECULE
27729_ChemDiv_4073-0091
 31 34 0 0 0
SMALL
GASTEIGER
Energy = 0

@<TRIPOS>ATOM
      1 C           0.5420    2.1210    0.0000 C.ar    1  LIG1        0.1656
      2 N           1.5210    2.1210    0.0000 N.ar    1  LIG1       -0.2107
      3 N           1.8540    3.0960    0.0000 N.ar    1  LIG1       -0.1410
      4 C           1.0290    3.6670    0.0000 C.ar    1  LIG1        0.2213
      5 N           0.2250    3.0710    0.0000 N.ar    1  LIG1       -0.2034
      6 C           2.0830    1.2880    0.0000 C.ar    1  LIG1        0.0845
      7 C           1.6500    0.3790    0.0000 C.ar    1  LIG1        0.0194
      8 C           2.2210   -0.4580    0.0000 C.ar    1  LIG1        0.0080
      9 C           3.2330   -0.4040    0.0000 C.ar    1  LIG1        0.0757
     10 C           3.7880   -1.2250    0.0000 C.2     1  LIG1        0.3413
     11 O           4.8040   -1.1670    0.0000 O.2     1  LIG1       -0.2449
     12 O           3.2920   -2.0580    0.0000 O.3     1  LIG1       -0.4413
     13 C           3.7670   -2.9250    0.0000 C.3     1  LIG1        0.2560
     14 C           3.6580    0.5210    0.0000 C.ar    1  LIG1        0.0080
     15 C           3.0960    1.3540    0.0000 C.ar    1  LIG1        0.0194
     16 C          -0.0250    1.3000    0.0000 C.ar    1  LIG1        0.0391
     17 C          -1.0290    1.3670    0.0000 C.ar    1  LIG1        0.0431
     18 C          -1.6040    0.5500    0.0000 C.ar    1  LIG1        0.1725
     19 C          -1.1750   -0.3710    0.0000 C.ar    1  LIG1        0.1727
     20 O          -1.7380   -1.1960    0.0000 O.3     1  LIG1       -0.4676
     21 C          -2.7290   -1.1210    0.0000 C.3     1  LIG1        0.2321
     22 C          -3.2790   -1.9420    0.0000 C.ar    1  LIG1        0.0212
     23 C          -4.2830   -1.9000    0.0000 C.ar    1  LIG1       -0.0007
     24 C          -4.8080   -2.7130    0.0000 C.ar    1  LIG1       -0.0002
     25 C          -4.3790   -3.6170    0.0000 C.ar    1  LIG1       -0.0000
     26 C          -3.3790   -3.6630    0.0000 C.ar    1  LIG1       -0.0002
     27 C          -2.8460   -2.8380    0.0000 C.ar    1  LIG1       -0.0007
     28 C          -0.1750   -0.4420    0.0000 C.ar    1  LIG1        0.0402
     29 C           0.3830    0.3920    0.0000 C.ar    1  LIG1        0.0064
     30 O          -2.5960    0.6420    0.0000 O.3     1  LIG1       -0.4684
     31 C          -3.0080    1.5420    0.0000 C.3     1  LIG1        0.2526
@<TRIPOS>BOND
     1     1     2   ar
     2     1     5   ar
     3     1    16    1
     4     2     3   ar
     5     2     6    1
     6     3     4   ar
     7     4     5   ar
     8     6     7   ar
     9     6    15   ar
    10     7     8   ar
    11     8     9   ar
    12     9    10    1
    13     9    14   ar
    14    10    11    2
    15    10    12    1
    16    12    13    1
    17    14    15   ar
    18    16    17   ar
    19    16    29   ar
    20    17    18   ar
    21    18    19   ar
    22    18    30    1
    23    19    20    1
    24    19    28   ar
    25    20    21    1
    26    21    22    1
    27    22    23   ar
    28    22    27   ar
    29    23    24   ar
    30    24    25   ar
    31    25    26   ar
    32    26    27   ar
    33    28    29   ar
    34    30    31    1
