@<TRIPOS>MOLECULE
27721_ChemDiv_8017-4026
 32 34 0 0 0
SMALL
GASTEIGER
Energy = 0

@<TRIPOS>ATOM
      1 C          -5.2830    0.2960    0.0000 C.ar    1  LIG1        0.0484
      2 C          -4.3250    0.5960    0.0000 C.ar    1  LIG1        0.2759
      3 N          -3.7500   -0.2210    0.0000 N.ar    1  LIG1       -0.2148
      4 N          -4.3460   -1.0170    0.0000 N.ar    1  LIG1       -0.2662
      5 C          -5.2920   -0.7040    0.0000 C.ar    1  LIG1        0.0552
      6 C          -6.0960   -1.2830    0.0000 C.3     1  LIG1        0.0515
      7 C          -4.0500   -1.9790    0.0000 C.3     1  LIG1        0.1518
      8 C          -2.7420   -0.2290    0.0000 C.ar    1  LIG1        0.0842
      9 C          -2.2290    0.6170    0.0000 C.ar    1  LIG1        0.0206
     10 C          -1.2250    0.6080    0.0000 C.ar    1  LIG1        0.0215
     11 C          -0.7420   -0.2670    0.0000 C.ar    1  LIG1        0.1236
     12 S           0.2500   -0.2830    0.0000 S.O2    1  LIG1        0.0769
     13 O           0.2380   -1.2830    0.0000 O.2     1  LIG1       -0.1516
     14 O           0.2790    0.7210    0.0000 O.2     1  LIG1       -0.1516
     15 N           1.2540   -0.2920    0.0000 N.3     1  LIG1       -0.0738
     16 C           1.9540    0.4330    0.0000 C.3     1  LIG1        0.1626
     17 C           2.9250    0.1830    0.0000 C.3     1  LIG1        0.2261
     18 O           3.6250    0.8960    0.0000 O.3     1  LIG1       -0.4739
     19 C           4.5920    0.6420    0.0000 C.ar    1  LIG1        0.1380
     20 C           4.8540   -0.3250    0.0000 C.ar    1  LIG1        0.0326
     21 C           5.8170   -0.5750    0.0000 C.ar    1  LIG1       -0.0192
     22 C           6.5250    0.1380    0.0000 C.ar    1  LIG1       -0.0083
     23 C           6.2540    1.1080    0.0000 C.ar    1  LIG1       -0.0192
     24 C           5.2880    1.3500    0.0000 C.ar    1  LIG1        0.0326
     25 C           6.9500    1.8210    0.0000 C.3     1  LIG1        0.0311
     26 C           6.0880   -1.5420    0.0000 C.3     1  LIG1        0.0311
     27 C          -1.2500   -1.1210    0.0000 C.ar    1  LIG1        0.0215
     28 C          -2.2460   -1.1130    0.0000 C.ar    1  LIG1        0.0206
     29 O          -3.8380    1.4710    0.0000 O.2     1  LIG1       -0.2655
     30 C          -6.0000    1.0210    0.0000 C.3     1  LIG1        0.0282
     31 C          -6.9500    0.7540    0.0000 C.3     1  LIG1        0.0049
     32 C          -5.7380    1.9830    0.0000 C.3     1  LIG1        0.0049
@<TRIPOS>BOND
     1     1     2   ar
     2     1     5   ar
     3     1    30    1
     4     2     3   ar
     5     2    29    2
     6     3     4   ar
     7     3     8    1
     8     4     5   ar
     9     4     7    1
    10     5     6    1
    11     8     9   ar
    12     8    28   ar
    13     9    10   ar
    14    10    11   ar
    15    11    12    1
    16    11    27   ar
    17    12    13    2
    18    12    14    2
    19    12    15    1
    20    15    16    1
    21    16    17    1
    22    17    18    1
    23    18    19    1
    24    19    20   ar
    25    19    24   ar
    26    20    21   ar
    27    21    22   ar
    28    21    26    1
    29    22    23   ar
    30    23    24   ar
    31    23    25    1
    32    27    28   ar
    33    30    31    1
    34    30    32    1
