@<TRIPOS>MOLECULE
27723_ChemDiv_8017-4028
 21 22 0 0 0
SMALL
GASTEIGER
Energy = 0

@<TRIPOS>ATOM
      1 C          -2.4250    0.2960    0.0000 C.ar    1  LIG1        0.0484
      2 C          -1.4710    0.5920    0.0000 C.ar    1  LIG1        0.2759
      3 N          -0.8960   -0.2170    0.0000 N.ar    1  LIG1       -0.2148
      4 N          -1.4880   -1.0170    0.0000 N.ar    1  LIG1       -0.2662
      5 C          -2.4380   -0.7000    0.0000 C.ar    1  LIG1        0.0552
      6 C          -3.2580   -1.2790    0.0000 C.3     1  LIG1        0.0515
      7 C          -1.1960   -1.9750    0.0000 C.3     1  LIG1        0.1518
      8 C           0.1130   -0.2290    0.0000 C.ar    1  LIG1        0.0842
      9 C           0.6250    0.6170    0.0000 C.ar    1  LIG1        0.0206
     10 C           1.6250    0.6040    0.0000 C.ar    1  LIG1        0.0216
     11 C           2.1130   -0.2670    0.0000 C.ar    1  LIG1        0.1251
     12 S           3.1040   -0.2790    0.0000 S.O2    1  LIG1        0.0935
     13 O           3.0880   -1.2750    0.0000 O.2     1  LIG1       -0.1503
     14 O           3.1290    0.7170    0.0000 O.2     1  LIG1       -0.1503
     15 N           4.1040   -0.2880    0.0000 N.3     1  LIG1        0.0392
     16 C           1.6040   -1.1170    0.0000 C.ar    1  LIG1        0.0216
     17 C           0.6040   -1.1130    0.0000 C.ar    1  LIG1        0.0206
     18 O          -0.9830    1.4670    0.0000 O.2     1  LIG1       -0.2655
     19 C          -3.1460    1.0080    0.0000 C.3     1  LIG1        0.0282
     20 C          -2.8830    1.9790    0.0000 C.3     1  LIG1        0.0049
     21 C          -4.1080    0.7540    0.0000 C.3     1  LIG1        0.0049
@<TRIPOS>BOND
     1     1     2   ar
     2     1     5   ar
     3     1    19    1
     4     2     3   ar
     5     2    18    2
     6     3     4   ar
     7     3     8    1
     8     4     5   ar
     9     4     7    1
    10     5     6    1
    11     8     9   ar
    12     8    17   ar
    13     9    10   ar
    14    10    11   ar
    15    11    12    1
    16    11    16   ar
    17    12    13    2
    18    12    14    2
    19    12    15    1
    20    16    17   ar
    21    19    20    1
    22    19    21    1
