@<TRIPOS>MOLECULE
27727_ChemDiv_8017-4034
 28 30 0 0 0
SMALL
GASTEIGER
Energy = 0

@<TRIPOS>ATOM
      1 S           2.2290    0.2630    0.0000 S.O2    1  LIG1        0.0766
      2 N           3.2250    0.2580    0.0000 N.pl3   1  LIG1       -0.1888
      3 C           3.6040   -0.6670    0.0000 C.ar    1  LIG1        0.0689
      4 C           2.9920   -1.4630    0.0000 C.ar    1  LIG1        0.0161
      5 C           3.3790   -2.3790    0.0000 C.ar    1  LIG1        0.0013
      6 C           4.3670   -2.5170    0.0000 C.ar    1  LIG1        0.0001
      7 C           4.9790   -1.7170    0.0000 C.ar    1  LIG1        0.0013
      8 C           4.5920   -0.7920    0.0000 C.ar    1  LIG1        0.0161
      9 C           3.9250    0.9710    0.0000 C.3     1  LIG1        0.1392
     10 C           1.2290    0.2710    0.0000 C.ar    1  LIG1        0.1255
     11 C           0.7500    1.1460    0.0000 C.ar    1  LIG1        0.0217
     12 C          -0.2580    1.1630    0.0000 C.ar    1  LIG1        0.0206
     13 C          -0.7630    0.3080    0.0000 C.ar    1  LIG1        0.0842
     14 N          -1.7710    0.3210    0.0000 N.ar    1  LIG1       -0.2148
     15 N          -2.3710   -0.4790    0.0000 N.ar    1  LIG1       -0.2662
     16 C          -3.3210   -0.1580    0.0000 C.ar    1  LIG1        0.0552
     17 C          -3.3000    0.8380    0.0000 C.ar    1  LIG1        0.0484
     18 C          -2.3460    1.1380    0.0000 C.ar    1  LIG1        0.2759
     19 O          -1.8580    2.0080    0.0000 O.2     1  LIG1       -0.2655
     20 C          -4.0210    1.5580    0.0000 C.3     1  LIG1        0.0282
     21 C          -3.7630    2.5210    0.0000 C.3     1  LIG1        0.0049
     22 C          -4.9830    1.2960    0.0000 C.3     1  LIG1        0.0049
     23 C          -4.1330   -0.7380    0.0000 C.3     1  LIG1        0.0515
     24 C          -2.0710   -1.4380    0.0000 C.3     1  LIG1        0.1518
     25 C          -0.2710   -0.5670    0.0000 C.ar    1  LIG1        0.0206
     26 C           0.7250   -0.5790    0.0000 C.ar    1  LIG1        0.0217
     27 O           2.2540    1.2580    0.0000 O.2     1  LIG1       -0.1497
     28 O           2.2040   -0.7380    0.0000 O.2     1  LIG1       -0.1497
@<TRIPOS>BOND
     1     1     2    1
     2     1    10    1
     3     1    27    2
     4     1    28    2
     5     2     3    1
     6     2     9    1
     7     3     4   ar
     8     3     8   ar
     9     4     5   ar
    10     5     6   ar
    11     6     7   ar
    12     7     8   ar
    13    10    11   ar
    14    10    26   ar
    15    11    12   ar
    16    12    13   ar
    17    13    14    1
    18    13    25   ar
    19    14    15   ar
    20    14    18   ar
    21    15    16   ar
    22    15    24    1
    23    16    17   ar
    24    16    23    1
    25    17    18   ar
    26    17    20    1
    27    18    19    2
    28    20    21    1
    29    20    22    1
    30    25    26   ar
