@<TRIPOS>MOLECULE
27735_ChemDiv_4073-0106
 22 24 0 0 0
SMALL
GASTEIGER
Energy = 0

@<TRIPOS>ATOM
      1 N           0.8000    0.9000    0.0000 N.ar    1  LIG1       -0.2107
      2 C          -0.1710    0.9000    0.0000 C.ar    1  LIG1        0.1655
      3 N          -0.4920    1.8460    0.0000 N.ar    1  LIG1       -0.2034
      4 C           0.3130    2.4380    0.0000 C.ar    1  LIG1        0.2213
      5 N           1.1330    1.8710    0.0000 N.ar    1  LIG1       -0.1410
      6 C          -0.7380    0.0790    0.0000 C.ar    1  LIG1        0.0361
      7 C          -0.3290   -0.8210    0.0000 C.ar    1  LIG1        0.0062
      8 C          -0.8880   -1.6500    0.0000 C.ar    1  LIG1        0.0370
      9 C          -1.8790   -1.5830    0.0000 C.ar    1  LIG1        0.1386
     10 C          -2.3080   -0.6670    0.0000 C.ar    1  LIG1        0.0370
     11 C          -1.7380    0.1500    0.0000 C.ar    1  LIG1        0.0062
     12 O          -2.4420   -2.4000    0.0000 O.3     1  LIG1       -0.4755
     13 C          -3.4710   -2.3170    0.0000 C.3     1  LIG1        0.2055
     14 C          -3.9210   -1.4580    0.0000 C.3     1  LIG1        0.0512
     15 C           1.3630    0.0710    0.0000 C.ar    1  LIG1        0.0853
     16 C           2.3670    0.1330    0.0000 C.ar    1  LIG1        0.0303
     17 C           2.9290   -0.6920    0.0000 C.ar    1  LIG1        0.0552
     18 C           2.5080   -1.6170    0.0000 C.ar    1  LIG1       -0.0112
     19 C           1.5000   -1.6710    0.0000 C.ar    1  LIG1       -0.0019
     20 C           0.9290   -0.8330    0.0000 C.ar    1  LIG1        0.0189
     21 C           3.0580   -2.4330    0.0000 C.3     1  LIG1        0.0319
     22 CL          3.9170   -0.5960    0.0000 Cl      1  LIG1       -0.0825
@<TRIPOS>BOND
     1     1     2   ar
     2     1     5   ar
     3     1    15    1
     4     2     3   ar
     5     2     6    1
     6     3     4   ar
     7     4     5   ar
     8     6     7   ar
     9     6    11   ar
    10     7     8   ar
    11     8     9   ar
    12     9    10   ar
    13     9    12    1
    14    10    11   ar
    15    12    13    1
    16    13    14    1
    17    15    16   ar
    18    15    20   ar
    19    16    17   ar
    20    17    18   ar
    21    17    22    1
    22    18    19   ar
    23    18    21    1
    24    19    20   ar
