@<TRIPOS>MOLECULE
27737_ChemDiv_4073-0163
 18 20 0 0 0
SMALL
GASTEIGER
Energy = 0

@<TRIPOS>ATOM
      1 N           0.4330    0.8880    0.0000 N.ar    1  LIG1       -0.2107
      2 C          -0.5420    0.8880    0.0000 C.ar    1  LIG1        0.1655
      3 N          -0.8670    1.8380    0.0000 N.ar    1  LIG1       -0.2034
      4 C          -0.0630    2.4210    0.0000 C.ar    1  LIG1        0.2213
      5 N           0.7580    1.8630    0.0000 N.ar    1  LIG1       -0.1410
      6 C          -1.1130    0.0710    0.0000 C.ar    1  LIG1        0.0359
      7 C          -0.6830   -0.8420    0.0000 C.ar    1  LIG1        0.0030
      8 C          -1.2420   -1.6670    0.0000 C.ar    1  LIG1        0.0001
      9 C          -2.2540   -1.5960    0.0000 C.ar    1  LIG1        0.0000
     10 C          -2.6830   -0.6830    0.0000 C.ar    1  LIG1        0.0001
     11 C          -2.1130    0.1420    0.0000 C.ar    1  LIG1        0.0030
     12 C           0.9920    0.0710    0.0000 C.ar    1  LIG1        0.0845
     13 C           1.9880    0.1290    0.0000 C.ar    1  LIG1        0.0201
     14 C           2.5460   -0.6880    0.0000 C.ar    1  LIG1        0.0129
     15 C           2.1210   -1.6040    0.0000 C.ar    1  LIG1        0.0578
     16 C           1.1170   -1.6670    0.0000 C.ar    1  LIG1        0.0129
     17 C           0.5630   -0.8380    0.0000 C.ar    1  LIG1        0.0201
     18 CL          2.6790   -2.4170    0.0000 Cl      1  LIG1       -0.0822
@<TRIPOS>BOND
     1     1     2   ar
     2     1     5   ar
     3     1    12    1
     4     2     3   ar
     5     2     6    1
     6     3     4   ar
     7     4     5   ar
     8     6     7   ar
     9     6    11   ar
    10     7     8   ar
    11     8     9   ar
    12     9    10   ar
    13    10    11   ar
    14    12    13   ar
    15    12    17   ar
    16    13    14   ar
    17    14    15   ar
    18    15    16   ar
    19    15    18    1
    20    16    17   ar
