@<TRIPOS>MOLECULE
27731_ChemDiv_4073-0097
 23 25 0 0 0
SMALL
GASTEIGER
Energy = 0

@<TRIPOS>ATOM
      1 C          -0.9790    1.3670    0.0000 C.ar    1  LIG1        0.1685
      2 N          -0.0040    1.3670    0.0000 N.ar    1  LIG1       -0.2109
      3 C           0.5540    0.5380    0.0000 C.ar    1  LIG1        0.0813
      4 C           1.5630    0.6000    0.0000 C.ar    1  LIG1        0.0065
      5 C           2.1250   -0.2290    0.0000 C.ar    1  LIG1        0.0551
      6 CL          3.1170   -0.1330    0.0000 Cl      1  LIG1       -0.0825
      7 C           1.7040   -1.1540    0.0000 C.ar    1  LIG1        0.0112
      8 C           0.6960   -1.2080    0.0000 C.ar    1  LIG1        0.0024
      9 C           0.1250   -0.3710    0.0000 C.ar    1  LIG1        0.0189
     10 C           2.0080    1.4830    0.0000 C.3     1  LIG1        0.0335
     11 N           0.3290    2.3380    0.0000 N.ar    1  LIG1       -0.1410
     12 C          -0.4960    2.9040    0.0000 C.ar    1  LIG1        0.2213
     13 N          -1.3000    2.3130    0.0000 N.ar    1  LIG1       -0.2033
     14 C          -1.5460    0.5460    0.0000 C.ar    1  LIG1        0.0728
     15 C          -2.5500    0.6130    0.0000 C.ar    1  LIG1        0.1418
     16 C          -3.1210   -0.2000    0.0000 C.ar    1  LIG1        0.0401
     17 C          -2.6920   -1.1210    0.0000 C.ar    1  LIG1        0.0400
     18 C          -1.6960   -1.1880    0.0000 C.ar    1  LIG1        0.1390
     19 C          -1.1380   -0.3580    0.0000 C.ar    1  LIG1        0.0430
     20 O          -1.2540   -2.0830    0.0000 O.3     1  LIG1       -0.4714
     21 C          -1.8000   -2.9000    0.0000 C.3     1  LIG1        0.2525
     22 O          -2.9790    1.5040    0.0000 O.3     1  LIG1       -0.4713
     23 C          -2.4290    2.3250    0.0000 C.3     1  LIG1        0.2525
@<TRIPOS>BOND
     1     1     2   ar
     2     1    13   ar
     3     1    14    1
     4     2     3    1
     5     2    11   ar
     6     3     4   ar
     7     3     9   ar
     8     4     5   ar
     9     4    10    1
    10     5     6    1
    11     5     7   ar
    12     7     8   ar
    13     8     9   ar
    14    11    12   ar
    15    12    13   ar
    16    14    15   ar
    17    14    19   ar
    18    15    16   ar
    19    15    22    1
    20    16    17   ar
    21    17    18   ar
    22    18    19   ar
    23    18    20    1
    24    20    21    1
    25    22    23    1
