@<TRIPOS>MOLECULE
27746_ChemDiv_K815-0270
 18 20 0 0 0
SMALL
GASTEIGER
Energy = 0

@<TRIPOS>ATOM
      1 N           0.7790   -0.0750    0.0000 N.ar    1  LIG1       -0.3272
      2 C          -0.1750    0.2290    0.0000 C.ar    1  LIG1        0.0601
      3 C          -0.1750    1.2290    0.0000 C.ar    1  LIG1        0.0202
      4 C           0.7790    1.5500    0.0000 C.ar    1  LIG1        0.0173
      5 C           1.3710    0.7330    0.0000 C.ar    1  LIG1        0.0599
      6 C           2.3540    0.8420    0.0000 C.ar    1  LIG1        0.0172
      7 C           2.7630    1.7500    0.0000 C.ar    1  LIG1        0.0015
      8 C           2.1670    2.5630    0.0000 C.ar    1  LIG1        0.0001
      9 C           1.1830    2.4580    0.0000 C.ar    1  LIG1        0.0015
     10 C          -1.0420    1.7290    0.0000 C.ar    1  LIG1        0.0384
     11 C          -1.9040    1.2290    0.0000 C.ar    1  LIG1        0.1388
     12 C          -1.9040    0.2290    0.0000 C.ar    1  LIG1        0.0384
     13 C          -1.0420   -0.2710    0.0000 C.ar    1  LIG1        0.0203
     14 O          -2.7670    1.7290    0.0000 O.3     1  LIG1       -0.4714
     15 C          -2.7670    2.7290    0.0000 C.3     1  LIG1        0.2525
     16 C           1.0920   -1.0290    0.0000 C.3     1  LIG1        0.1060
     17 C           0.4250   -1.7710    0.0000 C.3     1  LIG1        0.0245
     18 C           0.7330   -2.7250    0.0000 C.3     1  LIG1        0.0021
@<TRIPOS>BOND
     1     1     2   ar
     2     1     5   ar
     3     1    16    1
     4     2     3   ar
     5     2    13   ar
     6     3     4   ar
     7     3    10   ar
     8     4     5   ar
     9     4     9   ar
    10     5     6   ar
    11     6     7   ar
    12     7     8   ar
    13     8     9   ar
    14    10    11   ar
    15    11    12   ar
    16    11    14    1
    17    12    13   ar
    18    14    15    1
    19    16    17    1
    20    17    18    1
