@<TRIPOS>MOLECULE
27750_ChemDiv_2389-2811
 26 28 0 0 0
SMALL
GASTEIGER
Energy = 0

@<TRIPOS>ATOM
      1 C          -0.0250   -0.4830    0.0000 C.2     1  LIG1        0.2687
      2 N           0.8380   -1.0080    0.0000 N.am    1  LIG1       -0.1753
      3 C           1.7130   -1.5000    0.0000 C.ar    1  LIG1        0.0781
      4 C           1.7130   -2.5000    0.0000 C.ar    1  LIG1        0.0720
      5 C           0.8380   -3.0080    0.0000 C.2     1  LIG1        0.2854
      6 O          -0.0250   -2.5000    0.0000 O.2     1  LIG1       -0.2666
      7 N           0.8380   -4.0000    0.0000 N.am    1  LIG1       -0.0837
      8 C           2.5750   -3.0080    0.0000 C.ar    1  LIG1        0.0059
      9 C           3.4460   -2.5000    0.0000 C.ar    1  LIG1        0.0002
     10 C           3.4460   -1.4920    0.0000 C.ar    1  LIG1        0.0013
     11 C           2.5750   -0.9920    0.0000 C.ar    1  LIG1        0.0168
     12 C          -0.8750   -0.9920    0.0000 C.ar    1  LIG1        0.0514
     13 C          -1.7250   -0.4960    0.0000 C.ar    1  LIG1       -0.0174
     14 C          -1.7250    0.4880    0.0000 C.3     1  LIG1        0.0312
     15 C          -2.6000    0.9920    0.0000 C.3     1  LIG1        0.0310
     16 C          -2.5920    2.0040    0.0000 C.ar    1  LIG1       -0.0218
     17 C          -3.4500    2.5040    0.0000 C.ar    1  LIG1       -0.0043
     18 C          -3.4500    3.5040    0.0000 C.ar    1  LIG1       -0.0003
     19 C          -2.5750    4.0000    0.0000 C.ar    1  LIG1       -0.0000
     20 C          -1.7080    3.5040    0.0000 C.ar    1  LIG1       -0.0003
     21 C          -1.7210    2.5040    0.0000 C.ar    1  LIG1       -0.0043
     22 C          -2.6000   -0.9920    0.0000 C.ar    1  LIG1       -0.0041
     23 C          -2.6170   -1.9830    0.0000 C.ar    1  LIG1       -0.0003
     24 C          -1.7540   -2.4830    0.0000 C.ar    1  LIG1        0.0001
     25 C          -0.8750   -1.9830    0.0000 C.ar    1  LIG1        0.0043
     26 O          -0.0250    0.5040    0.0000 O.2     1  LIG1       -0.2680
@<TRIPOS>BOND
     1     1     2   am
     2     1    12    1
     3     1    26    2
     4     2     3    1
     5     3     4   ar
     6     3    11   ar
     7     4     5    1
     8     4     8   ar
     9     5     6    2
    10     5     7   am
    11     8     9   ar
    12     9    10   ar
    13    10    11   ar
    14    12    13   ar
    15    12    25   ar
    16    13    14    1
    17    13    22   ar
    18    14    15    1
    19    15    16    1
    20    16    17   ar
    21    16    21   ar
    22    17    18   ar
    23    18    19   ar
    24    19    20   ar
    25    20    21   ar
    26    22    23   ar
    27    23    24   ar
    28    24    25   ar
