@<TRIPOS>MOLECULE
27761_ChemDiv_4606-1873
 33 37 0 0 0
SMALL
GASTEIGER
Energy = 0

@<TRIPOS>ATOM
      1 S           2.9540    0.6630    0.0000 S.O2    1  LIG1       -0.0559
      2 N           3.6040    1.4000    0.0000 N.pl3   1  LIG1       -0.5049
      3 C           3.2750    2.3750    0.0000 C.ar    1  LIG1        0.0590
      4 N           3.9460    3.1420    0.0000 N.ar    1  LIG1       -0.2485
      5 C           3.6040    4.1040    0.0000 C.ar    1  LIG1        0.1000
      6 C           2.6210    4.2880    0.0000 C.ar    1  LIG1        0.0412
      7 C           1.9880    3.5330    0.0000 C.ar    1  LIG1        0.1000
      8 N           2.3000    2.5630    0.0000 N.ar    1  LIG1       -0.2485
      9 C           2.3000   -0.0960    0.0000 C.ar    1  LIG1        0.0894
     10 C           1.3420    0.0880    0.0000 C.ar    1  LIG1        0.0182
     11 C           0.7130   -0.6710    0.0000 C.ar    1  LIG1        0.0179
     12 C           1.0710   -1.6420    0.0000 C.ar    1  LIG1        0.0735
     13 N           0.4290   -2.4290    0.0000 N.am    1  LIG1       -0.1787
     14 C          -0.5670   -2.4290    0.0000 C.2     1  LIG1        0.2535
     15 C          -1.5250   -1.9380    0.0000 C.3     1  LIG1        0.1287
     16 C          -2.2420   -2.6080    0.0000 C.ar    1  LIG1        0.0250
     17 C          -3.1960   -2.3040    0.0000 C.ar    1  LIG1        0.1420
     18 O          -3.4000   -1.3540    0.0000 O.3     1  LIG1       -0.4541
     19 C          -2.6500   -0.6790    0.0000 C.ar    1  LIG1        0.1420
     20 C          -1.7380   -0.9750    0.0000 C.ar    1  LIG1        0.0250
     21 C          -0.9710   -0.3130    0.0000 C.ar    1  LIG1       -0.0005
     22 C          -1.1880    0.6880    0.0000 C.ar    1  LIG1       -0.0001
     23 C          -2.1460    1.0040    0.0000 C.ar    1  LIG1        0.0031
     24 C          -2.8460    0.3170    0.0000 C.ar    1  LIG1        0.0372
     25 C          -3.9500   -2.9790    0.0000 C.ar    1  LIG1        0.0372
     26 C          -3.7380   -3.9830    0.0000 C.ar    1  LIG1        0.0031
     27 C          -2.7710   -4.2880    0.0000 C.ar    1  LIG1       -0.0001
     28 C          -2.0380   -3.6130    0.0000 C.ar    1  LIG1       -0.0005
     29 O          -0.7830   -3.3040    0.0000 O.2     1  LIG1       -0.2723
     30 C           2.0330   -1.8080    0.0000 C.ar    1  LIG1        0.0179
     31 C           2.6420   -1.0170    0.0000 C.ar    1  LIG1        0.0182
     32 O           2.2000    1.2710    0.0000 O.2     1  LIG1       -0.1841
     33 O           3.7330    0.0250    0.0000 O.2     1  LIG1       -0.1841
@<TRIPOS>BOND
     1     1     2    1
     2     1     9    1
     3     1    32    2
     4     1    33    2
     5     2     3    1
     6     3     4   ar
     7     3     8   ar
     8     4     5   ar
     9     5     6   ar
    10     6     7   ar
    11     7     8   ar
    12     9    10   ar
    13     9    31   ar
    14    10    11   ar
    15    11    12   ar
    16    12    13    1
    17    12    30   ar
    18    13    14   am
    19    14    15    1
    20    14    29    2
    21    15    16    1
    22    15    20    1
    23    16    17   ar
    24    16    28   ar
    25    17    18    1
    26    17    25   ar
    27    18    19    1
    28    19    20   ar
    29    19    24   ar
    30    20    21   ar
    31    21    22   ar
    32    22    23   ar
    33    23    24   ar
    34    25    26   ar
    35    26    27   ar
    36    27    28   ar
    37    30    31   ar
