@<TRIPOS>MOLECULE
27765_ChemDiv_5298-0467
 31 34 0 0 0
SMALL
GASTEIGER
Energy = 0

@<TRIPOS>ATOM
      1 S           2.9830    0.6960    0.0000 S.O2    1  LIG1        0.0767
      2 N           3.8670    1.1880    0.0000 N.3     1  LIG1       -0.0807
      3 C           3.8670    2.1750    0.0000 C.3     1  LIG1        0.0827
      4 C           3.8670    3.1630    0.0000 C.3     1  LIG1        0.0194
      5 C           2.8750    2.1750    0.0000 C.3     1  LIG1        0.0194
      6 C           4.8580    2.1750    0.0000 C.3     1  LIG1        0.0194
      7 C           2.1210    0.1540    0.0000 C.ar    1  LIG1        0.1236
      8 C           2.1210   -0.8330    0.0000 C.ar    1  LIG1        0.0213
      9 C           1.2540   -1.3210    0.0000 C.ar    1  LIG1        0.0180
     10 C           0.4040   -0.8000    0.0000 C.ar    1  LIG1        0.0735
     11 N          -0.4830   -1.3000    0.0000 N.am    1  LIG1       -0.1787
     12 C          -1.4790   -1.3000    0.0000 C.2     1  LIG1        0.2535
     13 C          -2.4380   -0.8080    0.0000 C.3     1  LIG1        0.1287
     14 C          -2.6540    0.1540    0.0000 C.ar    1  LIG1        0.0250
     15 C          -3.5630    0.4500    0.0000 C.ar    1  LIG1        0.1420
     16 O          -4.3170   -0.2210    0.0000 O.3     1  LIG1       -0.4541
     17 C          -4.1130   -1.1750    0.0000 C.ar    1  LIG1        0.1420
     18 C          -3.1580   -1.4790    0.0000 C.ar    1  LIG1        0.0250
     19 C          -2.9500   -2.4830    0.0000 C.ar    1  LIG1       -0.0005
     20 C          -3.6880   -3.1580    0.0000 C.ar    1  LIG1       -0.0001
     21 C          -4.6500   -2.8540    0.0000 C.ar    1  LIG1        0.0031
     22 C          -4.8630   -1.8500    0.0000 C.ar    1  LIG1        0.0372
     23 C          -3.7580    1.4500    0.0000 C.ar    1  LIG1        0.0372
     24 C          -3.0630    2.1380    0.0000 C.ar    1  LIG1        0.0031
     25 C          -2.1000    1.8210    0.0000 C.ar    1  LIG1       -0.0001
     26 C          -1.8830    0.8210    0.0000 C.ar    1  LIG1       -0.0005
     27 O          -1.6960   -2.1750    0.0000 O.2     1  LIG1       -0.2723
     28 C           0.4040    0.1920    0.0000 C.ar    1  LIG1        0.0180
     29 C           1.2540    0.6540    0.0000 C.ar    1  LIG1        0.0213
     30 O           3.5170   -0.2040    0.0000 O.2     1  LIG1       -0.1516
     31 O           2.4750    1.5500    0.0000 O.2     1  LIG1       -0.1516
@<TRIPOS>BOND
     1     1     2    1
     2     1     7    1
     3     1    30    2
     4     1    31    2
     5     2     3    1
     6     3     4    1
     7     3     5    1
     8     3     6    1
     9     7     8   ar
    10     7    29   ar
    11     8     9   ar
    12     9    10   ar
    13    10    11    1
    14    10    28   ar
    15    11    12   am
    16    12    13    1
    17    12    27    2
    18    13    14    1
    19    13    18    1
    20    14    15   ar
    21    14    26   ar
    22    15    16    1
    23    15    23   ar
    24    16    17    1
    25    17    18   ar
    26    17    22   ar
    27    18    19   ar
    28    19    20   ar
    29    20    21   ar
    30    21    22   ar
    31    23    24   ar
    32    24    25   ar
    33    25    26   ar
    34    28    29   ar
