@<TRIPOS>MOLECULE
27767_ChemDiv_5628-0698
 33 36 0 0 0
SMALL
GASTEIGER
Energy = 0

@<TRIPOS>ATOM
      1 S           2.6960   -0.4630    0.0000 S.O2    1  LIG1        0.0633
      2 C           1.7080   -0.2460    0.0000 C.ar    1  LIG1        0.1223
      3 C           1.4170    0.6920    0.0000 C.ar    1  LIG1        0.0212
      4 C           0.4460    0.9330    0.0000 C.ar    1  LIG1        0.0180
      5 C          -0.2420    0.1920    0.0000 C.ar    1  LIG1        0.0735
      6 N          -1.2000    0.4130    0.0000 N.am    1  LIG1       -0.1787
      7 C          -1.8960   -0.3130    0.0000 C.2     1  LIG1        0.2535
      8 C          -2.8710   -0.0710    0.0000 C.3     1  LIG1        0.1287
      9 C          -3.5830   -0.7880    0.0000 C.ar    1  LIG1        0.0250
     10 C          -4.5420   -0.5460    0.0000 C.ar    1  LIG1        0.1420
     11 O          -4.8170    0.4330    0.0000 O.3     1  LIG1       -0.4541
     12 C          -4.1040    1.1250    0.0000 C.ar    1  LIG1        0.1420
     13 C          -3.1290    0.8880    0.0000 C.ar    1  LIG1        0.0250
     14 C          -2.4330    1.6000    0.0000 C.ar    1  LIG1       -0.0005
     15 C          -2.6960    2.5630    0.0000 C.ar    1  LIG1       -0.0001
     16 C          -3.6670    2.8000    0.0000 C.ar    1  LIG1        0.0031
     17 C          -4.3830    2.1000    0.0000 C.ar    1  LIG1        0.0372
     18 C          -5.2540   -1.2710    0.0000 C.ar    1  LIG1        0.0372
     19 C          -4.9920   -2.2250    0.0000 C.ar    1  LIG1        0.0031
     20 C          -4.0210   -2.4710    0.0000 C.ar    1  LIG1       -0.0001
     21 C          -3.3040   -1.7710    0.0000 C.ar    1  LIG1       -0.0005
     22 O          -1.6040   -1.2710    0.0000 O.2     1  LIG1       -0.2723
     23 C           0.0670   -0.7670    0.0000 C.ar    1  LIG1        0.0180
     24 C           1.0380   -0.9830    0.0000 C.ar    1  LIG1        0.0212
     25 N           3.6670   -0.6790    0.0000 N.3     1  LIG1       -0.1555
     26 C           4.3330    0.0380    0.0000 C.3     1  LIG1        0.0958
     27 C           4.0420    0.9790    0.0000 C.3     1  LIG1        0.0191
     28 C           4.7130    1.7130    0.0000 C.3     1  LIG1        0.0015
     29 C           3.9710   -1.6170    0.0000 C.3     1  LIG1        0.0958
     30 C           4.9460   -1.8380    0.0000 C.3     1  LIG1        0.0191
     31 C           5.2500   -2.7960    0.0000 C.3     1  LIG1        0.0015
     32 O           2.4790   -1.4420    0.0000 O.2     1  LIG1       -0.1528
     33 O           2.9130    0.5210    0.0000 O.2     1  LIG1       -0.1528
@<TRIPOS>BOND
     1     1     2    1
     2     1    25    1
     3     1    32    2
     4     1    33    2
     5     2     3   ar
     6     2    24   ar
     7     3     4   ar
     8     4     5   ar
     9     5     6    1
    10     5    23   ar
    11     6     7   am
    12     7     8    1
    13     7    22    2
    14     8     9    1
    15     8    13    1
    16     9    10   ar
    17     9    21   ar
    18    10    11    1
    19    10    18   ar
    20    11    12    1
    21    12    13   ar
    22    12    17   ar
    23    13    14   ar
    24    14    15   ar
    25    15    16   ar
    26    16    17   ar
    27    18    19   ar
    28    19    20   ar
    29    20    21   ar
    30    23    24   ar
    31    25    26    1
    32    25    29    1
    33    26    27    1
    34    27    28    1
    35    29    30    1
    36    30    31    1
