@<TRIPOS>MOLECULE
27763_ChemDiv_4606-1892
 32 36 0 0 0
SMALL
GASTEIGER
Energy = 0

@<TRIPOS>ATOM
      1 S           2.3130    1.2420    0.0000 S.O2    1  LIG1        0.0634
      2 N           2.9380    2.0500    0.0000 N.3     1  LIG1       -0.1504
      3 C           3.9080    1.9080    0.0000 C.3     1  LIG1        0.1279
      4 C           4.5380    2.7250    0.0000 C.3     1  LIG1        0.1613
      5 O           4.1500    3.6250    0.0000 O.3     1  LIG1       -0.3507
      6 C           3.1540    3.7500    0.0000 C.3     1  LIG1        0.1613
      7 C           2.5420    2.9880    0.0000 C.3     1  LIG1        0.1279
      8 C           1.7000    0.4750    0.0000 C.ar    1  LIG1        0.1223
      9 C           2.0750   -0.4630    0.0000 C.ar    1  LIG1        0.0212
     10 C           1.4540   -1.2380    0.0000 C.ar    1  LIG1        0.0180
     11 C           0.4630   -1.1080    0.0000 C.ar    1  LIG1        0.0735
     12 N          -0.1630   -1.8880    0.0000 N.am    1  LIG1       -0.1787
     13 C          -1.1580   -1.8880    0.0000 C.2     1  LIG1        0.2535
     14 C          -2.1170   -1.3960    0.0000 C.3     1  LIG1        0.1287
     15 C          -2.3330   -0.4330    0.0000 C.ar    1  LIG1        0.0250
     16 C          -3.2420   -0.1380    0.0000 C.ar    1  LIG1        0.1420
     17 O          -3.9960   -0.8130    0.0000 O.3     1  LIG1       -0.4541
     18 C          -3.7920   -1.7630    0.0000 C.ar    1  LIG1        0.1420
     19 C          -2.8380   -2.0670    0.0000 C.ar    1  LIG1        0.0250
     20 C          -2.6290   -3.0710    0.0000 C.ar    1  LIG1       -0.0005
     21 C          -3.3670   -3.7460    0.0000 C.ar    1  LIG1       -0.0001
     22 C          -4.3290   -3.4420    0.0000 C.ar    1  LIG1        0.0031
     23 C          -4.5420   -2.4380    0.0000 C.ar    1  LIG1        0.0372
     24 C          -3.4380    0.8580    0.0000 C.ar    1  LIG1        0.0372
     25 C          -2.7420    1.5500    0.0000 C.ar    1  LIG1        0.0031
     26 C          -1.7790    1.2290    0.0000 C.ar    1  LIG1       -0.0001
     27 C          -1.5630    0.2290    0.0000 C.ar    1  LIG1       -0.0005
     28 O          -1.3750   -2.7580    0.0000 O.2     1  LIG1       -0.2723
     29 C           0.1000   -0.1750    0.0000 C.ar    1  LIG1        0.0180
     30 C           0.7130    0.6080    0.0000 C.ar    1  LIG1        0.0212
     31 O           3.1080    0.6460    0.0000 O.2     1  LIG1       -0.1528
     32 O           1.5210    1.8750    0.0000 O.2     1  LIG1       -0.1528
@<TRIPOS>BOND
     1     1     2    1
     2     1     8    1
     3     1    31    2
     4     1    32    2
     5     2     3    1
     6     2     7    1
     7     3     4    1
     8     4     5    1
     9     5     6    1
    10     6     7    1
    11     8     9   ar
    12     8    30   ar
    13     9    10   ar
    14    10    11   ar
    15    11    12    1
    16    11    29   ar
    17    12    13   am
    18    13    14    1
    19    13    28    2
    20    14    15    1
    21    14    19    1
    22    15    16   ar
    23    15    27   ar
    24    16    17    1
    25    16    24   ar
    26    17    18    1
    27    18    19   ar
    28    18    23   ar
    29    19    20   ar
    30    20    21   ar
    31    21    22   ar
    32    22    23   ar
    33    24    25   ar
    34    25    26   ar
    35    26    27   ar
    36    29    30   ar
