@<TRIPOS>MOLECULE
27769_ChemDiv_6049-1659
 26 30 0 0 0
SMALL
GASTEIGER
Energy = 0

@<TRIPOS>ATOM
      1 C           0.3040    0.0250    0.0000 C.2     1  LIG1        0.2535
      2 C           0.8000   -0.8290    0.0000 C.3     1  LIG1        0.1287
      3 C           1.7920   -0.8290    0.0000 C.ar    1  LIG1        0.0250
      4 C           2.3040   -1.6960    0.0000 C.ar    1  LIG1        0.1420
      5 O           1.7920   -2.5500    0.0000 O.3     1  LIG1       -0.4541
      6 C           0.8130   -2.5500    0.0000 C.ar    1  LIG1        0.1420
      7 C           0.3040   -1.6790    0.0000 C.ar    1  LIG1        0.0250
      8 C          -0.6880   -1.6790    0.0000 C.ar    1  LIG1       -0.0005
      9 C          -1.2000   -2.5420    0.0000 C.ar    1  LIG1       -0.0001
     10 C          -0.6880   -3.4130    0.0000 C.ar    1  LIG1        0.0031
     11 C           0.3170   -3.4130    0.0000 C.ar    1  LIG1        0.0372
     12 C           3.2750   -1.7080    0.0000 C.ar    1  LIG1        0.0372
     13 C           3.7790   -0.8540    0.0000 C.ar    1  LIG1        0.0031
     14 C           3.2750    0.0170    0.0000 C.ar    1  LIG1       -0.0001
     15 C           2.2630    0.0170    0.0000 C.ar    1  LIG1       -0.0005
     16 N          -0.7040    0.0250    0.0000 N.am    1  LIG1       -0.1786
     17 C          -1.2000    0.8920    0.0000 C.ar    1  LIG1        0.0766
     18 C          -2.2040    0.8920    0.0000 C.ar    1  LIG1        0.0568
     19 C          -2.7040    1.7790    0.0000 C.ar    1  LIG1        0.1777
     20 C          -2.2040    2.6460    0.0000 C.ar    1  LIG1        0.1765
     21 O          -2.8790    3.4170    0.0000 O.3     1  LIG1       -0.4346
     22 C          -3.7830    3.0000    0.0000 C.3     1  LIG1        0.4294
     23 O          -3.6960    1.9920    0.0000 O.3     1  LIG1       -0.4346
     24 C          -1.2000    2.6460    0.0000 C.ar    1  LIG1        0.0415
     25 C          -0.7040    1.7630    0.0000 C.ar    1  LIG1        0.0199
     26 O           0.8130    0.8920    0.0000 O.2     1  LIG1       -0.2723
@<TRIPOS>BOND
     1     1     2    1
     2     1    16   am
     3     1    26    2
     4     2     3    1
     5     2     7    1
     6     3     4   ar
     7     3    15   ar
     8     4     5    1
     9     4    12   ar
    10     5     6    1
    11     6     7   ar
    12     6    11   ar
    13     7     8   ar
    14     8     9   ar
    15     9    10   ar
    16    10    11   ar
    17    12    13   ar
    18    13    14   ar
    19    14    15   ar
    20    16    17    1
    21    17    18   ar
    22    17    25   ar
    23    18    19   ar
    24    19    20   ar
    25    19    23    1
    26    20    21    1
    27    20    24   ar
    28    21    22    1
    29    22    23    1
    30    24    25   ar
