@<TRIPOS>MOLECULE
27776_ChemDiv_D161-1994
 20 22 0 0 0
SMALL
GASTEIGER
Energy = 0

@<TRIPOS>ATOM
      1 N           0.6960    1.3000    0.0000 N.ar    1  LIG1       -0.2464
      2 N           1.2830    2.1170    0.0000 N.ar    1  LIG1       -0.1674
      3 C           0.6960    2.9210    0.0000 C.ar    1  LIG1        0.1216
      4 C          -0.2580    2.6040    0.0000 C.ar    1  LIG1        0.0382
      5 C          -0.2580    1.6000    0.0000 C.ar    1  LIG1        0.0798
      6 C          -1.1250    1.1000    0.0000 C.ar    1  LIG1        0.0188
      7 C          -1.9880    1.6000    0.0000 C.ar    1  LIG1        0.0015
      8 C          -1.9880    2.6040    0.0000 C.ar    1  LIG1        0.0001
      9 C          -1.1250    3.1040    0.0000 C.ar    1  LIG1        0.0031
     10 C           1.0130    0.3500    0.0000 C.3     1  LIG1        0.1531
     11 C           0.5130   -0.5130    0.0000 C.ar    1  LIG1       -0.0064
     12 C          -0.4920   -0.4960    0.0000 C.ar    1  LIG1       -0.0282
     13 C          -1.0000   -1.3580    0.0000 C.ar    1  LIG1       -0.0264
     14 C          -0.5000   -2.2290    0.0000 C.ar    1  LIG1       -0.0092
     15 C           0.4960   -2.2290    0.0000 C.ar    1  LIG1       -0.0264
     16 C           0.9960   -1.3670    0.0000 C.ar    1  LIG1       -0.0282
     17 C           1.9960   -1.3750    0.0000 C.3     1  LIG1        0.0304
     18 C           0.9960   -3.1000    0.0000 C.3     1  LIG1        0.0307
     19 C          -2.0000   -1.3500    0.0000 C.3     1  LIG1        0.0307
     20 C          -0.9880    0.3750    0.0000 C.3     1  LIG1        0.0304
@<TRIPOS>BOND
     1     1     2   ar
     2     1     5   ar
     3     1    10    1
     4     2     3   ar
     5     3     4   ar
     6     4     5   ar
     7     4     9   ar
     8     5     6   ar
     9     6     7   ar
    10     7     8   ar
    11     8     9   ar
    12    10    11    1
    13    11    12   ar
    14    11    16   ar
    15    12    13   ar
    16    12    20    1
    17    13    14   ar
    18    13    19    1
    19    14    15   ar
    20    15    16   ar
    21    15    18    1
    22    16    17    1
