@<TRIPOS>MOLECULE
27775_ChemDiv_8016-1822
 27 30 0 0 0
SMALL
GASTEIGER
Energy = 0

@<TRIPOS>ATOM
      1 C          -1.7330    0.5000    0.0000 C.3     1  LIG1        0.0597
      2 C          -1.7330   -0.4960    0.0000 C.ar    1  LIG1        0.0167
      3 C          -2.5960   -0.9960    0.0000 C.ar    1  LIG1        0.1416
      4 O          -3.4710   -0.4960    0.0000 O.3     1  LIG1       -0.4541
      5 C          -3.4710    0.5000    0.0000 C.ar    1  LIG1        0.1416
      6 C          -2.5960    1.0080    0.0000 C.ar    1  LIG1        0.0167
      7 C          -2.5960    2.0080    0.0000 C.ar    1  LIG1       -0.0009
      8 C          -3.4710    2.5000    0.0000 C.ar    1  LIG1       -0.0001
      9 C          -4.3330    2.0080    0.0000 C.ar    1  LIG1        0.0031
     10 C          -4.3330    1.0080    0.0000 C.ar    1  LIG1        0.0372
     11 C          -2.5960   -1.9960    0.0000 C.ar    1  LIG1        0.0372
     12 C          -1.7330   -2.4960    0.0000 C.ar    1  LIG1        0.0031
     13 C          -0.8710   -1.9960    0.0000 C.ar    1  LIG1       -0.0001
     14 C          -0.8710   -0.9960    0.0000 C.ar    1  LIG1       -0.0009
     15 C          -0.8710    1.0080    0.0000 C.3     1  LIG1        0.0961
     16 C           0.0000    0.5000    0.0000 C.2     1  LIG1        0.2463
     17 N           0.8670    1.0080    0.0000 N.am    1  LIG1       -0.1783
     18 C           1.7380    0.5000    0.0000 C.ar    1  LIG1        0.0829
     19 C           1.7380   -0.4960    0.0000 C.ar    1  LIG1        0.0739
     20 N           2.6000   -0.9960    0.0000 N.ar    1  LIG1       -0.2527
     21 C           3.4670   -0.4960    0.0000 C.ar    1  LIG1        0.0587
     22 C           3.4670    0.5000    0.0000 C.ar    1  LIG1        0.0118
     23 C           2.6000    1.0080    0.0000 C.ar    1  LIG1       -0.0042
     24 C           2.6000    2.0080    0.0000 C.3     1  LIG1        0.0325
     25 C           4.3290   -0.9960    0.0000 C.3     1  LIG1        0.0521
     26 C           0.8670   -0.9960    0.0000 C.3     1  LIG1        0.0535
     27 O           0.0000   -0.4960    0.0000 O.2     1  LIG1       -0.2730
@<TRIPOS>BOND
     1     1     2    1
     2     1     6    1
     3     1    15    1
     4     2     3   ar
     5     2    14   ar
     6     3     4    1
     7     3    11   ar
     8     4     5    1
     9     5     6   ar
    10     5    10   ar
    11     6     7   ar
    12     7     8   ar
    13     8     9   ar
    14     9    10   ar
    15    11    12   ar
    16    12    13   ar
    17    13    14   ar
    18    15    16    1
    19    16    17   am
    20    16    27    2
    21    17    18    1
    22    18    19   ar
    23    18    23   ar
    24    19    20   ar
    25    19    26    1
    26    20    21   ar
    27    21    22   ar
    28    21    25    1
    29    22    23   ar
    30    23    24    1
