@<TRIPOS>MOLECULE
27771_ChemDiv_6049-2022
 28 32 0 0 0
SMALL
GASTEIGER
Energy = 0

@<TRIPOS>ATOM
      1 C           0.4210    0.4880    0.0000 C.2     1  LIG1        0.2535
      2 C           1.3170   -0.0500    0.0000 C.3     1  LIG1        0.1287
      3 C           1.3170   -1.0460    0.0000 C.ar    1  LIG1        0.0250
      4 C           2.1750   -1.5540    0.0000 C.ar    1  LIG1        0.1420
      5 O           3.0420   -1.0460    0.0000 O.3     1  LIG1       -0.4541
      6 C           3.0420   -0.0500    0.0000 C.ar    1  LIG1        0.1420
      7 C           2.1750    0.4630    0.0000 C.ar    1  LIG1        0.0250
      8 C           2.1750    1.4580    0.0000 C.ar    1  LIG1       -0.0005
      9 C           3.0420    1.9540    0.0000 C.ar    1  LIG1       -0.0001
     10 C           3.9170    1.4330    0.0000 C.ar    1  LIG1        0.0031
     11 C           3.9170    0.4210    0.0000 C.ar    1  LIG1        0.0372
     12 C           2.1750   -2.5540    0.0000 C.ar    1  LIG1        0.0372
     13 C           1.3170   -3.0500    0.0000 C.ar    1  LIG1        0.0031
     14 C           0.4420   -2.5250    0.0000 C.ar    1  LIG1       -0.0001
     15 C           0.4420   -1.5170    0.0000 C.ar    1  LIG1       -0.0005
     16 N          -0.4460    0.0170    0.0000 N.am    1  LIG1       -0.1783
     17 C          -1.2790    0.5460    0.0000 C.ar    1  LIG1        0.0851
     18 C          -2.1540    0.0710    0.0000 C.ar    1  LIG1        0.0857
     19 C          -2.9830    0.6000    0.0000 C.ar    1  LIG1        0.2974
     20 N          -2.9500    1.6080    0.0000 N.ar    1  LIG1        0.0713
     21 C          -2.0710    2.0750    0.0000 C.ar    1  LIG1        0.2759
     22 C          -1.2380    1.5460    0.0000 C.ar    1  LIG1        0.0881
     23 C          -2.0460    3.0540    0.0000 C.3     1  LIG1        0.1152
     24 C          -3.8750    0.1500    0.0000 C.ar    1  LIG1        0.0762
     25 C          -3.9210   -0.8290    0.0000 C.ar    1  LIG1        0.0063
     26 C          -3.0710   -1.3670    0.0000 C.ar    1  LIG1        0.0004
     27 C          -2.1790   -0.9130    0.0000 C.ar    1  LIG1        0.0075
     28 O           0.4210    1.5130    0.0000 O.2     1  LIG1       -0.2723
@<TRIPOS>BOND
     1     1     2    1
     2     1    16   am
     3     1    28    2
     4     2     3    1
     5     2     7    1
     6     3     4   ar
     7     3    15   ar
     8     4     5    1
     9     4    12   ar
    10     5     6    1
    11     6     7   ar
    12     6    11   ar
    13     7     8   ar
    14     8     9   ar
    15     9    10   ar
    16    10    11   ar
    17    12    13   ar
    18    13    14   ar
    19    14    15   ar
    20    16    17    1
    21    17    18   ar
    22    17    22   ar
    23    18    19   ar
    24    18    27   ar
    25    19    20   ar
    26    19    24   ar
    27    20    21   ar
    28    21    22   ar
    29    21    23    1
    30    24    25   ar
    31    25    26   ar
    32    26    27   ar
