@<TRIPOS>MOLECULE
27773_ChemDiv_8009-3626
 24 27 0 0 0
SMALL
GASTEIGER
Energy = 0

@<TRIPOS>ATOM
      1 C           0.0000    1.2750    0.0000 C.3     1  LIG1        0.0597
      2 C          -0.8630    1.7670    0.0000 C.ar    1  LIG1        0.0167
      3 C          -0.8630    2.7460    0.0000 C.ar    1  LIG1        0.1416
      4 O           0.0000    3.2420    0.0000 O.3     1  LIG1       -0.4541
      5 C           0.8670    2.7460    0.0000 C.ar    1  LIG1        0.1416
      6 C           0.8670    1.7670    0.0000 C.ar    1  LIG1        0.0167
      7 C           1.7290    1.2750    0.0000 C.ar    1  LIG1       -0.0009
      8 C           2.5960    1.7670    0.0000 C.ar    1  LIG1       -0.0001
      9 C           2.5960    2.7460    0.0000 C.ar    1  LIG1        0.0031
     10 C           1.7290    3.2420    0.0000 C.ar    1  LIG1        0.0372
     11 C          -1.7330    3.2420    0.0000 C.ar    1  LIG1        0.0372
     12 C          -2.6000    2.7460    0.0000 C.ar    1  LIG1        0.0031
     13 C          -2.6000    1.7670    0.0000 C.ar    1  LIG1       -0.0001
     14 C          -1.7330    1.2750    0.0000 C.ar    1  LIG1       -0.0009
     15 C           0.0000    0.2830    0.0000 C.3     1  LIG1        0.0961
     16 C           0.8460   -0.2040    0.0000 C.2     1  LIG1        0.2475
     17 N           0.8460   -1.2080    0.0000 N.am    1  LIG1       -0.1604
     18 C          -0.0420   -1.7170    0.0000 C.ar    1  LIG1        0.1545
     19 N          -0.9380   -1.2080    0.0000 N.ar    1  LIG1       -0.2273
     20 C          -1.8080   -1.7170    0.0000 C.ar    1  LIG1        0.1004
     21 C          -1.8210   -2.7500    0.0000 C.ar    1  LIG1        0.0208
     22 C          -0.9380   -3.2380    0.0000 C.ar    1  LIG1        0.0045
     23 C          -0.0420   -2.7500    0.0000 C.ar    1  LIG1        0.0362
     24 O           1.7000    0.3000    0.0000 O.2     1  LIG1       -0.2729
@<TRIPOS>BOND
     1     1     2    1
     2     1     6    1
     3     1    15    1
     4     2     3   ar
     5     2    14   ar
     6     3     4    1
     7     3    11   ar
     8     4     5    1
     9     5     6   ar
    10     5    10   ar
    11     6     7   ar
    12     7     8   ar
    13     8     9   ar
    14     9    10   ar
    15    11    12   ar
    16    12    13   ar
    17    13    14   ar
    18    15    16    1
    19    16    17   am
    20    16    24    2
    21    17    18    1
    22    18    19   ar
    23    18    23   ar
    24    19    20   ar
    25    20    21   ar
    26    21    22   ar
    27    22    23   ar
