@<TRIPOS>MOLECULE
27779_ChemDiv_3453-0616
 27 30 0 0 0
SMALL
GASTEIGER
Energy = 0

@<TRIPOS>ATOM
      1 C           0.8670   -0.7420    0.0000 C.ar    1  LIG1        0.0795
      2 C          -0.0210   -1.2540    0.0000 C.ar    1  LIG1        0.2016
      3 C          -0.8710   -0.7420    0.0000 C.ar    1  LIG1        0.0736
      4 C          -0.8710    0.2630    0.0000 C.ar    1  LIG1        0.1531
      5 C          -1.7420    0.7710    0.0000 C.ar    1  LIG1        0.1077
      6 C          -1.7420    1.7630    0.0000 C.3     1  LIG1        0.1725
      7 N          -0.8710    2.2630    0.0000 N.4     1  LIG1        0.3808
      8 C          -0.0080    1.7630    0.0000 C.3     1  LIG1        0.1390
      9 C           0.8420    2.2630    0.0000 C.3     1  LIG1        0.0629
     10 C           0.8420    3.2580    0.0000 C.3     1  LIG1        0.0123
     11 C          -0.0210    3.7580    0.0000 C.3     1  LIG1        0.0629
     12 C          -0.8710    3.2580    0.0000 C.3     1  LIG1        0.1390
     13 C          -2.6040    0.2630    0.0000 C.ar    1  LIG1        0.2002
     14 C          -2.6040   -0.7290    0.0000 C.ar    1  LIG1        0.0422
     15 C          -1.7420   -1.2290    0.0000 C.ar    1  LIG1        0.0095
     16 O          -3.4630    0.7710    0.0000 O.3     1  LIG1       -0.2866
     17 O          -0.0080    0.7880    0.0000 O.2     1  LIG1       -0.4502
     18 C           0.8670    0.2630    0.0000 C.ar    1  LIG1        0.1827
     19 O          -0.0210   -2.2420    0.0000 O.2     1  LIG1       -0.2864
     20 C           1.7170   -1.2540    0.0000 C.ar    1  LIG1        0.0401
     21 C           1.7170   -2.2420    0.0000 C.ar    1  LIG1        0.1388
     22 O           0.8500   -2.7420    0.0000 O.3     1  LIG1       -0.4714
     23 C           0.8500   -3.7540    0.0000 C.3     1  LIG1        0.2525
     24 C           2.5830   -2.7420    0.0000 C.ar    1  LIG1        0.0369
     25 C           3.4580   -2.2420    0.0000 C.ar    1  LIG1        0.0031
     26 C           3.4580   -1.2540    0.0000 C.ar    1  LIG1        0.0002
     27 C           2.5830   -0.7420    0.0000 C.ar    1  LIG1        0.0032
@<TRIPOS>BOND
     1     1     2   ar
     2     1    18   ar
     3     1    20    1
     4     2     3   ar
     5     2    19    2
     6     3     4   ar
     7     3    15   ar
     8     4     5   ar
     9     4    17   ar
    10     5     6    1
    11     5    13   ar
    12     6     7    1
    13     7     8    1
    14     7    12    1
    15     8     9    1
    16     9    10    1
    17    10    11    1
    18    11    12    1
    19    13    14   ar
    20    13    16    1
    21    14    15   ar
    22    17    18   ar
    23    20    21   ar
    24    20    27   ar
    25    21    22    1
    26    21    24   ar
    27    22    23    1
    28    24    25   ar
    29    25    26   ar
    30    26    27   ar
