@<TRIPOS>MOLECULE
27785_ChemDiv_3453-2397
 29 32 0 0 0
SMALL
GASTEIGER
Energy = 0

@<TRIPOS>ATOM
      1 C           1.5830   -1.1540    0.0000 C.ar    1  LIG1        0.0795
      2 C           0.6830   -1.6580    0.0000 C.ar    1  LIG1        0.2016
      3 C          -0.2170   -1.1580    0.0000 C.ar    1  LIG1        0.0735
      4 C          -0.2330   -0.1080    0.0000 C.ar    1  LIG1        0.1488
      5 C          -1.1250    0.4080    0.0000 C.ar    1  LIG1        0.0674
      6 C          -1.1250    1.5540    0.0000 C.3     1  LIG1        0.1058
      7 N          -1.9080    1.9790    0.0000 N.3     1  LIG1       -0.2587
      8 C          -1.9080    2.8960    0.0000 C.3     1  LIG1        0.1361
      9 C          -2.6920    3.3500    0.0000 C.3     1  LIG1        0.1563
     10 N          -3.4750    2.8960    0.0000 N.4     1  LIG1        0.3794
     11 C          -3.4750    2.0210    0.0000 C.3     1  LIG1        0.1563
     12 C          -2.6920    1.5540    0.0000 C.3     1  LIG1        0.1361
     13 C          -4.2630    3.3500    0.0000 C.3     1  LIG1        0.1389
     14 C          -4.2630    4.2420    0.0000 C.3     1  LIG1        0.0688
     15 C          -2.0080   -0.1080    0.0000 C.ar    1  LIG1        0.1960
     16 C          -2.0080   -1.1540    0.0000 C.ar    1  LIG1        0.0420
     17 C          -1.1250   -1.6580    0.0000 C.ar    1  LIG1        0.0095
     18 O          -2.9000    0.4080    0.0000 O.3     1  LIG1       -0.2868
     19 O           0.6670    0.4130    0.0000 O.2     1  LIG1       -0.4504
     20 C           1.5670   -0.0960    0.0000 C.ar    1  LIG1        0.1827
     21 O           0.6830   -2.7040    0.0000 O.2     1  LIG1       -0.2864
     22 C           2.4830   -1.6580    0.0000 C.ar    1  LIG1        0.0401
     23 C           2.4750   -2.7040    0.0000 C.ar    1  LIG1        0.1388
     24 O           1.5830   -3.2210    0.0000 O.3     1  LIG1       -0.4714
     25 C           1.5830   -4.2420    0.0000 C.3     1  LIG1        0.2525
     26 C           3.3750   -3.2210    0.0000 C.ar    1  LIG1        0.0369
     27 C           4.2580   -2.7040    0.0000 C.ar    1  LIG1        0.0031
     28 C           4.2580   -1.6580    0.0000 C.ar    1  LIG1        0.0002
     29 C           3.3750   -1.1540    0.0000 C.ar    1  LIG1        0.0032
@<TRIPOS>BOND
     1     1     2   ar
     2     1    20   ar
     3     1    22    1
     4     2     3   ar
     5     2    21    2
     6     3     4   ar
     7     3    17   ar
     8     4     5   ar
     9     4    19   ar
    10     5     6    1
    11     5    15   ar
    12     6     7    1
    13     7     8    1
    14     7    12    1
    15     8     9    1
    16     9    10    1
    17    10    11    1
    18    10    13    1
    19    11    12    1
    20    13    14    1
    21    15    16   ar
    22    15    18    1
    23    16    17   ar
    24    19    20   ar
    25    22    23   ar
    26    22    29   ar
    27    23    24    1
    28    23    26   ar
    29    24    25    1
    30    26    27   ar
    31    27    28   ar
    32    28    29   ar
