@<TRIPOS>MOLECULE
27788_ChemDiv_2401-0098
 18 20 0 0 0
SMALL
GASTEIGER
Energy = 0

@<TRIPOS>ATOM
      1 N          -0.9630    1.0040    0.0000 N.ar    1  LIG1       -0.1794
      2 C          -0.9630    1.9920    0.0000 C.ar    1  LIG1        0.2554
      3 N          -1.9420    2.3000    0.0000 N.ar    1  LIG1       -0.1861
      4 C          -2.5130    1.4920    0.0000 C.ar    1  LIG1        0.2226
      5 N          -1.8960    0.6750    0.0000 N.ar    1  LIG1       -0.1385
      6 N          -0.1080    2.5130    0.0000 N.ar    1  LIG1       -0.2142
      7 C           0.7540    2.0130    0.0000 C.ar    1  LIG1        0.0653
      8 C           0.7540    1.0040    0.0000 C.ar    1  LIG1        0.0510
      9 C          -0.1080    0.5040    0.0000 C.ar    1  LIG1        0.1575
     10 N          -0.1080   -0.4880    0.0000 N.pl3   1  LIG1       -0.1943
     11 C           0.7540   -0.9920    0.0000 C.ar    1  LIG1        0.0681
     12 C           0.7670   -2.0000    0.0000 C.ar    1  LIG1       -0.0065
     13 C          -0.0790   -2.5290    0.0000 C.3     1  LIG1        0.0324
     14 C           1.6420   -2.4880    0.0000 C.ar    1  LIG1       -0.0030
     15 C           2.5080   -1.9880    0.0000 C.ar    1  LIG1       -0.0002
     16 C           2.4920   -0.9790    0.0000 C.ar    1  LIG1        0.0013
     17 C           1.6210   -0.4920    0.0000 C.ar    1  LIG1        0.0162
     18 C           1.5960    2.5330    0.0000 C.3     1  LIG1        0.0523
@<TRIPOS>BOND
     1     1     2   ar
     2     1     5   ar
     3     1     9   ar
     4     2     3   ar
     5     2     6   ar
     6     3     4   ar
     7     4     5   ar
     8     6     7   ar
     9     7     8   ar
    10     7    18    1
    11     8     9   ar
    12     9    10    1
    13    10    11    1
    14    11    12   ar
    15    11    17   ar
    16    12    13    1
    17    12    14   ar
    18    14    15   ar
    19    15    16   ar
    20    16    17   ar
