@<TRIPOS>MOLECULE
27793_ChemDiv_8016-4581
 30 34 0 0 0
SMALL
GASTEIGER
Energy = 0

@<TRIPOS>ATOM
      1 C           0.6420   -2.6670    0.0000 C.3     1  LIG1        0.0597
      2 C          -0.3210   -2.4040    0.0000 C.ar    1  LIG1        0.0167
      3 C          -1.0330   -3.1040    0.0000 C.ar    1  LIG1        0.1416
      4 O          -0.7830   -4.0710    0.0000 O.3     1  LIG1       -0.4541
      5 C           0.1960   -4.3290    0.0000 C.ar    1  LIG1        0.1416
      6 C           0.9080   -3.6250    0.0000 C.ar    1  LIG1        0.0167
      7 C           1.8710   -3.8790    0.0000 C.ar    1  LIG1       -0.0009
      8 C           2.1290   -4.8500    0.0000 C.ar    1  LIG1       -0.0001
      9 C           1.4210   -5.5630    0.0000 C.ar    1  LIG1        0.0031
     10 C           0.4580   -5.2920    0.0000 C.ar    1  LIG1        0.0372
     11 C          -1.9830   -2.8500    0.0000 C.ar    1  LIG1        0.0372
     12 C          -2.2460   -1.8920    0.0000 C.ar    1  LIG1        0.0031
     13 C          -1.5380   -1.1880    0.0000 C.ar    1  LIG1       -0.0001
     14 C          -0.5830   -1.4420    0.0000 C.ar    1  LIG1       -0.0009
     15 C           1.3460   -1.9540    0.0000 C.3     1  LIG1        0.0961
     16 C           1.0830   -0.9880    0.0000 C.2     1  LIG1        0.2462
     17 N           1.7960   -0.2750    0.0000 N.am    1  LIG1       -0.1792
     18 C           1.5290    0.7000    0.0000 C.ar    1  LIG1        0.0734
     19 C           2.2420    1.4130    0.0000 C.ar    1  LIG1        0.0167
     20 C           1.9710    2.3750    0.0000 C.ar    1  LIG1        0.0044
     21 C           1.0080    2.6380    0.0000 C.ar    1  LIG1        0.0363
     22 C           0.7420    3.5920    0.0000 C.ar    1  LIG1        0.1659
     23 O          -0.2000    3.9420    0.0000 O.2     1  LIG1       -0.4383
     24 C          -0.1500    4.9290    0.0000 C.ar    1  LIG1        0.2062
     25 N           0.8210    5.2000    0.0000 N.ar    1  LIG1       -0.2104
     26 C           1.3710    4.3670    0.0000 C.ar    1  LIG1        0.1391
     27 C          -0.9330    5.5630    0.0000 C.3     1  LIG1        0.0950
     28 C           0.2960    1.9130    0.0000 C.ar    1  LIG1        0.0044
     29 C           0.5580    0.9500    0.0000 C.ar    1  LIG1        0.0167
     30 O           0.1170   -0.7290    0.0000 O.2     1  LIG1       -0.2730
@<TRIPOS>BOND
     1     1     2    1
     2     1     6    1
     3     1    15    1
     4     2     3   ar
     5     2    14   ar
     6     3     4    1
     7     3    11   ar
     8     4     5    1
     9     5     6   ar
    10     5    10   ar
    11     6     7   ar
    12     7     8   ar
    13     8     9   ar
    14     9    10   ar
    15    11    12   ar
    16    12    13   ar
    17    13    14   ar
    18    15    16    1
    19    16    17   am
    20    16    30    2
    21    17    18    1
    22    18    19   ar
    23    18    29   ar
    24    19    20   ar
    25    20    21   ar
    26    21    22    1
    27    21    28   ar
    28    22    23   ar
    29    22    26   ar
    30    23    24   ar
    31    24    25   ar
    32    24    27    1
    33    25    26   ar
    34    28    29   ar
