@<TRIPOS>MOLECULE
27797_ChemDiv_2272-1190
 34 37 0 0 0
SMALL
GASTEIGER
Energy = 0

@<TRIPOS>ATOM
      1 S          -1.4250    1.2420    0.0000 S.O2    1  LIG1       -0.0563
      2 C          -2.3830    1.2250    0.0000 C.ar    1  LIG1        0.1090
      3 C          -2.8920    0.3790    0.0000 C.ar    1  LIG1        0.1244
      4 N          -2.5790   -0.5210    0.0000 N.ar    1  LIG1       -0.1889
      5 S          -3.3710   -1.1080    0.0000 S.2     1  LIG1        0.1165
      6 N          -4.1460   -0.5500    0.0000 N.ar    1  LIG1       -0.1901
      7 C          -3.8500    0.3790    0.0000 C.ar    1  LIG1        0.1101
      8 C          -4.3000    1.2250    0.0000 C.ar    1  LIG1        0.0214
      9 C          -3.8080    2.0500    0.0000 C.ar    1  LIG1        0.0029
     10 C          -2.8330    2.0500    0.0000 C.ar    1  LIG1        0.0186
     11 N          -0.4420    1.2250    0.0000 N.pl3   1  LIG1       -0.5356
     12 C          -0.0040    2.0710    0.0000 C.ar    1  LIG1       -0.1078
     13 C           0.9540    2.0710    0.0000 C.ar    1  LIG1        0.0334
     14 C           1.4630    1.2750    0.0000 C.2     1  LIG1        0.2677
     15 N           0.9750    0.4500    0.0000 N.am    1  LIG1       -0.1687
     16 C           2.1380   -1.3670    0.0000 C.ar    1  LIG1        0.1090
     17 C           1.7580   -2.3000    0.0000 C.ar    1  LIG1        0.0972
     18 C           2.5920   -2.9170    0.0000 C.ar    1  LIG1        0.0105
     19 C           3.3790   -2.3920    0.0000 C.ar    1  LIG1        0.0087
     20 S           3.1000   -1.3790    0.0000 S.2     1  LIG1       -0.0746
     21 C           4.2420   -2.7790    0.0000 C.3     1  LIG1        0.0330
     22 C           4.2960   -3.7630    0.0000 C.3     1  LIG1        0.0056
     23 C           0.8540   -2.5250    0.0000 C.2     1  LIG1        0.3430
     24 O           0.5920   -3.4670    0.0000 O.2     1  LIG1       -0.2448
     25 O           0.2210   -1.8210    0.0000 O.3     1  LIG1       -0.4454
     26 C          -0.7040   -1.9750    0.0000 C.3     1  LIG1        0.2089
     27 C          -1.3380   -1.2420    0.0000 C.3     1  LIG1        0.0513
     28 O           2.4170    1.2580    0.0000 O.2     1  LIG1       -0.2681
     29 C           1.4380    2.9330    0.0000 C.ar    1  LIG1        0.0028
     30 C           0.9290    3.7670    0.0000 C.ar    1  LIG1        0.0000
     31 C          -0.0130    3.7540    0.0000 C.ar    1  LIG1       -0.0019
     32 C          -0.4790    2.9210    0.0000 C.ar    1  LIG1       -0.0237
     33 O          -1.4380    2.2130    0.0000 O.2     1  LIG1       -0.1841
     34 O          -1.4380    0.2580    0.0000 O.2     1  LIG1       -0.1841
@<TRIPOS>BOND
     1     1     2    1
     2     1    11    1
     3     1    33    2
     4     1    34    2
     5     2     3   ar
     6     2    10   ar
     7     3     4   ar
     8     3     7   ar
     9     4     5   ar
    10     5     6   ar
    11     6     7   ar
    12     7     8   ar
    13     8     9   ar
    14     9    10   ar
    15    11    12    1
    16    12    13   ar
    17    12    32   ar
    18    13    14    1
    19    13    29   ar
    20    14    15   am
    21    14    28    2
    22    15    16    1
    23    16    17   ar
    24    16    20   ar
    25    17    18   ar
    26    17    23    1
    27    18    19   ar
    28    19    20   ar
    29    19    21    1
    30    21    22    1
    31    23    24    2
    32    23    25    1
    33    25    26    1
    34    26    27    1
    35    29    30   ar
    36    30    31   ar
    37    31    32   ar
