@<TRIPOS>MOLECULE
27790_ChemDiv_4211-0018
 21 23 0 0 0
SMALL
GASTEIGER
Energy = 0

@<TRIPOS>ATOM
      1 N          -0.4290   -1.4920    0.0000 N.ar    1  LIG1       -0.1794
      2 C          -0.4290   -2.4830    0.0000 C.ar    1  LIG1        0.2554
      3 N           0.5250   -2.8080    0.0000 N.ar    1  LIG1       -0.1861
      4 C           1.1210   -1.9830    0.0000 C.ar    1  LIG1        0.2226
      5 N           0.5250   -1.1710    0.0000 N.ar    1  LIG1       -0.1385
      6 N          -1.2920   -2.9920    0.0000 N.ar    1  LIG1       -0.2142
      7 C          -2.1500   -2.4920    0.0000 C.ar    1  LIG1        0.0653
      8 C          -2.1500   -1.4920    0.0000 C.ar    1  LIG1        0.0510
      9 C          -1.2920   -0.9920    0.0000 C.ar    1  LIG1        0.1575
     10 N          -1.2920    0.0170    0.0000 N.pl3   1  LIG1       -0.1939
     11 C          -0.4290    0.5000    0.0000 C.ar    1  LIG1        0.0753
     12 C           0.4250    0.0000    0.0000 C.ar    1  LIG1        0.0586
     13 C           1.3040    0.5000    0.0000 C.ar    1  LIG1        0.1980
     14 C           1.2880    1.4960    0.0000 C.ar    1  LIG1        0.0530
     15 C           2.1630    2.0000    0.0000 C.2     1  LIG1        0.0760
     16 O           2.1540    2.9960    0.0000 O.co2   1  LIG1       -0.5445
     17 O           3.0250    1.5080    0.0000 O.co2   1  LIG1       -0.5445
     18 C           0.4210    1.9960    0.0000 C.ar    1  LIG1        0.0057
     19 C          -0.4460    1.4960    0.0000 C.ar    1  LIG1        0.0168
     20 O           2.1630    0.0170    0.0000 O.3     1  LIG1       -0.2865
     21 C          -3.0290   -2.9920    0.0000 C.3     1  LIG1        0.0523
@<TRIPOS>BOND
     1     1     2   ar
     2     1     5   ar
     3     1     9   ar
     4     2     3   ar
     5     2     6   ar
     6     3     4   ar
     7     4     5   ar
     8     6     7   ar
     9     7     8   ar
    10     7    21    1
    11     8     9   ar
    12     9    10    1
    13    10    11    1
    14    11    12   ar
    15    11    19   ar
    16    12    13   ar
    17    13    14   ar
    18    13    20    1
    19    14    15    1
    20    14    18   ar
    21    15    16   ar
    22    15    17   ar
    23    18    19   ar
