@<TRIPOS>MOLECULE
27795_ChemDiv_2260-9977
 33 36 0 0 0
SMALL
GASTEIGER
Energy = 0

@<TRIPOS>ATOM
      1 S          -2.7920    0.4670    0.0000 S.O2    1  LIG1       -0.0568
      2 N          -3.2580    1.3580    0.0000 N.pl3   1  LIG1       -0.5193
      3 C          -2.7670    2.2080    0.0000 C.ar    1  LIG1       -0.0067
      4 N          -3.2290    3.1000    0.0000 N.ar    1  LIG1       -0.2659
      5 C          -2.7250    3.9500    0.0000 C.ar    1  LIG1        0.0968
      6 C          -1.7170    3.9290    0.0000 C.ar    1  LIG1        0.0988
      7 N          -1.2330    3.0580    0.0000 N.ar    1  LIG1       -0.2427
      8 C          -1.7500    2.1960    0.0000 C.ar    1  LIG1        0.0938
      9 C          -1.2250    4.7920    0.0000 C.ar    1  LIG1        0.0206
     10 C          -1.6920    5.6750    0.0000 C.ar    1  LIG1        0.0016
     11 C          -2.6830    5.6880    0.0000 C.ar    1  LIG1        0.0016
     12 C          -3.2040    4.8170    0.0000 C.ar    1  LIG1        0.0206
     13 C          -2.2830   -0.4250    0.0000 C.ar    1  LIG1        0.0894
     14 C          -1.2880   -0.4790    0.0000 C.ar    1  LIG1        0.0182
     15 C          -0.8000   -1.3380    0.0000 C.ar    1  LIG1        0.0179
     16 C          -1.3130   -2.2130    0.0000 C.ar    1  LIG1        0.0736
     17 N          -0.8250   -3.0960    0.0000 N.am    1  LIG1       -0.1762
     18 C           0.1960   -3.0960    0.0000 C.2     1  LIG1        0.2857
     19 C           0.6420   -3.9880    0.0000 C.3     1  LIG1        0.2430
     20 O           1.6130   -4.0130    0.0000 O.3     1  LIG1       -0.4699
     21 C           2.1380   -3.1830    0.0000 C.ar    1  LIG1        0.1391
     22 C           3.1460   -3.1830    0.0000 C.ar    1  LIG1        0.0369
     23 C           3.6580   -2.3710    0.0000 C.ar    1  LIG1        0.0031
     24 C           3.1920   -1.4790    0.0000 C.ar    1  LIG1        0.0002
     25 C           2.2000   -1.4790    0.0000 C.ar    1  LIG1        0.0031
     26 C           1.6920   -2.2920    0.0000 C.ar    1  LIG1        0.0369
     27 C           0.1250   -4.8250    0.0000 C.3     1  LIG1        0.0532
     28 C           0.5790   -5.6880    0.0000 C.3     1  LIG1        0.0044
     29 O           0.7130   -2.2290    0.0000 O.2     1  LIG1       -0.2691
     30 C          -2.3380   -2.2130    0.0000 C.ar    1  LIG1        0.0179
     31 C          -2.8040   -1.2920    0.0000 C.ar    1  LIG1        0.0182
     32 O          -1.9000    0.9580    0.0000 O.2     1  LIG1       -0.1841
     33 O          -3.6630   -0.0420    0.0000 O.2     1  LIG1       -0.1841
@<TRIPOS>BOND
     1     1     2    1
     2     1    13    1
     3     1    32    2
     4     1    33    2
     5     2     3    1
     6     3     4   ar
     7     3     8   ar
     8     4     5   ar
     9     5     6   ar
    10     5    12   ar
    11     6     7   ar
    12     6     9   ar
    13     7     8   ar
    14     9    10   ar
    15    10    11   ar
    16    11    12   ar
    17    13    14   ar
    18    13    31   ar
    19    14    15   ar
    20    15    16   ar
    21    16    17    1
    22    16    30   ar
    23    17    18   am
    24    18    19    1
    25    18    29    2
    26    19    20    1
    27    19    27    1
    28    20    21    1
    29    21    22   ar
    30    21    26   ar
    31    22    23   ar
    32    23    24   ar
    33    24    25   ar
    34    25    26   ar
    35    27    28    1
    36    30    31   ar
