@<TRIPOS>MOLECULE
27799_ChemDiv_2279-3690
 30 32 0 0 0
SMALL
GASTEIGER
Energy = 0

@<TRIPOS>ATOM
      1 C          -4.3580    2.7250    0.0000 C.ar    1  LIG1        0.1514
      2 O          -5.2130    3.2330    0.0000 O.2     1  LIG1       -0.4209
      3 C          -5.2040    4.2380    0.0000 C.ar    1  LIG1        0.3456
      4 C          -4.3420    4.7380    0.0000 C.ar    1  LIG1        0.0781
      5 C          -3.4670    4.2130    0.0000 C.ar    1  LIG1       -0.0125
      6 C          -3.4750    3.2250    0.0000 C.ar    1  LIG1        0.0311
      7 C          -2.6040    2.7250    0.0000 C.ar    1  LIG1        0.0058
      8 C          -2.6040    1.7290    0.0000 C.ar    1  LIG1        0.0371
      9 C          -3.4920    1.2420    0.0000 C.ar    1  LIG1        0.1423
     10 C          -4.3580    1.7290    0.0000 C.ar    1  LIG1        0.0745
     11 O          -3.4920    0.2500    0.0000 O.3     1  LIG1       -0.4655
     12 C          -2.6170   -0.2670    0.0000 C.3     1  LIG1        0.2915
     13 C          -2.6170   -1.2630    0.0000 C.2     1  LIG1        0.2901
     14 N          -1.7500   -1.7500    0.0000 N.am    1  LIG1       -0.1761
     15 C          -0.8830   -2.2500    0.0000 C.ar    1  LIG1        0.0735
     16 C          -0.0210   -1.7500    0.0000 C.ar    1  LIG1        0.0168
     17 C           0.8540   -2.2500    0.0000 C.ar    1  LIG1        0.0078
     18 C           0.8540   -3.2630    0.0000 C.ar    1  LIG1        0.0757
     19 C           1.7080   -3.7500    0.0000 C.2     1  LIG1        0.3413
     20 O           1.7080   -4.7380    0.0000 O.2     1  LIG1       -0.2449
     21 O           2.5750   -3.2630    0.0000 O.3     1  LIG1       -0.4427
     22 C           3.4630   -3.7500    0.0000 C.3     1  LIG1        0.2407
     23 C           4.3170   -3.2630    0.0000 C.3     1  LIG1        0.1895
     24 O           5.1830   -3.7500    0.0000 O.3     1  LIG1       -0.3471
     25 C           6.0540   -3.2460    0.0000 C.3     1  LIG1        0.1743
     26 C          -0.0210   -3.7500    0.0000 C.ar    1  LIG1        0.0078
     27 C          -0.8830   -3.2630    0.0000 C.ar    1  LIG1        0.0168
     28 O          -3.4920   -1.7500    0.0000 O.2     1  LIG1       -0.2689
     29 C          -2.6040    4.7130    0.0000 C.3     1  LIG1        0.0313
     30 O          -6.0540    4.7380    0.0000 O.2     1  LIG1       -0.2445
@<TRIPOS>BOND
     1     1     2   ar
     2     1     6   ar
     3     1    10   ar
     4     2     3   ar
     5     3     4   ar
     6     3    30    2
     7     4     5   ar
     8     5     6   ar
     9     5    29    1
    10     6     7   ar
    11     7     8   ar
    12     8     9   ar
    13     9    10   ar
    14     9    11    1
    15    11    12    1
    16    12    13    1
    17    13    14   am
    18    13    28    2
    19    14    15    1
    20    15    16   ar
    21    15    27   ar
    22    16    17   ar
    23    17    18   ar
    24    18    19    1
    25    18    26   ar
    26    19    20    2
    27    19    21    1
    28    21    22    1
    29    22    23    1
    30    23    24    1
    31    24    25    1
    32    26    27   ar
