@<TRIPOS>MOLECULE
27798_ChemDiv_3332-5358
 35 39 0 0 0
SMALL
GASTEIGER
Energy = 0

@<TRIPOS>ATOM
      1 N           1.4170   -0.1920    0.0000 N.am    1  LIG1       -0.1751
      2 N           0.4380   -0.0290    0.0000 N.2     1  LIG1       -0.1796
      3 C           0.3000    0.9750    0.0000 C.2     1  LIG1        0.0833
      4 C          -0.5580    1.4750    0.0000 C.ar    1  LIG1        0.0730
      5 C          -1.4210    0.9750    0.0000 C.ar    1  LIG1        0.0073
      6 C          -2.2750    1.4750    0.0000 C.ar    1  LIG1        0.0184
      7 C          -2.2750    2.4750    0.0000 C.ar    1  LIG1        0.0846
      8 N          -1.4210    2.9790    0.0000 N.ar    1  LIG1       -0.2078
      9 C          -0.5580    2.4750    0.0000 C.ar    1  LIG1        0.2803
     10 O           0.3210    2.9790    0.0000 O.3     1  LIG1       -0.2652
     11 C          -3.1330    2.9790    0.0000 C.ar    1  LIG1        0.0197
     12 C          -4.0130    2.4750    0.0000 C.ar    1  LIG1        0.0082
     13 C          -4.0130    1.4750    0.0000 C.ar    1  LIG1        0.0347
     14 C          -3.1330    0.9750    0.0000 C.ar    1  LIG1        0.0082
     15 BR         -4.8960    0.9750    0.0000 Br      1  LIG1       -0.0490
     16 C          -1.4420   -0.0290    0.0000 C.ar    1  LIG1        0.0002
     17 C          -2.3000   -0.5290    0.0000 C.ar    1  LIG1        0.0000
     18 C          -2.2750   -1.5250    0.0000 C.ar    1  LIG1        0.0000
     19 C          -1.4210   -2.0210    0.0000 C.ar    1  LIG1        0.0000
     20 C          -0.5580   -1.5250    0.0000 C.ar    1  LIG1        0.0000
     21 C          -0.5580   -0.5290    0.0000 C.ar    1  LIG1        0.0000
     22 C           1.2000    1.4000    0.0000 C.3     1  LIG1        0.0772
     23 C           1.8920    0.6880    0.0000 C.3     1  LIG1        0.1618
     24 C           2.8790    0.8210    0.0000 C.ar    1  LIG1        0.1433
     25 O           3.5580    0.0920    0.0000 O.2     1  LIG1       -0.4530
     26 C           4.4880    0.5420    0.0000 C.ar    1  LIG1        0.1792
     27 C           4.3500    1.5130    0.0000 C.ar    1  LIG1        0.0435
     28 C           3.3960    1.7130    0.0000 C.ar    1  LIG1        0.0380
     29 C           1.8920   -1.1000    0.0000 C.2     1  LIG1        0.2450
     30 O           1.3460   -1.9330    0.0000 O.2     1  LIG1       -0.2731
     31 C           2.8960   -1.1460    0.0000 C.3     1  LIG1        0.0929
     32 C           3.3420   -2.0210    0.0000 C.3     1  LIG1        0.0513
     33 C           4.3500   -2.0960    0.0000 C.2     1  LIG1        0.0508
     34 O           4.8920   -1.2630    0.0000 O.co2   1  LIG1       -0.5492
     35 O           4.8000   -2.9750    0.0000 O.co2   1  LIG1       -0.5492
@<TRIPOS>BOND
     1     1     2    1
     2     1    23    1
     3     1    29   am
     4     2     3    2
     5     3     4    1
     6     3    22    1
     7     4     5   ar
     8     4     9   ar
     9     5     6   ar
    10     5    16    1
    11     6     7   ar
    12     6    14   ar
    13     7     8   ar
    14     7    11   ar
    15     8     9   ar
    16     9    10    1
    17    11    12   ar
    18    12    13   ar
    19    13    14   ar
    20    13    15    1
    21    16    17   ar
    22    16    21   ar
    23    17    18   ar
    24    18    19   ar
    25    19    20   ar
    26    20    21   ar
    27    22    23    1
    28    23    24    1
    29    24    25   ar
    30    24    28   ar
    31    25    26   ar
    32    26    27   ar
    33    27    28   ar
    34    29    30    2
    35    29    31    1
    36    31    32    1
    37    32    33    1
    38    33    34   ar
    39    33    35   ar
