@<TRIPOS>MOLECULE
27802_ChemDiv_4909-0148
 28 31 0 0 0
SMALL
GASTEIGER
Energy = 0

@<TRIPOS>ATOM
      1 N           1.0170   -1.3170    0.0000 N.pl3   1  LIG1       -0.1126
      2 N           1.9130   -0.8170    0.0000 N.2     1  LIG1       -0.1662
      3 C           1.6500    0.1540    0.0000 C.2     1  LIG1        0.0799
      4 C           0.6500    0.2500    0.0000 C.3     1  LIG1        0.0754
      5 C           0.2790   -0.6750    0.0000 C.3     1  LIG1        0.1458
      6 C          -0.6920   -0.9500    0.0000 C.ar    1  LIG1        0.0280
      7 C          -0.9170   -1.9170    0.0000 C.ar    1  LIG1        0.1359
      8 N          -1.8880   -2.1790    0.0000 N.ar    1  LIG1       -0.2345
      9 C          -2.6170   -1.5170    0.0000 C.ar    1  LIG1        0.0782
     10 C          -2.3500   -0.5500    0.0000 C.ar    1  LIG1        0.0172
     11 C          -1.4210   -0.2500    0.0000 C.ar    1  LIG1        0.0013
     12 C          -3.0920    0.1540    0.0000 C.ar    1  LIG1        0.0015
     13 C          -4.0630   -0.1130    0.0000 C.ar    1  LIG1       -0.0002
     14 C          -4.2540   -1.0790    0.0000 C.ar    1  LIG1       -0.0028
     15 C          -3.5580   -1.7790    0.0000 C.ar    1  LIG1       -0.0042
     16 C          -3.8210   -2.7500    0.0000 C.3     1  LIG1        0.0326
     17 CL         -0.2170   -2.6130    0.0000 Cl      1  LIG1       -0.0616
     18 C           2.3130    0.9170    0.0000 C.ar    1  LIG1        0.0152
     19 C           3.3170    0.7500    0.0000 C.ar    1  LIG1        0.0017
     20 C           3.9500    1.4830    0.0000 C.ar    1  LIG1        0.0067
     21 C           3.6210    2.4500    0.0000 C.ar    1  LIG1        0.0346
     22 C           2.6540    2.5920    0.0000 C.ar    1  LIG1        0.0067
     23 C           1.9880    1.8500    0.0000 C.ar    1  LIG1        0.0017
     24 BR          4.2500    3.1880    0.0000 Br      1  LIG1       -0.0490
     25 S           1.5210   -2.1790    0.0000 S.O2    1  LIG1        0.0732
     26 O           2.5500   -2.1790    0.0000 O.2     1  LIG1       -0.1530
     27 O           0.8170   -2.9170    0.0000 O.2     1  LIG1       -0.1530
     28 C           1.8080   -3.1830    0.0000 C.3     1  LIG1        0.2014
@<TRIPOS>BOND
     1     1     2    1
     2     1     5    1
     3     1    25    1
     4     2     3    2
     5     3     4    1
     6     3    18    1
     7     4     5    1
     8     5     6    1
     9     6     7   ar
    10     6    11   ar
    11     7     8   ar
    12     7    17    1
    13     8     9   ar
    14     9    10   ar
    15     9    15   ar
    16    10    11   ar
    17    10    12   ar
    18    12    13   ar
    19    13    14   ar
    20    14    15   ar
    21    15    16    1
    22    18    19   ar
    23    18    23   ar
    24    19    20   ar
    25    20    21   ar
    26    21    22   ar
    27    21    24    1
    28    22    23   ar
    29    25    26    2
    30    25    27    2
    31    25    28    1
