@<TRIPOS>MOLECULE
27805_ChemDiv_2712-5129
 29 32 0 0 0
SMALL
GASTEIGER
Energy = 0

@<TRIPOS>ATOM
      1 C           3.0380   -0.2630    0.0000 C.ar    1  LIG1        0.0766
      2 C           2.1670   -0.7500    0.0000 C.ar    1  LIG1        0.2015
      3 C           1.2920   -0.2630    0.0000 C.ar    1  LIG1        0.0737
      4 C           1.2920    0.7670    0.0000 C.ar    1  LIG1        0.1515
      5 O           2.1790    1.2580    0.0000 O.2     1  LIG1       -0.4501
      6 C           3.0380    0.7670    0.0000 C.ar    1  LIG1        0.1826
      7 C           0.4420    1.2500    0.0000 C.ar    1  LIG1        0.0745
      8 C          -0.4290    0.7670    0.0000 C.ar    1  LIG1        0.1423
      9 O          -1.3040    1.2500    0.0000 O.3     1  LIG1       -0.4655
     10 C          -2.1710    0.7710    0.0000 C.3     1  LIG1        0.2896
     11 C          -3.0330    1.2710    0.0000 C.2     1  LIG1        0.2702
     12 N          -3.8880    0.7880    0.0000 N.am    1  LIG1       -0.2765
     13 C          -4.7540    1.2960    0.0000 C.3     1  LIG1        0.0935
     14 C          -5.6130    0.8130    0.0000 C.3     1  LIG1        0.0216
     15 C          -5.6290   -0.2000    0.0000 C.3     1  LIG1        0.0034
     16 C          -4.7790   -0.6920    0.0000 C.3     1  LIG1        0.0216
     17 C          -3.8880   -0.2040    0.0000 C.3     1  LIG1        0.0935
     18 C          -6.4960   -0.6920    0.0000 C.3     1  LIG1        0.0001
     19 O          -3.0210    2.2670    0.0000 O.2     1  LIG1       -0.2708
     20 C          -0.4290   -0.2460    0.0000 C.ar    1  LIG1        0.0372
     21 C           0.4250   -0.7460    0.0000 C.ar    1  LIG1        0.0094
     22 O           2.1670   -1.7540    0.0000 O.2     1  LIG1       -0.2864
     23 C           3.9000   -0.7500    0.0000 C.ar    1  LIG1        0.0062
     24 C           3.9000   -1.7630    0.0000 C.ar    1  LIG1        0.0011
     25 C           4.7670   -2.2630    0.0000 C.ar    1  LIG1        0.0114
     26 C           5.6420   -1.7630    0.0000 C.ar    1  LIG1        0.0577
     27 C           5.6420   -0.7500    0.0000 C.ar    1  LIG1        0.0114
     28 C           4.7750   -0.2630    0.0000 C.ar    1  LIG1        0.0011
     29 CL          6.4960   -2.2630    0.0000 Cl      1  LIG1       -0.0822
@<TRIPOS>BOND
     1     1     2   ar
     2     1     6   ar
     3     1    23    1
     4     2     3   ar
     5     2    22    2
     6     3     4   ar
     7     3    21   ar
     8     4     5   ar
     9     4     7   ar
    10     5     6   ar
    11     7     8   ar
    12     8     9    1
    13     8    20   ar
    14     9    10    1
    15    10    11    1
    16    11    12   am
    17    11    19    2
    18    12    13    1
    19    12    17    1
    20    13    14    1
    21    14    15    1
    22    15    16    1
    23    15    18    1
    24    16    17    1
    25    20    21   ar
    26    23    24   ar
    27    23    28   ar
    28    24    25   ar
    29    25    26   ar
    30    26    27   ar
    31    26    29    1
    32    27    28   ar
