@<TRIPOS>MOLECULE
27809_ChemDiv_5847-0215
 29 32 0 0 0
SMALL
GASTEIGER
Energy = 0

@<TRIPOS>ATOM
      1 C           1.7420   -1.9880    0.0000 C.ar    1  LIG1        0.0766
      2 C           0.8580   -2.4920    0.0000 C.ar    1  LIG1        0.2015
      3 C           0.0000   -1.9880    0.0000 C.ar    1  LIG1        0.0736
      4 C           0.0000   -0.9880    0.0000 C.ar    1  LIG1        0.1531
      5 C          -0.8670   -0.4830    0.0000 C.ar    1  LIG1        0.1077
      6 C          -0.8670    0.5080    0.0000 C.3     1  LIG1        0.1730
      7 N          -1.7460    1.0130    0.0000 N.4     1  LIG1        0.3843
      8 C          -1.7460    2.0080    0.0000 C.3     1  LIG1        0.1667
      9 C          -2.6000    2.5000    0.0000 C.ar    1  LIG1        0.0344
     10 C          -3.4580    2.0080    0.0000 C.ar    1  LIG1        0.0014
     11 C          -4.3130    2.5000    0.0000 C.ar    1  LIG1       -0.0001
     12 C          -4.3130    3.5080    0.0000 C.ar    1  LIG1       -0.0000
     13 C          -3.4580    3.9960    0.0000 C.ar    1  LIG1       -0.0001
     14 C          -2.5880    3.5040    0.0000 C.ar    1  LIG1        0.0014
     15 C          -2.6000    0.5170    0.0000 C.3     1  LIG1        0.1397
     16 C          -3.4670    1.0130    0.0000 C.3     1  LIG1        0.0689
     17 C          -1.7460   -0.9880    0.0000 C.ar    1  LIG1        0.2002
     18 C          -1.7460   -1.9880    0.0000 C.ar    1  LIG1        0.0422
     19 C          -0.8670   -2.4920    0.0000 C.ar    1  LIG1        0.0095
     20 O          -2.6250   -0.4830    0.0000 O.3     1  LIG1       -0.2866
     21 O           0.8580   -0.4830    0.0000 O.2     1  LIG1       -0.4502
     22 C           1.7420   -0.9880    0.0000 C.ar    1  LIG1        0.1826
     23 O           0.8580   -3.5000    0.0000 O.2     1  LIG1       -0.2864
     24 C           2.5830   -2.4920    0.0000 C.ar    1  LIG1        0.0061
     25 C           3.4460   -1.9880    0.0000 C.ar    1  LIG1        0.0002
     26 C           4.3080   -2.4920    0.0000 C.ar    1  LIG1        0.0000
     27 C           4.3080   -3.5000    0.0000 C.ar    1  LIG1        0.0000
     28 C           3.4330   -3.9920    0.0000 C.ar    1  LIG1        0.0000
     29 C           2.5790   -3.5000    0.0000 C.ar    1  LIG1        0.0002
@<TRIPOS>BOND
     1     1     2   ar
     2     1    22   ar
     3     1    24    1
     4     2     3   ar
     5     2    23    2
     6     3     4   ar
     7     3    19   ar
     8     4     5   ar
     9     4    21   ar
    10     5     6    1
    11     5    17   ar
    12     6     7    1
    13     7     8    1
    14     7    15    1
    15     8     9    1
    16     9    10   ar
    17     9    14   ar
    18    10    11   ar
    19    11    12   ar
    20    12    13   ar
    21    13    14   ar
    22    15    16    1
    23    17    18   ar
    24    17    20    1
    25    18    19   ar
    26    21    22   ar
    27    24    25   ar
    28    24    29   ar
    29    25    26   ar
    30    26    27   ar
    31    27    28   ar
    32    28    29   ar
