@<TRIPOS>MOLECULE
27800_ChemDiv_4909-0054
 34 37 0 0 0
SMALL
GASTEIGER
Energy = 0

@<TRIPOS>ATOM
      1 N          -0.4750    0.4540    0.0000 N.am    1  LIG1       -0.1782
      2 N          -1.4420    0.7500    0.0000 N.2     1  LIG1       -0.1798
      3 C          -1.4420    1.7540    0.0000 C.2     1  LIG1        0.0786
      4 C          -0.4750    2.0630    0.0000 C.3     1  LIG1        0.0738
      5 C           0.1000    1.2540    0.0000 C.3     1  LIG1        0.1295
      6 C           1.1000    1.2540    0.0000 C.ar    1  LIG1        0.0266
      7 C           1.6040    0.3920    0.0000 C.ar    1  LIG1        0.1359
      8 N           2.5710    0.3920    0.0000 N.ar    1  LIG1       -0.2342
      9 C           3.1080    1.2170    0.0000 C.ar    1  LIG1        0.0824
     10 C           2.6080    2.0960    0.0000 C.ar    1  LIG1        0.0205
     11 C           1.6040    2.0960    0.0000 C.ar    1  LIG1        0.0014
     12 C           3.0750    2.9290    0.0000 C.ar    1  LIG1        0.0384
     13 C           4.1130    2.9290    0.0000 C.ar    1  LIG1        0.1388
     14 C           4.6170    2.0960    0.0000 C.ar    1  LIG1        0.0384
     15 C           4.0790    1.2170    0.0000 C.ar    1  LIG1        0.0222
     16 O           4.6170    3.8330    0.0000 O.3     1  LIG1       -0.4714
     17 C           5.6210    3.8330    0.0000 C.3     1  LIG1        0.2525
     18 CL          1.0670   -0.5170    0.0000 Cl      1  LIG1       -0.0616
     19 C          -2.2880    2.3630    0.0000 C.ar    1  LIG1        0.0153
     20 C          -3.1880    1.9250    0.0000 C.ar    1  LIG1        0.0043
     21 C          -3.9880    2.5250    0.0000 C.ar    1  LIG1        0.0369
     22 C          -3.8920    3.5290    0.0000 C.ar    1  LIG1        0.1387
     23 C          -2.9830    3.9290    0.0000 C.ar    1  LIG1        0.0369
     24 C          -2.1830    3.3290    0.0000 C.ar    1  LIG1        0.0043
     25 O          -4.7250    4.1290    0.0000 O.3     1  LIG1       -0.4714
     26 C          -5.6250    3.7290    0.0000 C.3     1  LIG1        0.2525
     27 C          -0.1750   -0.5170    0.0000 C.2     1  LIG1        0.2446
     28 O          -0.8790   -1.2540    0.0000 O.2     1  LIG1       -0.2731
     29 C           0.1960   -1.2540    0.0000 C.3     1  LIG1        0.0874
     30 C           1.2290   -1.4880    0.0000 C.3     1  LIG1        0.0155
     31 C           1.5040   -2.4170    0.0000 C.3     1  LIG1        0.0422
     32 C           0.7630   -3.1580    0.0000 C.2     1  LIG1        0.0503
     33 O           1.0670   -4.1290    0.0000 O.co2   1  LIG1       -0.5492
     34 O          -0.2080   -2.9210    0.0000 O.co2   1  LIG1       -0.5492
@<TRIPOS>BOND
     1     1     2    1
     2     1     5    1
     3     1    27   am
     4     2     3    2
     5     3     4    1
     6     3    19    1
     7     4     5    1
     8     5     6    1
     9     6     7   ar
    10     6    11   ar
    11     7     8   ar
    12     7    18    1
    13     8     9   ar
    14     9    10   ar
    15     9    15   ar
    16    10    11   ar
    17    10    12   ar
    18    12    13   ar
    19    13    14   ar
    20    13    16    1
    21    14    15   ar
    22    16    17    1
    23    19    20   ar
    24    19    24   ar
    25    20    21   ar
    26    21    22   ar
    27    22    23   ar
    28    22    25    1
    29    23    24   ar
    30    25    26    1
    31    27    28    2
    32    27    29    1
    33    29    30    1
    34    30    31    1
    35    31    32    1
    36    32    33   ar
    37    32    34   ar
