@<TRIPOS>MOLECULE
27807_ChemDiv_4593-1540
 29 31 0 0 0
SMALL
GASTEIGER
Energy = 0

@<TRIPOS>ATOM
      1 C           3.4880   -0.7290    0.0000 C.ar    1  LIG1        0.2214
      2 C           2.6170   -1.2250    0.0000 C.ar    1  LIG1        0.2359
      3 C           1.7460   -0.7380    0.0000 C.ar    1  LIG1        0.0769
      4 C           1.7420    0.2460    0.0000 C.ar    1  LIG1        0.1517
      5 O           2.6040    0.7500    0.0000 O.2     1  LIG1       -0.4469
      6 C           3.4710    0.2630    0.0000 C.ar    1  LIG1        0.2201
      7 C           0.8880    0.7330    0.0000 C.ar    1  LIG1        0.0745
      8 C           0.0170    0.2460    0.0000 C.ar    1  LIG1        0.1424
      9 O          -0.8460    0.7330    0.0000 O.3     1  LIG1       -0.4637
     10 C          -0.8750    1.7380    0.0000 C.3     1  LIG1        0.3141
     11 C          -1.7380    2.2420    0.0000 C.2     1  LIG1        0.3621
     12 O          -1.7630    3.2380    0.0000 O.2     1  LIG1       -0.2459
     13 O          -2.6080    1.7130    0.0000 O.3     1  LIG1       -0.4432
     14 C          -3.5000    2.2000    0.0000 C.3     1  LIG1        0.2404
     15 C          -4.3540    1.6920    0.0000 C.3     1  LIG1        0.1894
     16 O          -5.2290    2.1790    0.0000 O.3     1  LIG1       -0.3498
     17 C          -6.0920    1.6500    0.0000 C.3     1  LIG1        0.1424
     18 C          -6.9750    2.1380    0.0000 C.3     1  LIG1        0.0346
     19 C           0.0170   -0.7380    0.0000 C.ar    1  LIG1        0.0372
     20 C           0.8880   -1.2250    0.0000 C.ar    1  LIG1        0.0095
     21 O           2.6170   -2.2000    0.0000 O.2     1  LIG1       -0.2831
     22 O           4.3670   -1.2250    0.0000 O.3     1  LIG1       -0.4462
     23 C           5.2250   -1.7290    0.0000 C.ar    1  LIG1        0.1560
     24 C           6.0960   -1.2250    0.0000 C.ar    1  LIG1        0.0921
     25 CL          6.0960   -0.2170    0.0000 Cl      1  LIG1       -0.0791
     26 C           6.9670   -1.7130    0.0000 C.ar    1  LIG1        0.0145
     27 C           6.9750   -2.7460    0.0000 C.ar    1  LIG1        0.0011
     28 C           6.0830   -3.2330    0.0000 C.ar    1  LIG1        0.0032
     29 C           5.2250   -2.7290    0.0000 C.ar    1  LIG1        0.0384
@<TRIPOS>BOND
     1     1     2   ar
     2     1     6   ar
     3     1    22    1
     4     2     3   ar
     5     2    21    2
     6     3     4   ar
     7     3    20   ar
     8     4     5   ar
     9     4     7   ar
    10     5     6   ar
    11     7     8   ar
    12     8     9    1
    13     8    19   ar
    14     9    10    1
    15    10    11    1
    16    11    12    2
    17    11    13    1
    18    13    14    1
    19    14    15    1
    20    15    16    1
    21    16    17    1
    22    17    18    1
    23    19    20   ar
    24    22    23    1
    25    23    24   ar
    26    23    29   ar
    27    24    25    1
    28    24    26   ar
    29    26    27   ar
    30    27    28   ar
    31    28    29   ar
