@<TRIPOS>MOLECULE
27804_ChemDiv_5959-0189
 26 29 0 0 0
SMALL
GASTEIGER
Energy = 0

@<TRIPOS>ATOM
      1 N           0.5920    0.8210    0.0000 N.pl3   1  LIG1       -0.1125
      2 N           1.5710    1.0210    0.0000 N.2     1  LIG1       -0.1631
      3 C           2.0710    0.1580    0.0000 C.2     1  LIG1        0.1142
      4 C           1.4000   -0.5790    0.0000 C.3     1  LIG1        0.0786
      5 C           0.4960   -0.1790    0.0000 C.3     1  LIG1        0.1459
      6 C          -0.3750   -0.6790    0.0000 C.ar    1  LIG1        0.0280
      7 C          -0.3750   -1.6830    0.0000 C.ar    1  LIG1        0.1359
      8 N          -1.2380   -2.1830    0.0000 N.ar    1  LIG1       -0.2342
      9 C          -2.1080   -1.6830    0.0000 C.ar    1  LIG1        0.0819
     10 C          -2.1080   -0.6790    0.0000 C.ar    1  LIG1        0.0175
     11 C          -1.2380   -0.1790    0.0000 C.ar    1  LIG1        0.0013
     12 C          -2.9830   -0.1790    0.0000 C.ar    1  LIG1        0.0012
     13 C          -3.8540   -0.6790    0.0000 C.ar    1  LIG1       -0.0042
     14 C          -3.8540   -1.6830    0.0000 C.ar    1  LIG1       -0.0204
     15 C          -2.9830   -2.1830    0.0000 C.ar    1  LIG1        0.0149
     16 C          -4.6790   -2.1830    0.0000 C.3     1  LIG1        0.0311
     17 CL          0.4960   -2.1830    0.0000 Cl      1  LIG1       -0.0616
     18 C           3.1000    0.0540    0.0000 C.ar    1  LIG1        0.1605
     19 O           3.7460    0.8210    0.0000 O.2     1  LIG1       -0.4492
     20 C           4.6750    0.4580    0.0000 C.ar    1  LIG1        0.1797
     21 C           4.6080   -0.5460    0.0000 C.ar    1  LIG1        0.0438
     22 C           3.6040   -0.7790    0.0000 C.ar    1  LIG1        0.0420
     23 S          -0.1380    1.4960    0.0000 S.O2    1  LIG1        0.0732
     24 O          -0.8420    2.1880    0.0000 O.2     1  LIG1       -0.1530
     25 O           0.5670    2.1880    0.0000 O.2     1  LIG1       -0.1530
     26 C          -0.8420    0.7920    0.0000 C.3     1  LIG1        0.2014
@<TRIPOS>BOND
     1     1     2    1
     2     1     5    1
     3     1    23    1
     4     2     3    2
     5     3     4    1
     6     3    18    1
     7     4     5    1
     8     5     6    1
     9     6     7   ar
    10     6    11   ar
    11     7     8   ar
    12     7    17    1
    13     8     9   ar
    14     9    10   ar
    15     9    15   ar
    16    10    11   ar
    17    10    12   ar
    18    12    13   ar
    19    13    14   ar
    20    14    15   ar
    21    14    16    1
    22    18    19   ar
    23    18    22   ar
    24    19    20   ar
    25    20    21   ar
    26    21    22   ar
    27    23    24    2
    28    23    25    2
    29    23    26    1
