@<TRIPOS>MOLECULE
27801_ChemDiv_2279-4798
 27 30 0 0 0
SMALL
GASTEIGER
Energy = 0

@<TRIPOS>ATOM
      1 C           2.1790   -1.2460    0.0000 C.ar    1  LIG1        0.0766
      2 C           1.3170   -1.7500    0.0000 C.ar    1  LIG1        0.2015
      3 C           0.4500   -1.2460    0.0000 C.ar    1  LIG1        0.0737
      4 C           0.4500   -0.2330    0.0000 C.ar    1  LIG1        0.1515
      5 O           1.3170    0.2500    0.0000 O.2     1  LIG1       -0.4501
      6 C           2.1790   -0.2330    0.0000 C.ar    1  LIG1        0.1826
      7 C          -0.4210    0.2500    0.0000 C.ar    1  LIG1        0.0745
      8 C          -1.2790   -0.2330    0.0000 C.ar    1  LIG1        0.1423
      9 O          -2.1630    0.2500    0.0000 O.3     1  LIG1       -0.4655
     10 C          -3.0500   -0.2330    0.0000 C.3     1  LIG1        0.2896
     11 C          -3.9170    0.2500    0.0000 C.2     1  LIG1        0.2702
     12 N          -3.9330    1.2500    0.0000 N.am    1  LIG1       -0.2765
     13 C          -4.7920    1.7540    0.0000 C.3     1  LIG1        0.0935
     14 C          -4.7920    2.7580    0.0000 C.3     1  LIG1        0.0216
     15 C          -3.9330    3.2580    0.0000 C.3     1  LIG1        0.0035
     16 C          -3.0670    2.7580    0.0000 C.3     1  LIG1        0.0216
     17 C          -3.0670    1.7540    0.0000 C.3     1  LIG1        0.0935
     18 O          -4.7710   -0.2330    0.0000 O.2     1  LIG1       -0.2708
     19 C          -1.2790   -1.2460    0.0000 C.ar    1  LIG1        0.0372
     20 C          -0.4210   -1.7500    0.0000 C.ar    1  LIG1        0.0094
     21 O           1.3170   -2.7540    0.0000 O.2     1  LIG1       -0.2864
     22 C           3.0540   -1.7500    0.0000 C.ar    1  LIG1        0.0061
     23 C           3.0540   -2.7540    0.0000 C.ar    1  LIG1        0.0002
     24 C           3.9080   -3.2540    0.0000 C.ar    1  LIG1        0.0000
     25 C           4.7630   -2.7540    0.0000 C.ar    1  LIG1        0.0000
     26 C           4.7880   -1.7500    0.0000 C.ar    1  LIG1        0.0000
     27 C           3.9250   -1.2460    0.0000 C.ar    1  LIG1        0.0002
@<TRIPOS>BOND
     1     1     2   ar
     2     1     6   ar
     3     1    22    1
     4     2     3   ar
     5     2    21    2
     6     3     4   ar
     7     3    20   ar
     8     4     5   ar
     9     4     7   ar
    10     5     6   ar
    11     7     8   ar
    12     8     9    1
    13     8    19   ar
    14     9    10    1
    15    10    11    1
    16    11    12   am
    17    11    18    2
    18    12    13    1
    19    12    17    1
    20    13    14    1
    21    14    15    1
    22    15    16    1
    23    16    17    1
    24    19    20   ar
    25    22    23   ar
    26    22    27   ar
    27    23    24   ar
    28    24    25   ar
    29    25    26   ar
    30    26    27   ar
