@<TRIPOS>MOLECULE
27803_ChemDiv_2712-5124
 28 31 0 0 0
SMALL
GASTEIGER
Energy = 0

@<TRIPOS>ATOM
      1 C           2.6080   -0.2460    0.0000 C.ar    1  LIG1        0.0766
      2 C           1.7170   -0.7380    0.0000 C.ar    1  LIG1        0.2015
      3 C           0.8460   -0.2460    0.0000 C.ar    1  LIG1        0.0737
      4 C           0.8540    0.7670    0.0000 C.ar    1  LIG1        0.1515
      5 O           1.7170    1.2670    0.0000 O.2     1  LIG1       -0.4501
      6 C           2.6080    0.7670    0.0000 C.ar    1  LIG1        0.1826
      7 C          -0.0040    1.2500    0.0000 C.ar    1  LIG1        0.0745
      8 C          -0.8920    0.7670    0.0000 C.ar    1  LIG1        0.1423
      9 O          -1.7540    1.2500    0.0000 O.3     1  LIG1       -0.4655
     10 C          -2.6040    0.7790    0.0000 C.3     1  LIG1        0.2896
     11 C          -3.5000    1.2500    0.0000 C.2     1  LIG1        0.2702
     12 N          -4.3500    0.7670    0.0000 N.am    1  LIG1       -0.2765
     13 C          -5.2210    1.2380    0.0000 C.3     1  LIG1        0.0935
     14 C          -6.0630    0.7420    0.0000 C.3     1  LIG1        0.0216
     15 C          -6.0630   -0.2500    0.0000 C.3     1  LIG1        0.0035
     16 C          -5.2000   -0.7500    0.0000 C.3     1  LIG1        0.0216
     17 C          -4.3330   -0.2460    0.0000 C.3     1  LIG1        0.0935
     18 O          -3.5000    2.2580    0.0000 O.2     1  LIG1       -0.2708
     19 C          -0.8920   -0.2460    0.0000 C.ar    1  LIG1        0.0372
     20 C          -0.0170   -0.7380    0.0000 C.ar    1  LIG1        0.0094
     21 O           1.7170   -1.7460    0.0000 O.2     1  LIG1       -0.2864
     22 C           3.4630   -0.7500    0.0000 C.ar    1  LIG1        0.0062
     23 C           4.3080   -0.2500    0.0000 C.ar    1  LIG1        0.0011
     24 C           5.1750   -0.7500    0.0000 C.ar    1  LIG1        0.0114
     25 C           5.1750   -1.7630    0.0000 C.ar    1  LIG1        0.0577
     26 C           4.3080   -2.2540    0.0000 C.ar    1  LIG1        0.0114
     27 C           3.4540   -1.7630    0.0000 C.ar    1  LIG1        0.0011
     28 CL          6.0630   -2.2540    0.0000 Cl      1  LIG1       -0.0822
@<TRIPOS>BOND
     1     1     2   ar
     2     1     6   ar
     3     1    22    1
     4     2     3   ar
     5     2    21    2
     6     3     4   ar
     7     3    20   ar
     8     4     5   ar
     9     4     7   ar
    10     5     6   ar
    11     7     8   ar
    12     8     9    1
    13     8    19   ar
    14     9    10    1
    15    10    11    1
    16    11    12   am
    17    11    18    2
    18    12    13    1
    19    12    17    1
    20    13    14    1
    21    14    15    1
    22    15    16    1
    23    16    17    1
    24    19    20   ar
    25    22    23   ar
    26    22    27   ar
    27    23    24   ar
    28    24    25   ar
    29    25    26   ar
    30    25    28    1
    31    26    27   ar
