@<TRIPOS>MOLECULE
27806_ChemDiv_5959-0230
 29 33 0 0 0
SMALL
GASTEIGER
Energy = 0

@<TRIPOS>ATOM
      1 N           0.8670    0.8170    0.0000 N.pl3   1  LIG1       -0.1126
      2 N           1.8170    1.0130    0.0000 N.2     1  LIG1       -0.1662
      3 C           2.3080    0.1710    0.0000 C.2     1  LIG1        0.0799
      4 C           1.6540   -0.5540    0.0000 C.3     1  LIG1        0.0754
      5 C           0.7670   -0.1630    0.0000 C.3     1  LIG1        0.1458
      6 C          -0.0830   -0.6540    0.0000 C.ar    1  LIG1        0.0280
      7 C          -0.0830   -1.6380    0.0000 C.ar    1  LIG1        0.1359
      8 N          -0.9420   -2.1250    0.0000 N.ar    1  LIG1       -0.2341
      9 C          -1.7920   -1.6380    0.0000 C.ar    1  LIG1        0.0854
     10 C          -1.7920   -0.6540    0.0000 C.ar    1  LIG1        0.0207
     11 C          -0.9420   -0.1630    0.0000 C.ar    1  LIG1        0.0014
     12 C          -2.6420   -0.1630    0.0000 C.ar    1  LIG1        0.0417
     13 C          -3.4960   -0.6540    0.0000 C.ar    1  LIG1        0.1765
     14 C          -3.4960   -1.6380    0.0000 C.ar    1  LIG1        0.1779
     15 C          -2.6420   -2.1250    0.0000 C.ar    1  LIG1        0.0593
     16 O          -4.3500   -2.1250    0.0000 O.3     1  LIG1       -0.4346
     17 C          -5.2290   -1.1460    0.0000 C.3     1  LIG1        0.4294
     18 O          -4.3500   -0.1630    0.0000 O.3     1  LIG1       -0.4346
     19 CL          0.7670   -2.1250    0.0000 Cl      1  LIG1       -0.0616
     20 C           3.2920    0.0670    0.0000 C.ar    1  LIG1        0.0152
     21 C           3.6880   -0.8170    0.0000 C.ar    1  LIG1        0.0012
     22 C           4.6710   -0.9170    0.0000 C.ar    1  LIG1        0.0000
     23 C           5.2250   -0.1250    0.0000 C.ar    1  LIG1        0.0000
     24 C           4.8290    0.7500    0.0000 C.ar    1  LIG1        0.0000
     25 C           3.8460    0.8500    0.0000 C.ar    1  LIG1        0.0012
     26 S           0.1170    1.4790    0.0000 S.O2    1  LIG1        0.0732
     27 O          -0.5750    0.7920    0.0000 O.2     1  LIG1       -0.1530
     28 O           0.8290    2.1290    0.0000 O.2     1  LIG1       -0.1530
     29 C          -0.5750    2.1290    0.0000 C.3     1  LIG1        0.2014
@<TRIPOS>BOND
     1     1     2    1
     2     1     5    1
     3     1    26    1
     4     2     3    2
     5     3     4    1
     6     3    20    1
     7     4     5    1
     8     5     6    1
     9     6     7   ar
    10     6    11   ar
    11     7     8   ar
    12     7    19    1
    13     8     9   ar
    14     9    10   ar
    15     9    15   ar
    16    10    11   ar
    17    10    12   ar
    18    12    13   ar
    19    13    14   ar
    20    13    18    1
    21    14    15   ar
    22    14    16    1
    23    16    17    1
    24    17    18    1
    25    20    21   ar
    26    20    25   ar
    27    21    22   ar
    28    22    23   ar
    29    23    24   ar
    30    24    25   ar
    31    26    27    2
    32    26    28    2
    33    26    29    1
