@<TRIPOS>MOLECULE
27808_ChemDiv_5959-0232
 32 36 0 0 0
SMALL
GASTEIGER
Energy = 0

@<TRIPOS>ATOM
      1 N           0.8460    0.6580    0.0000 N.am    1  LIG1       -0.1781
      2 N           1.8040    0.8540    0.0000 N.2     1  LIG1       -0.1798
      3 C           2.2960    0.0080    0.0000 C.2     1  LIG1        0.0786
      4 C           1.6330   -0.7210    0.0000 C.3     1  LIG1        0.0738
      5 C           0.7460   -0.3250    0.0000 C.3     1  LIG1        0.1295
      6 C          -0.1040   -0.8170    0.0000 C.ar    1  LIG1        0.0266
      7 C          -0.1040   -1.8040    0.0000 C.ar    1  LIG1        0.1359
      8 N          -0.9580   -2.2920    0.0000 N.ar    1  LIG1       -0.2341
      9 C          -1.8080   -1.8040    0.0000 C.ar    1  LIG1        0.0854
     10 C          -1.8080   -0.8170    0.0000 C.ar    1  LIG1        0.0207
     11 C          -0.9580   -0.3250    0.0000 C.ar    1  LIG1        0.0014
     12 C          -2.6670   -0.3250    0.0000 C.ar    1  LIG1        0.0417
     13 C          -3.5210   -0.8170    0.0000 C.ar    1  LIG1        0.1765
     14 C          -3.5210   -1.8040    0.0000 C.ar    1  LIG1        0.1779
     15 C          -2.6670   -2.2920    0.0000 C.ar    1  LIG1        0.0593
     16 O          -4.3750   -2.2920    0.0000 O.3     1  LIG1       -0.4346
     17 C          -5.2210   -1.3080    0.0000 C.3     1  LIG1        0.4294
     18 O          -4.3750   -0.3250    0.0000 O.3     1  LIG1       -0.4346
     19 CL          0.7460   -2.2920    0.0000 Cl      1  LIG1       -0.0616
     20 C           3.2830   -0.0960    0.0000 C.ar    1  LIG1        0.0151
     21 C           3.6710   -0.9790    0.0000 C.ar    1  LIG1        0.0012
     22 C           4.6540   -1.0790    0.0000 C.ar    1  LIG1        0.0000
     23 C           5.2170   -0.2880    0.0000 C.ar    1  LIG1        0.0000
     24 C           4.8210    0.5880    0.0000 C.ar    1  LIG1        0.0000
     25 C           3.8380    0.6880    0.0000 C.ar    1  LIG1        0.0012
     26 C           0.1290    1.3460    0.0000 C.2     1  LIG1        0.2449
     27 O           0.3250    2.2960    0.0000 O.2     1  LIG1       -0.2731
     28 C          -0.8290    1.0210    0.0000 C.3     1  LIG1        0.0929
     29 C          -1.5500    1.6790    0.0000 C.3     1  LIG1        0.0513
     30 C          -2.5000    1.3790    0.0000 C.2     1  LIG1        0.0508
     31 O          -3.2250    2.0380    0.0000 O.co2   1  LIG1       -0.5492
     32 O          -2.6960    0.4330    0.0000 O.co2   1  LIG1       -0.5492
@<TRIPOS>BOND
     1     1     2    1
     2     1     5    1
     3     1    26   am
     4     2     3    2
     5     3     4    1
     6     3    20    1
     7     4     5    1
     8     5     6    1
     9     6     7   ar
    10     6    11   ar
    11     7     8   ar
    12     7    19    1
    13     8     9   ar
    14     9    10   ar
    15     9    15   ar
    16    10    11   ar
    17    10    12   ar
    18    12    13   ar
    19    13    14   ar
    20    13    18    1
    21    14    15   ar
    22    14    16    1
    23    16    17    1
    24    17    18    1
    25    20    21   ar
    26    20    25   ar
    27    21    22   ar
    28    22    23   ar
    29    23    24   ar
    30    24    25   ar
    31    26    27    2
    32    26    28    1
    33    28    29    1
    34    29    30    1
    35    30    31   ar
    36    30    32   ar
