@<TRIPOS>MOLECULE
27814_ChemDiv_C301-1174
 19 22 0 0 0
SMALL
GASTEIGER
Energy = 0

@<TRIPOS>ATOM
      1 C          -0.0580   -0.6170    0.0000 C.ar    1  LIG1        0.1412
      2 N          -0.8960   -1.1290    0.0000 N.ar    1  LIG1       -0.1808
      3 C          -0.8960   -2.1540    0.0000 C.ar    1  LIG1        0.2554
      4 N          -1.8290   -2.4580    0.0000 N.ar    1  LIG1       -0.1861
      5 C          -2.4040   -1.6380    0.0000 C.ar    1  LIG1        0.2226
      6 N          -1.8290   -0.8130    0.0000 N.ar    1  LIG1       -0.1386
      7 N          -0.0580   -2.6630    0.0000 N.ar    1  LIG1       -0.2142
      8 C           0.8000   -2.1540    0.0000 C.ar    1  LIG1        0.0653
      9 C           0.8000   -1.1290    0.0000 C.ar    1  LIG1        0.0495
     10 C           1.6630   -2.6670    0.0000 C.3     1  LIG1        0.0523
     11 N          -0.0580    0.3960    0.0000 N.pl3   1  LIG1       -0.2722
     12 C           0.7500    0.9750    0.0000 C.ar    1  LIG1        0.0487
     13 C           0.4500    1.9330    0.0000 C.ar    1  LIG1       -0.0068
     14 C          -0.5540    1.9330    0.0000 C.3     1  LIG1        0.0494
     15 C          -0.8670    0.9750    0.0000 C.3     1  LIG1        0.1016
     16 C           1.1210    2.6710    0.0000 C.ar    1  LIG1       -0.0030
     17 C           2.0880    2.4630    0.0000 C.ar    1  LIG1       -0.0002
     18 C           2.4000    1.5170    0.0000 C.ar    1  LIG1        0.0013
     19 C           1.7330    0.7710    0.0000 C.ar    1  LIG1        0.0145
@<TRIPOS>BOND
     1     1     2   ar
     2     1     9   ar
     3     1    11    1
     4     2     3   ar
     5     2     6   ar
     6     3     4   ar
     7     3     7   ar
     8     4     5   ar
     9     5     6   ar
    10     7     8   ar
    11     8     9   ar
    12     8    10    1
    13    11    12    1
    14    11    15    1
    15    12    13   ar
    16    12    19   ar
    17    13    14    1
    18    13    16   ar
    19    14    15    1
    20    16    17   ar
    21    17    18   ar
    22    18    19   ar
