@<TRIPOS>MOLECULE
27819_ChemDiv_2189-1613
 20 22 0 0 0
SMALL
GASTEIGER
Energy = 0

@<TRIPOS>ATOM
      1 N           1.7830   -0.9960    0.0000 N.ar    1  LIG1       -0.1580
      2 C           2.0960   -1.9170    0.0000 C.ar    1  LIG1        0.2718
      3 O           1.2880   -2.5630    0.0000 O.2     1  LIG1       -0.4151
      4 C           0.4920   -1.9710    0.0000 C.ar    1  LIG1        0.2296
      5 N           0.7750   -0.9960    0.0000 N.ar    1  LIG1       -0.1277
      6 C          -0.4830   -2.1750    0.0000 C.3     1  LIG1        0.1132
      7 C          -1.1920   -1.4330    0.0000 C.ar    1  LIG1       -0.0129
      8 C          -0.8830   -0.4670    0.0000 C.ar    1  LIG1       -0.0038
      9 C          -1.5630    0.2210    0.0000 C.ar    1  LIG1       -0.0003
     10 C          -2.5750    0.0290    0.0000 C.ar    1  LIG1       -0.0000
     11 C          -2.8670   -0.9420    0.0000 C.ar    1  LIG1       -0.0003
     12 C          -2.1880   -1.6630    0.0000 C.ar    1  LIG1       -0.0038
     13 S           2.8630   -2.2290    0.0000 S.2     1  LIG1        0.0111
     14 C           2.3880   -0.2080    0.0000 C.3     1  LIG1        0.2787
     15 N           1.9540    0.7130    0.0000 N.4     1  LIG1        0.4008
     16 C           2.5540    1.5210    0.0000 C.3     1  LIG1        0.1742
     17 C           2.0960    2.4790    0.0000 C.3     1  LIG1        0.2048
     18 O           1.1210    2.5670    0.0000 O.3     1  LIG1       -0.3411
     19 C           0.5420    1.7380    0.0000 C.3     1  LIG1        0.2048
     20 C           0.9420    0.8170    0.0000 C.3     1  LIG1        0.1742
@<TRIPOS>BOND
     1     1     2   ar
     2     1     5   ar
     3     1    14    1
     4     2     3   ar
     5     2    13    2
     6     3     4   ar
     7     4     5   ar
     8     4     6    1
     9     6     7    1
    10     7     8   ar
    11     7    12   ar
    12     8     9   ar
    13     9    10   ar
    14    10    11   ar
    15    11    12   ar
    16    14    15    1
    17    15    16    1
    18    15    20    1
    19    16    17    1
    20    17    18    1
    21    18    19    1
    22    19    20    1
