@<TRIPOS>MOLECULE
27810_ChemDiv_C301-0836
 23 26 0 0 0
SMALL
GASTEIGER
Energy = 0

@<TRIPOS>ATOM
      1 N          -0.4790   -1.5830    0.0000 N.ar    1  LIG1       -0.1798
      2 C          -0.4790   -2.6040    0.0000 C.ar    1  LIG1        0.2551
      3 N          -1.4130   -2.9170    0.0000 N.ar    1  LIG1       -0.1933
      4 C          -1.9920   -2.0920    0.0000 C.ar    1  LIG1        0.1627
      5 N          -1.4130   -1.2630    0.0000 N.ar    1  LIG1       -0.1464
      6 C          -2.9790   -2.1000    0.0000 C.3     1  LIG1        0.0757
      7 N           0.3710   -3.1130    0.0000 N.ar    1  LIG1       -0.2142
      8 C           1.2290   -2.6040    0.0000 C.ar    1  LIG1        0.0653
      9 C           1.2290   -1.5830    0.0000 C.ar    1  LIG1        0.0510
     10 C           0.3710   -1.0630    0.0000 C.ar    1  LIG1        0.1575
     11 N           0.3710   -0.0580    0.0000 N.pl3   1  LIG1       -0.1927
     12 C           1.2420    0.4460    0.0000 C.ar    1  LIG1        0.0854
     13 C           1.2380    1.4380    0.0000 C.ar    1  LIG1        0.0633
     14 N           0.3750    1.9330    0.0000 N.pl3   1  LIG1       -0.3065
     15 C           0.2710    2.9210    0.0000 C.3     1  LIG1        0.0909
     16 C          -0.7040    3.1250    0.0000 C.3     1  LIG1        0.0232
     17 C          -1.2000    2.2630    0.0000 C.3     1  LIG1        0.0232
     18 C          -0.5330    1.5250    0.0000 C.3     1  LIG1        0.0909
     19 C           2.1000    1.9420    0.0000 C.ar    1  LIG1        0.0158
     20 C           2.9750    1.4380    0.0000 C.ar    1  LIG1        0.0014
     21 C           2.9750    0.4380    0.0000 C.ar    1  LIG1        0.0014
     22 C           2.1040   -0.0670    0.0000 C.ar    1  LIG1        0.0178
     23 C           2.0880   -3.1210    0.0000 C.3     1  LIG1        0.0523
@<TRIPOS>BOND
     1     1     2   ar
     2     1     5   ar
     3     1    10   ar
     4     2     3   ar
     5     2     7   ar
     6     3     4   ar
     7     4     5   ar
     8     4     6    1
     9     7     8   ar
    10     8     9   ar
    11     8    23    1
    12     9    10   ar
    13    10    11    1
    14    11    12    1
    15    12    13   ar
    16    12    22   ar
    17    13    14    1
    18    13    19   ar
    19    14    15    1
    20    14    18    1
    21    15    16    1
    22    16    17    1
    23    17    18    1
    24    19    20   ar
    25    20    21   ar
    26    21    22   ar
