@<TRIPOS>MOLECULE
27815_ChemDiv_2189-1170
 20 22 0 0 0
SMALL
GASTEIGER
Energy = 0

@<TRIPOS>ATOM
      1 C          -1.2380   -1.2880    0.0000 C.2     1  LIG1        0.2372
      2 N          -1.7500   -0.4380    0.0000 N.am    1  LIG1       -0.2737
      3 C          -1.2210    0.4040    0.0000 C.3     1  LIG1        0.1255
      4 C          -1.7750    1.2500    0.0000 C.3     1  LIG1        0.1636
      5 O          -2.7750    1.2500    0.0000 O.3     1  LIG1       -0.3501
      6 C          -3.2580    0.3500    0.0000 C.3     1  LIG1        0.1636
      7 C          -2.7580   -0.4830    0.0000 C.3     1  LIG1        0.1255
      8 C          -0.2670   -1.2830    0.0000 C.3     1  LIG1        0.1486
      9 S           0.2420   -0.3670    0.0000 S.3     1  LIG1       -0.0834
     10 C           1.2040   -0.3670    0.0000 C.ar    1  LIG1        0.1287
     11 N           1.7040   -1.2040    0.0000 N.ar    1  LIG1       -0.1416
     12 N           2.7170   -1.2500    0.0000 N.ar    1  LIG1       -0.1459
     13 C           3.2420   -0.3670    0.0000 C.ar    1  LIG1        0.1222
     14 C           2.7170    0.4290    0.0000 C.ar    1  LIG1        0.0229
     15 C           1.7170    0.4290    0.0000 C.ar    1  LIG1        0.0268
     16 C           1.2040    1.3250    0.0000 C.ar    1  LIG1        0.0021
     17 C           1.7040    2.1790    0.0000 C.ar    1  LIG1        0.0001
     18 C           2.7330    2.1790    0.0000 C.ar    1  LIG1        0.0001
     19 C           3.2540    1.3250    0.0000 C.ar    1  LIG1        0.0017
     20 O          -1.7210   -2.1750    0.0000 O.2     1  LIG1       -0.2739
@<TRIPOS>BOND
     1     1     2   am
     2     1     8    1
     3     1    20    2
     4     2     3    1
     5     2     7    1
     6     3     4    1
     7     4     5    1
     8     5     6    1
     9     6     7    1
    10     8     9    1
    11     9    10    1
    12    10    11   ar
    13    10    15   ar
    14    11    12   ar
    15    12    13   ar
    16    13    14   ar
    17    14    15   ar
    18    14    19   ar
    19    15    16   ar
    20    16    17   ar
    21    17    18   ar
    22    18    19   ar
