@<TRIPOS>MOLECULE
27813_ChemDiv_6737-1234
 35 39 0 0 0
SMALL
GASTEIGER
Energy = 0

@<TRIPOS>ATOM
      1 C          -1.3040   -0.4960    0.0000 C.ar    1  LIG1        0.1123
      2 C          -1.3040    0.5040    0.0000 C.ar    1  LIG1        0.1562
      3 C          -2.1710    1.0040    0.0000 C.ar    1  LIG1        0.1078
      4 C          -3.0170    0.5040    0.0000 C.ar    1  LIG1        0.2048
      5 C          -3.0170   -0.4960    0.0000 C.ar    1  LIG1        0.1122
      6 C          -2.1710   -0.9920    0.0000 C.ar    1  LIG1        0.2063
      7 O          -2.1710   -1.9880    0.0000 O.3     1  LIG1       -0.2864
      8 C          -3.8830   -0.9960    0.0000 C.3     1  LIG1        0.1726
      9 N          -3.8830   -1.9960    0.0000 N.4     1  LIG1        0.3808
     10 C          -4.7460   -2.4920    0.0000 C.3     1  LIG1        0.1390
     11 C          -4.7460   -3.4960    0.0000 C.3     1  LIG1        0.0629
     12 C          -3.8830   -3.9920    0.0000 C.3     1  LIG1        0.0123
     13 C          -3.0170   -3.4960    0.0000 C.3     1  LIG1        0.0629
     14 C          -3.0170   -2.4920    0.0000 C.3     1  LIG1        0.1390
     15 O          -3.8960    1.0040    0.0000 O.3     1  LIG1       -0.2866
     16 C          -2.1580    2.0040    0.0000 C.3     1  LIG1        0.1725
     17 N          -3.0290    2.5080    0.0000 N.4     1  LIG1        0.3808
     18 C          -3.0290    3.5040    0.0000 C.3     1  LIG1        0.1390
     19 C          -3.8960    3.9960    0.0000 C.3     1  LIG1        0.0629
     20 C          -4.7670    3.4920    0.0000 C.3     1  LIG1        0.0123
     21 C          -4.7580    2.4960    0.0000 C.3     1  LIG1        0.0629
     22 C          -3.8960    1.9920    0.0000 C.3     1  LIG1        0.1390
     23 O          -0.4420    1.0250    0.0000 O.2     1  LIG1       -0.4501
     24 C           0.4380    0.5210    0.0000 C.ar    1  LIG1        0.1826
     25 C           0.4380   -0.4880    0.0000 C.ar    1  LIG1        0.0767
     26 C          -0.4290   -0.9920    0.0000 C.ar    1  LIG1        0.2046
     27 O          -0.4290   -1.9830    0.0000 O.2     1  LIG1       -0.2863
     28 C           1.3000   -0.9920    0.0000 C.ar    1  LIG1        0.0063
     29 C           2.1670   -0.4750    0.0000 C.ar    1  LIG1        0.0033
     30 C           3.0250   -0.9790    0.0000 C.ar    1  LIG1        0.0369
     31 C           3.0330   -1.9830    0.0000 C.ar    1  LIG1        0.1387
     32 C           2.1670   -2.4790    0.0000 C.ar    1  LIG1        0.0369
     33 C           1.3000   -1.9880    0.0000 C.ar    1  LIG1        0.0033
     34 O           3.8960   -2.4790    0.0000 O.3     1  LIG1       -0.4714
     35 C           4.7630   -1.9750    0.0000 C.3     1  LIG1        0.2525
@<TRIPOS>BOND
     1     1     2   ar
     2     1     6   ar
     3     1    26   ar
     4     2     3   ar
     5     2    23   ar
     6     3     4   ar
     7     3    16    1
     8     4     5   ar
     9     4    15    1
    10     5     6   ar
    11     5     8    1
    12     6     7    1
    13     8     9    1
    14     9    10    1
    15     9    14    1
    16    10    11    1
    17    11    12    1
    18    12    13    1
    19    13    14    1
    20    16    17    1
    21    17    18    1
    22    17    22    1
    23    18    19    1
    24    19    20    1
    25    20    21    1
    26    21    22    1
    27    23    24   ar
    28    24    25   ar
    29    25    26   ar
    30    25    28    1
    31    26    27    2
    32    28    29   ar
    33    28    33   ar
    34    29    30   ar
    35    30    31   ar
    36    31    32   ar
    37    31    34    1
    38    32    33   ar
    39    34    35    1
