@<TRIPOS>MOLECULE
27816_ChemDiv_C301-3154
 27 30 0 0 0
SMALL
GASTEIGER
Energy = 0

@<TRIPOS>ATOM
      1 N          -3.5630   -1.7460    0.0000 N.ar    1  LIG1       -0.1794
      2 C          -3.5500   -2.7500    0.0000 C.ar    1  LIG1        0.2554
      3 N          -4.5000   -3.0670    0.0000 N.ar    1  LIG1       -0.1861
      4 C          -5.0960   -2.2500    0.0000 C.ar    1  LIG1        0.2226
      5 N          -4.5170   -1.4330    0.0000 N.ar    1  LIG1       -0.1385
      6 N          -2.6880   -3.2460    0.0000 N.ar    1  LIG1       -0.2142
      7 C          -1.8250   -2.7500    0.0000 C.ar    1  LIG1        0.0653
      8 C          -1.8250   -1.7460    0.0000 C.ar    1  LIG1        0.0510
      9 C          -2.6880   -1.2380    0.0000 C.ar    1  LIG1        0.1575
     10 N          -2.6880   -0.2420    0.0000 N.pl3   1  LIG1       -0.1940
     11 C          -1.8170    0.2630    0.0000 C.ar    1  LIG1        0.0721
     12 C          -0.9500   -0.2420    0.0000 C.ar    1  LIG1        0.0167
     13 C          -0.0790    0.2580    0.0000 C.ar    1  LIG1        0.0059
     14 C          -0.0790    1.2630    0.0000 C.ar    1  LIG1        0.0555
     15 C           0.7880    1.7630    0.0000 C.2     1  LIG1        0.2690
     16 N           1.6630    1.2630    0.0000 N.am    1  LIG1       -0.1754
     17 C           2.5130    1.7630    0.0000 C.ar    1  LIG1        0.0737
     18 C           3.3750    1.2630    0.0000 C.ar    1  LIG1        0.0163
     19 C           4.2290    1.7540    0.0000 C.ar    1  LIG1       -0.0029
     20 C           4.2290    2.7540    0.0000 C.ar    1  LIG1       -0.0218
     21 C           3.3670    3.2420    0.0000 C.ar    1  LIG1       -0.0029
     22 C           2.5130    2.7420    0.0000 C.ar    1  LIG1        0.0163
     23 C           5.0920    3.2500    0.0000 C.3     1  LIG1        0.0310
     24 O           0.7880    2.7670    0.0000 O.2     1  LIG1       -0.2680
     25 C          -0.9500    1.7710    0.0000 C.ar    1  LIG1        0.0059
     26 C          -1.8170    1.2630    0.0000 C.ar    1  LIG1        0.0167
     27 C          -0.9500   -3.2460    0.0000 C.3     1  LIG1        0.0523
@<TRIPOS>BOND
     1     1     2   ar
     2     1     5   ar
     3     1     9   ar
     4     2     3   ar
     5     2     6   ar
     6     3     4   ar
     7     4     5   ar
     8     6     7   ar
     9     7     8   ar
    10     7    27    1
    11     8     9   ar
    12     9    10    1
    13    10    11    1
    14    11    12   ar
    15    11    26   ar
    16    12    13   ar
    17    13    14   ar
    18    14    15    1
    19    14    25   ar
    20    15    16   am
    21    15    24    2
    22    16    17    1
    23    17    18   ar
    24    17    22   ar
    25    18    19   ar
    26    19    20   ar
    27    20    21   ar
    28    20    23    1
    29    21    22   ar
    30    25    26   ar
