@<TRIPOS>MOLECULE
27818_ChemDiv_C301-3466
 24 27 0 0 0
SMALL
GASTEIGER
Energy = 0

@<TRIPOS>ATOM
      1 N          -2.6170   -1.5000    0.0000 N.ar    1  LIG1       -0.1794
      2 C          -2.6170   -2.4960    0.0000 C.ar    1  LIG1        0.2554
      3 N          -3.5750   -2.8080    0.0000 N.ar    1  LIG1       -0.1861
      4 C          -4.1670   -2.0000    0.0000 C.ar    1  LIG1        0.2226
      5 N          -3.5750   -1.1920    0.0000 N.ar    1  LIG1       -0.1385
      6 N          -1.7580   -2.9960    0.0000 N.ar    1  LIG1       -0.2142
      7 C          -0.8920   -2.4960    0.0000 C.ar    1  LIG1        0.0653
      8 C          -0.8920   -1.5000    0.0000 C.ar    1  LIG1        0.0510
      9 C          -1.7580   -1.0000    0.0000 C.ar    1  LIG1        0.1575
     10 N          -1.7580    0.0080    0.0000 N.pl3   1  LIG1       -0.1940
     11 C          -0.8880    0.5080    0.0000 C.ar    1  LIG1        0.0721
     12 C          -0.8920    1.5000    0.0000 C.ar    1  LIG1        0.0167
     13 C          -0.0290    2.0040    0.0000 C.ar    1  LIG1        0.0061
     14 C           0.8420    1.5040    0.0000 C.ar    1  LIG1        0.0566
     15 C           1.7040    2.0040    0.0000 C.2     1  LIG1        0.2659
     16 N           2.5670    1.5040    0.0000 N.ar    1  LIG1       -0.2537
     17 C           2.6880    0.5210    0.0000 C.ar    1  LIG1        0.1852
     18 N           3.6670    0.3170    0.0000 N.ar    1  LIG1       -0.2219
     19 C           4.1630    1.1880    0.0000 C.ar    1  LIG1        0.1197
     20 C           3.4830    1.9210    0.0000 C.ar    1  LIG1        0.1051
     21 O           1.7040    3.0080    0.0000 O.2     1  LIG1       -0.2666
     22 C           0.8330    0.5040    0.0000 C.ar    1  LIG1        0.0061
     23 C          -0.0290   -0.0040    0.0000 C.ar    1  LIG1        0.0167
     24 C          -0.0290   -3.0040    0.0000 C.3     1  LIG1        0.0523
@<TRIPOS>BOND
     1     1     2   ar
     2     1     5   ar
     3     1     9   ar
     4     2     3   ar
     5     2     6   ar
     6     3     4   ar
     7     4     5   ar
     8     6     7   ar
     9     7     8   ar
    10     7    24    1
    11     8     9   ar
    12     9    10    1
    13    10    11    1
    14    11    12   ar
    15    11    23   ar
    16    12    13   ar
    17    13    14   ar
    18    14    15    1
    19    14    22   ar
    20    15    16   am
    21    15    21    2
    22    16    17   ar
    23    16    20   ar
    24    17    18   ar
    25    18    19   ar
    26    19    20   ar
    27    22    23   ar
