@<TRIPOS>MOLECULE
27812_ChemDiv_C301-0940
 25 28 0 0 0
SMALL
GASTEIGER
Energy = 0

@<TRIPOS>ATOM
      1 N          -2.1290   -1.4920    0.0000 N.ar    1  LIG1       -0.1798
      2 C          -2.1290   -2.5170    0.0000 C.ar    1  LIG1        0.2551
      3 N          -3.0670   -2.8170    0.0000 N.ar    1  LIG1       -0.1933
      4 C          -3.6420   -1.9920    0.0000 C.ar    1  LIG1        0.1627
      5 N          -3.0670   -1.1670    0.0000 N.ar    1  LIG1       -0.1464
      6 C          -4.6330   -2.0080    0.0000 C.3     1  LIG1        0.0757
      7 N          -1.2880   -3.0210    0.0000 N.ar    1  LIG1       -0.2142
      8 C          -0.4290   -2.5170    0.0000 C.ar    1  LIG1        0.0653
      9 C          -0.4290   -1.4920    0.0000 C.ar    1  LIG1        0.0510
     10 C          -1.2880   -0.9670    0.0000 C.ar    1  LIG1        0.1575
     11 N          -1.2880    0.0380    0.0000 N.pl3   1  LIG1       -0.1940
     12 C          -0.4130    0.5330    0.0000 C.ar    1  LIG1        0.0721
     13 C          -0.4130    1.5290    0.0000 C.ar    1  LIG1        0.0167
     14 C           0.4420    2.0380    0.0000 C.ar    1  LIG1        0.0061
     15 C           1.3250    1.5290    0.0000 C.ar    1  LIG1        0.0566
     16 C           2.1880    2.0380    0.0000 C.2     1  LIG1        0.2659
     17 N           3.0500    1.5420    0.0000 N.ar    1  LIG1       -0.2537
     18 C           3.1630    0.5500    0.0000 C.ar    1  LIG1        0.1852
     19 N           4.1330    0.3420    0.0000 N.ar    1  LIG1       -0.2219
     20 C           4.6290    1.2130    0.0000 C.ar    1  LIG1        0.1197
     21 C           3.9580    1.9500    0.0000 C.ar    1  LIG1        0.1051
     22 O           2.1880    3.0330    0.0000 O.2     1  LIG1       -0.2666
     23 C           1.3130    0.5330    0.0000 C.ar    1  LIG1        0.0061
     24 C           0.4540    0.0290    0.0000 C.ar    1  LIG1        0.0167
     25 C           0.4250   -3.0290    0.0000 C.3     1  LIG1        0.0523
@<TRIPOS>BOND
     1     1     2   ar
     2     1     5   ar
     3     1    10   ar
     4     2     3   ar
     5     2     7   ar
     6     3     4   ar
     7     4     5   ar
     8     4     6    1
     9     7     8   ar
    10     8     9   ar
    11     8    25    1
    12     9    10   ar
    13    10    11    1
    14    11    12    1
    15    12    13   ar
    16    12    24   ar
    17    13    14   ar
    18    14    15   ar
    19    15    16    1
    20    15    23   ar
    21    16    17   am
    22    16    22    2
    23    17    18   ar
    24    17    21   ar
    25    18    19   ar
    26    19    20   ar
    27    20    21   ar
    28    23    24   ar
