@<TRIPOS>MOLECULE
27821_ChemDiv_6232-2863
 21 23 0 0 0
SMALL
GASTEIGER
Energy = 0

@<TRIPOS>ATOM
      1 N          -1.4960    0.0000    0.0000 N.ar    1  LIG1       -0.1579
      2 C          -0.8670    0.7710    0.0000 C.ar    1  LIG1        0.2719
      3 O           0.0710    0.4080    0.0000 O.2     1  LIG1       -0.4116
      4 C          -0.0170   -0.5460    0.0000 C.ar    1  LIG1        0.2690
      5 N          -0.9830   -0.8210    0.0000 N.ar    1  LIG1       -0.1242
      6 C           0.7710   -1.1880    0.0000 C.3     1  LIG1        0.2912
      7 O           1.7040   -0.8210    0.0000 O.3     1  LIG1       -0.4654
      8 C           2.4670   -1.4130    0.0000 C.ar    1  LIG1        0.1393
      9 C           3.4080   -1.0040    0.0000 C.ar    1  LIG1        0.0369
     10 C           4.1960   -1.5830    0.0000 C.ar    1  LIG1        0.0031
     11 C           4.0420   -2.6380    0.0000 C.ar    1  LIG1        0.0002
     12 C           3.1290   -3.0000    0.0000 C.ar    1  LIG1        0.0031
     13 C           2.3460   -2.4130    0.0000 C.ar    1  LIG1        0.0369
     14 S          -1.0790    1.7710    0.0000 S.2     1  LIG1        0.0111
     15 C          -2.5040    0.1790    0.0000 C.3     1  LIG1        0.2787
     16 N          -2.8670    1.1380    0.0000 N.4     1  LIG1        0.4008
     17 C          -2.1960    1.9080    0.0000 C.3     1  LIG1        0.1742
     18 C          -2.5920    2.8210    0.0000 C.3     1  LIG1        0.2048
     19 O          -3.5630    3.0040    0.0000 O.3     1  LIG1       -0.3411
     20 C          -4.2000    2.2290    0.0000 C.3     1  LIG1        0.2048
     21 C          -3.8330    1.3170    0.0000 C.3     1  LIG1        0.1742
@<TRIPOS>BOND
     1     1     2   ar
     2     1     5   ar
     3     1    15    1
     4     2     3   ar
     5     2    14    2
     6     3     4   ar
     7     4     5   ar
     8     4     6    1
     9     6     7    1
    10     7     8    1
    11     8     9   ar
    12     8    13   ar
    13     9    10   ar
    14    10    11   ar
    15    11    12   ar
    16    12    13   ar
    17    15    16    1
    18    16    17    1
    19    16    21    1
    20    17    18    1
    21    18    19    1
    22    19    20    1
    23    20    21    1
