@<TRIPOS>MOLECULE
27820_ChemDiv_C301-3537
 33 37 0 0 0
SMALL
GASTEIGER
Energy = 0

@<TRIPOS>ATOM
      1 N          -3.9960   -1.5040    0.0000 N.ar    1  LIG1       -0.1794
      2 C          -3.9960   -2.5040    0.0000 C.ar    1  LIG1        0.2554
      3 N          -4.9460   -2.8170    0.0000 N.ar    1  LIG1       -0.1861
      4 C          -5.5330   -1.9960    0.0000 C.ar    1  LIG1        0.2226
      5 N          -4.9460   -1.1920    0.0000 N.ar    1  LIG1       -0.1385
      6 N          -3.1250   -3.0040    0.0000 N.ar    1  LIG1       -0.2142
      7 C          -2.2580   -2.5040    0.0000 C.ar    1  LIG1        0.0653
      8 C          -2.2580   -1.5040    0.0000 C.ar    1  LIG1        0.0510
      9 C          -3.1250   -0.9960    0.0000 C.ar    1  LIG1        0.1575
     10 N          -3.1250    0.0000    0.0000 N.pl3   1  LIG1       -0.1940
     11 C          -2.2580    0.5040    0.0000 C.ar    1  LIG1        0.0721
     12 C          -2.2580    1.5000    0.0000 C.ar    1  LIG1        0.0167
     13 C          -1.4000    2.0000    0.0000 C.ar    1  LIG1        0.0058
     14 C          -0.5290    1.5130    0.0000 C.ar    1  LIG1        0.0537
     15 C           0.3380    2.0080    0.0000 C.2     1  LIG1        0.2491
     16 N           1.2080    1.5130    0.0000 N.am    1  LIG1       -0.2726
     17 C           1.2080    0.5000    0.0000 C.3     1  LIG1        0.1151
     18 C           2.0750    0.0000    0.0000 C.3     1  LIG1        0.1123
     19 N           2.9500    0.5040    0.0000 N.pl3   1  LIG1       -0.3043
     20 C           3.8080    0.0080    0.0000 C.ar    1  LIG1        0.0436
     21 C           4.6710    0.5170    0.0000 C.ar    1  LIG1       -0.0085
     22 C           5.5290    0.0170    0.0000 C.ar    1  LIG1       -0.0034
     23 C           5.5290   -0.9790    0.0000 C.ar    1  LIG1       -0.0045
     24 C           4.6710   -1.4790    0.0000 C.ar    1  LIG1       -0.0206
     25 C           3.8080   -0.9880    0.0000 C.ar    1  LIG1        0.0099
     26 C           4.6710   -2.4750    0.0000 C.3     1  LIG1        0.0311
     27 C           4.6540    1.5130    0.0000 C.3     1  LIG1        0.0323
     28 C           2.9460    1.5130    0.0000 C.3     1  LIG1        0.1123
     29 C           2.0670    2.0170    0.0000 C.3     1  LIG1        0.1151
     30 O           0.3380    3.0080    0.0000 O.2     1  LIG1       -0.2699
     31 C          -0.5380    0.5000    0.0000 C.ar    1  LIG1        0.0058
     32 C          -1.4000    0.0000    0.0000 C.ar    1  LIG1        0.0167
     33 C          -1.4000   -3.0040    0.0000 C.3     1  LIG1        0.0523
@<TRIPOS>BOND
     1     1     2   ar
     2     1     5   ar
     3     1     9   ar
     4     2     3   ar
     5     2     6   ar
     6     3     4   ar
     7     4     5   ar
     8     6     7   ar
     9     7     8   ar
    10     7    33    1
    11     8     9   ar
    12     9    10    1
    13    10    11    1
    14    11    12   ar
    15    11    32   ar
    16    12    13   ar
    17    13    14   ar
    18    14    15    1
    19    14    31   ar
    20    15    16   am
    21    15    30    2
    22    16    17    1
    23    16    29    1
    24    17    18    1
    25    18    19    1
    26    19    20    1
    27    19    28    1
    28    20    21   ar
    29    20    25   ar
    30    21    22   ar
    31    21    27    1
    32    22    23   ar
    33    23    24   ar
    34    24    25   ar
    35    24    26    1
    36    28    29    1
    37    31    32   ar
