@<TRIPOS>MOLECULE
27824_ChemDiv_C301-4114
 23 26 0 0 0
SMALL
GASTEIGER
Energy = 0

@<TRIPOS>ATOM
      1 N          -0.6420   -1.7500    0.0000 N.ar    1  LIG1       -0.1798
      2 C          -0.6420   -2.7500    0.0000 C.ar    1  LIG1        0.2551
      3 N          -1.5960   -3.0630    0.0000 N.ar    1  LIG1       -0.1933
      4 C          -2.1790   -2.2500    0.0000 C.ar    1  LIG1        0.1623
      5 N          -1.5960   -1.4420    0.0000 N.ar    1  LIG1       -0.1464
      6 C          -3.1790   -2.2500    0.0000 C.3     1  LIG1        0.0677
      7 C          -3.6790   -1.3880    0.0000 C.3     1  LIG1        0.0085
      8 N           0.2130   -3.2500    0.0000 N.ar    1  LIG1       -0.2142
      9 C           1.0750   -2.7500    0.0000 C.ar    1  LIG1        0.0653
     10 C           1.0750   -1.7500    0.0000 C.ar    1  LIG1        0.0510
     11 C           0.2130   -1.2500    0.0000 C.ar    1  LIG1        0.1575
     12 N           0.2130   -0.2500    0.0000 N.pl3   1  LIG1       -0.1939
     13 C           1.0790    0.2540    0.0000 C.ar    1  LIG1        0.0753
     14 C           1.0750    1.2500    0.0000 C.ar    1  LIG1        0.0566
     15 C           1.9380    1.7500    0.0000 C.ar    1  LIG1        0.1737
     16 C           2.8130    1.2500    0.0000 C.ar    1  LIG1        0.1725
     17 O           3.6750    1.7500    0.0000 O.3     1  LIG1       -0.4684
     18 C           3.6750    2.7580    0.0000 C.3     1  LIG1        0.2526
     19 C           2.8040    3.2540    0.0000 C.3     1  LIG1        0.2526
     20 O           1.9330    2.7500    0.0000 O.3     1  LIG1       -0.4683
     21 C           2.8130    0.2500    0.0000 C.ar    1  LIG1        0.0414
     22 C           1.9500   -0.2500    0.0000 C.ar    1  LIG1        0.0199
     23 C           1.9500   -3.2500    0.0000 C.3     1  LIG1        0.0523
@<TRIPOS>BOND
     1     1     2   ar
     2     1     5   ar
     3     1    11   ar
     4     2     3   ar
     5     2     8   ar
     6     3     4   ar
     7     4     5   ar
     8     4     6    1
     9     6     7    1
    10     8     9   ar
    11     9    10   ar
    12     9    23    1
    13    10    11   ar
    14    11    12    1
    15    12    13    1
    16    13    14   ar
    17    13    22   ar
    18    14    15   ar
    19    15    16   ar
    20    15    20    1
    21    16    17    1
    22    16    21   ar
    23    17    18    1
    24    18    19    1
    25    19    20    1
    26    21    22   ar
