@<TRIPOS>MOLECULE
27822_ChemDiv_C301-3969
 21 23 0 0 0
SMALL
GASTEIGER
Energy = 0

@<TRIPOS>ATOM
      1 N          -1.3250   -0.9960    0.0000 N.ar    1  LIG1       -0.1798
      2 C          -1.3250   -2.0040    0.0000 C.ar    1  LIG1        0.2551
      3 N          -2.2750   -2.3080    0.0000 N.ar    1  LIG1       -0.1933
      4 C          -2.8670   -1.4920    0.0000 C.ar    1  LIG1        0.1627
      5 N          -2.2750   -0.6880    0.0000 N.ar    1  LIG1       -0.1464
      6 C          -3.8710   -1.4920    0.0000 C.3     1  LIG1        0.0757
      7 N          -0.4630   -2.4920    0.0000 N.ar    1  LIG1       -0.2142
      8 C           0.4000   -2.0040    0.0000 C.ar    1  LIG1        0.0653
      9 C           0.4000   -0.9960    0.0000 C.ar    1  LIG1        0.0510
     10 C          -0.4630   -0.4880    0.0000 C.ar    1  LIG1        0.1575
     11 N          -0.4500    0.5080    0.0000 N.pl3   1  LIG1       -0.1940
     12 C           0.4130    1.0080    0.0000 C.ar    1  LIG1        0.0722
     13 C           1.2750    0.5080    0.0000 C.ar    1  LIG1        0.0177
     14 C           2.1420    1.0040    0.0000 C.ar    1  LIG1        0.0153
     15 C           3.0040    0.5040    0.0000 C.2     1  LIG1        0.0729
     16 O           3.8670    1.0040    0.0000 O.co2   1  LIG1       -0.5446
     17 O           3.0040   -0.4960    0.0000 O.co2   1  LIG1       -0.5446
     18 C           2.1420    2.0080    0.0000 C.ar    1  LIG1        0.0012
     19 C           1.2750    2.5040    0.0000 C.ar    1  LIG1        0.0014
     20 C           0.4130    2.0080    0.0000 C.ar    1  LIG1        0.0166
     21 C           1.2790   -2.5000    0.0000 C.3     1  LIG1        0.0523
@<TRIPOS>BOND
     1     1     2   ar
     2     1     5   ar
     3     1    10   ar
     4     2     3   ar
     5     2     7   ar
     6     3     4   ar
     7     4     5   ar
     8     4     6    1
     9     7     8   ar
    10     8     9   ar
    11     8    21    1
    12     9    10   ar
    13    10    11    1
    14    11    12    1
    15    12    13   ar
    16    12    20   ar
    17    13    14   ar
    18    14    15    1
    19    14    18   ar
    20    15    16   ar
    21    15    17   ar
    22    18    19   ar
    23    19    20   ar
