@<TRIPOS>MOLECULE
27837_ChemDiv_2291-1610
 25 27 0 0 0
SMALL
GASTEIGER
Energy = 0

@<TRIPOS>ATOM
      1 C          -1.7040    1.2580    0.0000 C.ar    1  LIG1        0.0803
      2 C          -1.9960    0.3080    0.0000 C.ar    1  LIG1        0.0697
      3 N          -1.1920   -0.2420    0.0000 N.ar    1  LIG1       -0.2268
      4 C          -0.3830    0.3420    0.0000 C.ar    1  LIG1        0.1858
      5 S          -0.7290    1.2580    0.0000 S.2     1  LIG1       -0.0472
      6 N           0.6290    0.1170    0.0000 N.am    1  LIG1       -0.1505
      7 C           0.9460   -0.8500    0.0000 C.2     1  LIG1        0.2709
      8 C           1.8750   -1.0040    0.0000 C.ar    1  LIG1        0.0615
      9 C           2.5750   -0.2750    0.0000 C.ar    1  LIG1        0.0417
     10 C           3.5040   -0.4670    0.0000 C.ar    1  LIG1        0.1419
     11 C           3.7960   -1.3670    0.0000 C.ar    1  LIG1        0.0738
     12 C           3.1170   -2.1210    0.0000 C.ar    1  LIG1        0.1419
     13 C           2.1670   -1.9250    0.0000 C.ar    1  LIG1        0.0417
     14 O           3.4460   -2.9210    0.0000 O.3     1  LIG1       -0.4713
     15 C           4.6130   -2.9630    0.0000 C.3     1  LIG1        0.2525
     16 O           4.1290    0.3830    0.0000 O.3     1  LIG1       -0.4713
     17 C           3.5290    1.3290    0.0000 C.3     1  LIG1        0.2525
     18 O           0.2750   -1.6000    0.0000 O.2     1  LIG1       -0.2679
     19 C          -2.9420    0.0670    0.0000 C.3     1  LIG1        0.0469
     20 C          -3.6460    0.7960    0.0000 C.3     1  LIG1        0.0129
     21 C          -3.3540    1.7420    0.0000 C.3     1  LIG1        0.0701
     22 C          -2.3500    1.9880    0.0000 C.2     1  LIG1        0.1802
     23 O          -2.0580    2.9670    0.0000 O.2     1  LIG1       -0.2908
     24 C          -4.2040   -0.0460    0.0000 C.3     1  LIG1        0.0008
     25 C          -4.6170    0.5750    0.0000 C.3     1  LIG1        0.0008
@<TRIPOS>BOND
     1     1     2   ar
     2     1     5   ar
     3     1    22    1
     4     2     3   ar
     5     2    19    1
     6     3     4   ar
     7     4     5   ar
     8     4     6    1
     9     6     7   am
    10     7     8    1
    11     7    18    2
    12     8     9   ar
    13     8    13   ar
    14     9    10   ar
    15    10    11   ar
    16    10    16    1
    17    11    12   ar
    18    12    13   ar
    19    12    14    1
    20    14    15    1
    21    16    17    1
    22    19    20    1
    23    20    21    1
    24    20    24    1
    25    20    25    1
    26    21    22    1
    27    22    23    2
