@<TRIPOS>MOLECULE
27835_ChemDiv_2291-1605
 22 24 0 0 0
SMALL
GASTEIGER
Energy = 0

@<TRIPOS>ATOM
      1 C          -1.8790    0.8380    0.0000 C.ar    1  LIG1        0.0803
      2 C          -2.1710   -0.1130    0.0000 C.ar    1  LIG1        0.0697
      3 N          -1.3670   -0.6630    0.0000 N.ar    1  LIG1       -0.2268
      4 C          -0.5580   -0.0790    0.0000 C.ar    1  LIG1        0.1858
      5 S          -0.9040    0.8380    0.0000 S.2     1  LIG1       -0.0472
      6 N           0.4540   -0.3040    0.0000 N.am    1  LIG1       -0.1505
      7 C           0.7710   -1.2710    0.0000 C.2     1  LIG1        0.2707
      8 C           1.7040   -1.4250    0.0000 C.ar    1  LIG1        0.0556
      9 C           1.9960   -2.3460    0.0000 C.ar    1  LIG1        0.0069
     10 C           2.9420   -2.5420    0.0000 C.ar    1  LIG1        0.0298
     11 C           3.6250   -1.7880    0.0000 C.ar    1  LIG1        0.1401
     12 C           3.3330   -0.8880    0.0000 C.ar    1  LIG1        0.0298
     13 C           2.4000   -0.6960    0.0000 C.ar    1  LIG1        0.0069
     14 F           4.7920   -2.0460    0.0000 F       1  LIG1       -0.2042
     15 O           0.1000   -2.0250    0.0000 O.2     1  LIG1       -0.2679
     16 C          -3.1170   -0.3540    0.0000 C.3     1  LIG1        0.0469
     17 C          -3.8210    0.3750    0.0000 C.3     1  LIG1        0.0129
     18 C          -3.5290    1.3210    0.0000 C.3     1  LIG1        0.0701
     19 C          -2.5250    1.5670    0.0000 C.2     1  LIG1        0.1802
     20 O          -2.2330    2.5460    0.0000 O.2     1  LIG1       -0.2908
     21 C          -4.3830   -0.4670    0.0000 C.3     1  LIG1        0.0008
     22 C          -4.7960    0.1540    0.0000 C.3     1  LIG1        0.0008
@<TRIPOS>BOND
     1     1     2   ar
     2     1     5   ar
     3     1    19    1
     4     2     3   ar
     5     2    16    1
     6     3     4   ar
     7     4     5   ar
     8     4     6    1
     9     6     7   am
    10     7     8    1
    11     7    15    2
    12     8     9   ar
    13     8    13   ar
    14     9    10   ar
    15    10    11   ar
    16    11    12   ar
    17    11    14    1
    18    12    13   ar
    19    16    17    1
    20    17    18    1
    21    17    21    1
    22    17    22    1
    23    18    19    1
    24    19    20    2
