@<TRIPOS>MOLECULE
27833_ChemDiv_5976-1653
 31 33 0 0 0
SMALL
GASTEIGER
Energy = 0

@<TRIPOS>ATOM
      1 C           1.3670    0.6710    0.0000 C.ar    1  LIG1        0.2213
      2 C           0.5080    0.1830    0.0000 C.ar    1  LIG1        0.2359
      3 C          -0.3670    0.6710    0.0000 C.ar    1  LIG1        0.0769
      4 C          -0.3670    1.6880    0.0000 C.ar    1  LIG1        0.1517
      5 O           0.5080    2.1880    0.0000 O.2     1  LIG1       -0.4469
      6 C           1.3670    1.6880    0.0000 C.ar    1  LIG1        0.2201
      7 C          -1.2330    2.1880    0.0000 C.ar    1  LIG1        0.0745
      8 C          -2.1000    1.6880    0.0000 C.ar    1  LIG1        0.1424
      9 O          -2.9540    2.1880    0.0000 O.3     1  LIG1       -0.4637
     10 C          -4.0420    2.8000    0.0000 C.3     1  LIG1        0.3141
     11 C          -4.8920    2.3290    0.0000 C.2     1  LIG1        0.3619
     12 O          -5.7040    2.8170    0.0000 O.2     1  LIG1       -0.2459
     13 O          -4.8920    1.3580    0.0000 O.3     1  LIG1       -0.4497
     14 C          -5.7130    0.8960    0.0000 C.3     1  LIG1        0.1691
     15 C          -5.7290   -0.0750    0.0000 C.3     1  LIG1        0.0436
     16 C          -6.5580   -0.5460    0.0000 C.3     1  LIG1        0.0038
     17 C          -6.5500    1.3830    0.0000 C.3     1  LIG1        0.0473
     18 C          -2.1000    0.6710    0.0000 C.ar    1  LIG1        0.0372
     19 C          -1.2330    0.1830    0.0000 C.ar    1  LIG1        0.0095
     20 O           0.5080   -0.8290    0.0000 O.2     1  LIG1       -0.2831
     21 O           2.2290    0.1830    0.0000 O.3     1  LIG1       -0.4470
     22 C           3.1080   -0.3210    0.0000 C.ar    1  LIG1        0.1456
     23 C           3.0960   -1.3170    0.0000 C.ar    1  LIG1        0.0372
     24 C           3.9710   -1.8170    0.0000 C.ar    1  LIG1       -0.0012
     25 C           4.8250   -1.3170    0.0000 C.ar    1  LIG1       -0.0226
     26 C           5.6960   -1.8170    0.0000 C.3     1  LIG1        0.0189
     27 C           6.5580   -1.3170    0.0000 C.3     1  LIG1        0.0044
     28 C           4.9920   -2.5330    0.0000 C.3     1  LIG1        0.0044
     29 C           5.6960   -2.8130    0.0000 C.3     1  LIG1        0.0044
     30 C           4.8250   -0.3040    0.0000 C.ar    1  LIG1       -0.0012
     31 C           3.9580    0.1830    0.0000 C.ar    1  LIG1        0.0372
@<TRIPOS>BOND
     1     1     2   ar
     2     1     6   ar
     3     1    21    1
     4     2     3   ar
     5     2    20    2
     6     3     4   ar
     7     3    19   ar
     8     4     5   ar
     9     4     7   ar
    10     5     6   ar
    11     7     8   ar
    12     8     9    1
    13     8    18   ar
    14     9    10    1
    15    10    11    1
    16    11    12    2
    17    11    13    1
    18    13    14    1
    19    14    15    1
    20    14    17    1
    21    15    16    1
    22    18    19   ar
    23    21    22    1
    24    22    23   ar
    25    22    31   ar
    26    23    24   ar
    27    24    25   ar
    28    25    26    1
    29    25    30   ar
    30    26    27    1
    31    26    28    1
    32    26    29    1
    33    30    31   ar
