@<TRIPOS>MOLECULE
27838_ChemDiv_8015-3499
 37 43 0 0 0
SMALL
GASTEIGER
Energy = 0

@<TRIPOS>ATOM
      1 N          -3.6710    1.8670    0.0000 N.ar    1  LIG1       -0.2866
      2 C          -5.2670    1.8670    0.0000 C.ar    1  LIG1        0.2612
      3 C          -5.2580    0.9420    0.0000 C.ar    1  LIG1        0.0576
      4 C          -4.4630    0.4830    0.0000 C.ar    1  LIG1        0.0205
      5 C          -3.6710    0.9420    0.0000 C.ar    1  LIG1        0.0631
      6 C          -2.8710    0.4960    0.0000 C.ar    1  LIG1        0.0173
      7 C          -2.8710   -0.4290    0.0000 C.ar    1  LIG1        0.0015
      8 C          -3.6670   -0.9000    0.0000 C.ar    1  LIG1        0.0001
      9 C          -4.4630   -0.4380    0.0000 C.ar    1  LIG1        0.0015
     10 C          -5.2540   -0.9000    0.0000 C.ar    1  LIG1        0.0001
     11 C          -6.0580   -0.4420    0.0000 C.ar    1  LIG1        0.0002
     12 C          -6.0580    0.4830    0.0000 C.ar    1  LIG1        0.0048
     13 O          -5.9880    2.5790    0.0000 O.2     1  LIG1       -0.2670
     14 C          -2.7960    2.3670    0.0000 C.3     1  LIG1        0.1962
     15 C          -1.9130    1.8670    0.0000 C.2     1  LIG1        0.2687
     16 N          -1.0380    2.3670    0.0000 N.am    1  LIG1       -0.1776
     17 C          -0.1580    1.8670    0.0000 C.ar    1  LIG1        0.0734
     18 C          -0.1580    0.8580    0.0000 C.ar    1  LIG1        0.0163
     19 C           0.7170    0.3460    0.0000 C.ar    1  LIG1       -0.0030
     20 C           1.5920    0.8580    0.0000 C.ar    1  LIG1       -0.0230
     21 C           2.4790    0.3460    0.0000 C.3     1  LIG1        0.0150
     22 C           3.5960    0.0500    0.0000 C.3     1  LIG1       -0.0162
     23 C           3.7290   -0.8670    0.0000 C.3     1  LIG1       -0.0076
     24 C           4.3790   -1.5630    0.0000 C.3     1  LIG1       -0.0199
     25 C           3.3210   -1.3790    0.0000 C.3     1  LIG1       -0.0076
     26 C           3.1960   -0.3920    0.0000 C.3     1  LIG1       -0.0162
     27 C           4.1170    0.1130    0.0000 C.3     1  LIG1       -0.0076
     28 C           5.1580   -0.0880    0.0000 C.3     1  LIG1       -0.0199
     29 C           4.4540    0.5290    0.0000 C.3     1  LIG1       -0.0076
     30 C           5.2670   -1.0830    0.0000 C.3     1  LIG1       -0.0079
     31 C           1.6040    1.8670    0.0000 C.ar    1  LIG1       -0.0030
     32 C           0.7170    2.3750    0.0000 C.ar    1  LIG1        0.0163
     33 O          -1.9130    0.8500    0.0000 O.2     1  LIG1       -0.2709
     34 H           3.4710    1.0500    0.0000 H       1  LIG1        0.0321
     35 H           4.5330   -2.5750    0.0000 H       1  LIG1        0.0318
     36 H           2.2830   -0.8290    0.0000 H       1  LIG1        0.0321
     37 H           6.0580    0.3710    0.0000 H       1  LIG1        0.0318
@<TRIPOS>BOND
     1     1     2   ar
     2     1     5   ar
     3     1    14    1
     4     2     3   ar
     5     2    13    2
     6     3     4   ar
     7     3    12   ar
     8     4     5   ar
     9     4     9   ar
    10     5     6   ar
    11     6     7   ar
    12     7     8   ar
    13     8     9   ar
    14     9    10   ar
    15    10    11   ar
    16    11    12   ar
    17    14    15    1
    18    15    16   am
    19    15    33    2
    20    16    17    1
    21    17    18   ar
    22    17    32   ar
    23    18    19   ar
    24    19    20   ar
    25    21    20    1
    26    20    31   ar
    27    21    22    1
    28    21    26    1
    29    22    23    1
    30    22    29    1
    31    22    34    1
    32    23    24    1
    33    24    25    1
    34    24    30    1
    35    24    35    1
    36    26    25    1
    37    26    27    1
    38    26    36    1
    39    27    28    1
    40    28    29    1
    41    28    30    1
    42    28    37    1
    43    31    32   ar
