@<TRIPOS>MOLECULE
27834_ChemDiv_3461-3296
 23 25 0 0 0
SMALL
GASTEIGER
Energy = 0

@<TRIPOS>ATOM
      1 C          -0.4380    0.3630    0.0000 C.ar    1  LIG1        0.1425
      2 S          -1.3710    0.7080    0.0000 S.O2    1  LIG1        0.0784
      3 O          -1.0330    1.6420    0.0000 O.2     1  LIG1       -0.1515
      4 O          -1.7170   -0.2330    0.0000 O.2     1  LIG1       -0.1515
      5 N          -2.3130    1.0460    0.0000 N.3     1  LIG1       -0.0761
      6 C          -3.0630    0.4080    0.0000 C.3     1  LIG1        0.1362
      7 C           0.2830    1.0040    0.0000 C.ar    1  LIG1        0.1033
      8 N           0.3790    1.9540    0.0000 N.ar    1  LIG1       -0.2065
      9 C           1.6170    2.1130    0.0000 C.ar    1  LIG1        0.2792
     10 C           1.9920    1.2630    0.0000 C.ar    1  LIG1        0.0594
     11 C           1.2330    0.6210    0.0000 C.ar    1  LIG1        0.0250
     12 C           1.4040   -0.3580    0.0000 C.ar    1  LIG1        0.0203
     13 C           0.6750   -0.9540    0.0000 C.ar    1  LIG1        0.1249
     14 S           0.8080   -1.9420    0.0000 S.O2    1  LIG1        0.0769
     15 O           0.9250   -2.9210    0.0000 O.2     1  LIG1       -0.1516
     16 O          -0.2250   -2.0670    0.0000 O.2     1  LIG1       -0.1516
     17 N           1.7750   -1.8080    0.0000 N.3     1  LIG1       -0.0762
     18 C           2.3830   -2.6250    0.0000 C.3     1  LIG1        0.1362
     19 C          -0.2580   -0.6080    0.0000 C.ar    1  LIG1        0.0414
     20 C           2.3380   -0.7040    0.0000 C.ar    1  LIG1        0.0014
     21 C           3.0580   -0.1000    0.0000 C.ar    1  LIG1        0.0002
     22 C           2.8960    0.9210    0.0000 C.ar    1  LIG1        0.0048
     23 O           2.2580    2.9250    0.0000 O.2     1  LIG1       -0.2652
@<TRIPOS>BOND
     1     1     2    1
     2     1     7   ar
     3     1    19   ar
     4     2     3    2
     5     2     4    2
     6     2     5    1
     7     5     6    1
     8     7     8   ar
     9     7    11   ar
    10     8     9   ar
    11     9    10   ar
    12     9    23    2
    13    10    11   ar
    14    10    22   ar
    15    11    12   ar
    16    12    13   ar
    17    12    20   ar
    18    13    14    1
    19    13    19   ar
    20    14    15    2
    21    14    16    2
    22    14    17    1
    23    17    18    1
    24    20    21   ar
    25    21    22   ar
