@<TRIPOS>MOLECULE
27831_ChemDiv_5847-0130
 29 32 0 0 0
SMALL
GASTEIGER
Energy = 0

@<TRIPOS>ATOM
      1 C           2.1630   -0.0040    0.0000 C.ar    1  LIG1        0.2213
      2 C           1.3040   -0.4960    0.0000 C.ar    1  LIG1        0.2359
      3 C           0.4420   -0.0040    0.0000 C.ar    1  LIG1        0.0769
      4 C           0.4420    1.0080    0.0000 C.ar    1  LIG1        0.1517
      5 O           1.3040    1.5080    0.0000 O.2     1  LIG1       -0.4469
      6 C           2.1630    1.0080    0.0000 C.ar    1  LIG1        0.2201
      7 C          -0.4330    1.5080    0.0000 C.ar    1  LIG1        0.0745
      8 C          -1.3000    1.0080    0.0000 C.ar    1  LIG1        0.1423
      9 O          -2.1540    1.5080    0.0000 O.3     1  LIG1       -0.4655
     10 C          -3.0460    1.0080    0.0000 C.3     1  LIG1        0.2896
     11 C          -3.9130    1.5080    0.0000 C.2     1  LIG1        0.2702
     12 N          -4.7670    1.0080    0.0000 N.am    1  LIG1       -0.2765
     13 C          -5.6290    1.5080    0.0000 C.3     1  LIG1        0.0935
     14 C          -6.4880    1.0080    0.0000 C.3     1  LIG1        0.0216
     15 C          -6.4880   -0.0040    0.0000 C.3     1  LIG1        0.0035
     16 C          -5.6290   -0.4920    0.0000 C.3     1  LIG1        0.0216
     17 C          -4.7670   -0.0040    0.0000 C.3     1  LIG1        0.0935
     18 O          -3.9130    2.5000    0.0000 O.2     1  LIG1       -0.2708
     19 C          -1.3000   -0.0040    0.0000 C.ar    1  LIG1        0.0372
     20 C          -0.4330   -0.4960    0.0000 C.ar    1  LIG1        0.0095
     21 O           1.3040   -1.5080    0.0000 O.2     1  LIG1       -0.2831
     22 O           3.0250   -0.4960    0.0000 O.3     1  LIG1       -0.4470
     23 C           3.9000   -0.9960    0.0000 C.ar    1  LIG1        0.1456
     24 C           4.7500   -0.4960    0.0000 C.ar    1  LIG1        0.0372
     25 C           5.6170   -0.9960    0.0000 C.ar    1  LIG1       -0.0011
     26 C           5.6170   -2.0080    0.0000 C.ar    1  LIG1       -0.0217
     27 C           4.7670   -2.4960    0.0000 C.ar    1  LIG1       -0.0011
     28 C           3.9000   -2.0080    0.0000 C.ar    1  LIG1        0.0372
     29 C           6.4880   -2.4960    0.0000 C.3     1  LIG1        0.0310
@<TRIPOS>BOND
     1     1     2   ar
     2     1     6   ar
     3     1    22    1
     4     2     3   ar
     5     2    21    2
     6     3     4   ar
     7     3    20   ar
     8     4     5   ar
     9     4     7   ar
    10     5     6   ar
    11     7     8   ar
    12     8     9    1
    13     8    19   ar
    14     9    10    1
    15    10    11    1
    16    11    12   am
    17    11    18    2
    18    12    13    1
    19    12    17    1
    20    13    14    1
    21    14    15    1
    22    15    16    1
    23    16    17    1
    24    19    20   ar
    25    22    23    1
    26    23    24   ar
    27    23    28   ar
    28    24    25   ar
    29    25    26   ar
    30    26    27   ar
    31    26    29    1
    32    27    28   ar
