@<TRIPOS>MOLECULE
27842_ChemDiv_D245-0346
 26 29 0 0 0
SMALL
GASTEIGER
Energy = 0

@<TRIPOS>ATOM
      1 N           0.9540   -1.4920    0.0000 N.ar    1  LIG1       -0.1794
      2 C           0.9670   -2.4920    0.0000 C.ar    1  LIG1        0.2554
      3 N           0.0130   -2.8040    0.0000 N.ar    1  LIG1       -0.1891
      4 C          -0.5830   -1.9960    0.0000 C.ar    1  LIG1        0.1847
      5 N           0.0040   -1.1750    0.0000 N.ar    1  LIG1       -0.1418
      6 C          -1.5880   -1.9960    0.0000 C.ar    1  LIG1        0.0336
      7 C          -2.0880   -1.1420    0.0000 C.ar    1  LIG1       -0.0188
      8 C          -1.6000   -0.2750    0.0000 C.3     1  LIG1        0.0311
      9 C          -3.0750   -1.1460    0.0000 C.ar    1  LIG1       -0.0042
     10 C          -3.5710   -2.0130    0.0000 C.ar    1  LIG1       -0.0003
     11 C          -3.0790   -2.8750    0.0000 C.ar    1  LIG1        0.0001
     12 C          -2.0710   -2.8750    0.0000 C.ar    1  LIG1        0.0028
     13 N           1.8290   -2.9830    0.0000 N.ar    1  LIG1       -0.2142
     14 C           2.6960   -2.4920    0.0000 C.ar    1  LIG1        0.0653
     15 C           2.6960   -1.4920    0.0000 C.ar    1  LIG1        0.0510
     16 C           1.8290   -0.9790    0.0000 C.ar    1  LIG1        0.1575
     17 N           1.8330    0.0170    0.0000 N.pl3   1  LIG1       -0.1940
     18 C           0.9670    0.5080    0.0000 C.ar    1  LIG1        0.0721
     19 C           0.1000    0.0170    0.0000 C.ar    1  LIG1        0.0162
     20 C          -0.7630    0.5080    0.0000 C.ar    1  LIG1       -0.0029
     21 C          -0.7630    1.5080    0.0000 C.ar    1  LIG1       -0.0221
     22 C           0.1000    2.0130    0.0000 C.ar    1  LIG1       -0.0029
     23 C           0.9670    1.5080    0.0000 C.ar    1  LIG1        0.0162
     24 C          -1.6290    2.0040    0.0000 C.3     1  LIG1        0.0264
     25 C          -1.6290    3.0000    0.0000 C.3     1  LIG1        0.0050
     26 C           3.5670   -2.9960    0.0000 C.3     1  LIG1        0.0523
@<TRIPOS>BOND
     1     1     2   ar
     2     1     5   ar
     3     1    16   ar
     4     2     3   ar
     5     2    13   ar
     6     3     4   ar
     7     4     5   ar
     8     4     6    1
     9     6     7   ar
    10     6    12   ar
    11     7     8    1
    12     7     9   ar
    13     9    10   ar
    14    10    11   ar
    15    11    12   ar
    16    13    14   ar
    17    14    15   ar
    18    14    26    1
    19    15    16   ar
    20    16    17    1
    21    17    18    1
    22    18    19   ar
    23    18    23   ar
    24    19    20   ar
    25    20    21   ar
    26    21    22   ar
    27    21    24    1
    28    22    23   ar
    29    24    25    1
