@<TRIPOS>MOLECULE
27848_ChemDiv_2412-0381
 21 23 0 0 0
SMALL
GASTEIGER
Energy = 0

@<TRIPOS>ATOM
      1 N           1.4750    0.9580    0.0000 N.am    1  LIG1        0.0156
      2 C           0.5290    0.6420    0.0000 C.3     1  LIG1        0.2272
      3 S           0.5290   -0.3670    0.0000 S.3     1  LIG1        0.0123
      4 C           1.4750   -0.6880    0.0000 C.2     1  LIG1        0.4358
      5 N           2.0790    0.1710    0.0000 N.2     1  LIG1        0.2098
      6 N           1.7540   -1.6330    0.0000 N.am    1  LIG1       -0.1042
      7 C           2.7250   -1.8710    0.0000 C.2     1  LIG1        0.2513
      8 O           3.0630   -2.8040    0.0000 O.2     1  LIG1       -0.2728
      9 C           3.4630   -1.1920    0.0000 C.3     1  LIG1        0.0970
     10 C          -0.2710    1.2210    0.0000 C.ar    1  LIG1        0.0158
     11 C          -1.1790    0.8040    0.0000 C.ar    1  LIG1        0.0386
     12 C          -2.0080    1.3710    0.0000 C.ar    1  LIG1        0.1762
     13 C          -1.9080    2.3790    0.0000 C.ar    1  LIG1        0.1764
     14 O          -2.8330    2.7580    0.0000 O.3     1  LIG1       -0.4346
     15 C          -3.4670    2.0170    0.0000 C.3     1  LIG1        0.4294
     16 O          -2.9920    1.1710    0.0000 O.3     1  LIG1       -0.4346
     17 C          -0.9830    2.8080    0.0000 C.ar    1  LIG1        0.0399
     18 C          -0.1880    2.2290    0.0000 C.ar    1  LIG1        0.0017
     19 C           1.7710    1.9080    0.0000 C.2     1  LIG1        0.2876
     20 O           2.7380    2.1880    0.0000 O.2     1  LIG1       -0.2691
     21 C           1.1500    2.6960    0.0000 C.3     1  LIG1        0.1008
@<TRIPOS>BOND
     1     1     2    1
     2     1     5    1
     3     1    19   am
     4     2     3    1
     5     2    10    1
     6     3     4    1
     7     4     5    2
     8     4     6    1
     9     6     7   am
    10     7     8    2
    11     7     9    1
    12    10    11   ar
    13    10    18   ar
    14    11    12   ar
    15    12    13   ar
    16    12    16    1
    17    13    14    1
    18    13    17   ar
    19    14    15    1
    20    15    16    1
    21    17    18   ar
    22    19    20    2
    23    19    21    1
