@<TRIPOS>MOLECULE
27841_ChemDiv_3690-0686
 19 22 0 0 0
SMALL
GASTEIGER
Energy = 0

@<TRIPOS>ATOM
      1 C           0.0130    0.1830    0.0000 C.3     1  LIG1        0.1434
      2 C           0.8670   -0.3130    0.0000 C.3     1  LIG1        0.0682
      3 C           0.8670   -1.3130    0.0000 C.3     1  LIG1        0.1356
      4 O           0.0130   -1.8080    0.0000 O.3     1  LIG1       -0.4827
      5 C          -0.8460   -1.3130    0.0000 C.ar    1  LIG1        0.1364
      6 C          -0.8460   -0.3130    0.0000 C.ar    1  LIG1        0.0386
      7 C          -1.7130    0.1830    0.0000 C.ar    1  LIG1        0.0011
      8 C          -2.5750   -0.3130    0.0000 C.ar    1  LIG1       -0.0000
      9 C          -2.5750   -1.3130    0.0000 C.ar    1  LIG1        0.0031
     10 C          -1.7130   -1.8080    0.0000 C.ar    1  LIG1        0.0366
     11 C           1.8290   -0.9670    0.0000 C.3     1  LIG1        0.0402
     12 C           2.5710    0.1130    0.0000 C.3     1  LIG1        0.0059
     13 C           1.7380    1.1960    0.0000 C.3     1  LIG1        0.0253
     14 C           0.8670    1.6920    0.0000 C.3     1  LIG1        0.0932
     15 O           0.0130    1.1960    0.0000 O.3     1  LIG1       -0.3564
     16 C           1.5210    2.1040    0.0000 C.3     1  LIG1        0.0296
     17 C           0.2420    2.1210    0.0000 C.3     1  LIG1        0.0296
     18 C           1.7380    0.1790    0.0000 C.3     1  LIG1        0.0086
     19 C           0.8630   -2.1170    0.0000 C.3     1  LIG1        0.0437
@<TRIPOS>BOND
     1     1     2    1
     2     1     6    1
     3     1    15    1
     4     2     3    1
     5     2    18    1
     6     3     4    1
     7     3    11    1
     8     3    19    1
     9     4     5    1
    10     5     6   ar
    11     5    10   ar
    12     6     7   ar
    13     7     8   ar
    14     8     9   ar
    15     9    10   ar
    16    11    12    1
    17    12    13    1
    18    13    14    1
    19    13    18    1
    20    14    15    1
    21    14    16    1
    22    14    17    1
