@<TRIPOS>MOLECULE
27843_ChemDiv_3690-0691
 17 19 0 0 0
SMALL
GASTEIGER
Energy = 0

@<TRIPOS>ATOM
      1 C          -0.0170    0.0920    0.0000 C.3     1  LIG1        0.1435
      2 C          -0.0170   -0.9040    0.0000 C.3     1  LIG1        0.0682
      3 C          -0.8830   -1.4000    0.0000 C.3     1  LIG1        0.1358
      4 O          -1.7380   -0.9040    0.0000 O.3     1  LIG1       -0.4827
      5 C          -1.7380    0.0920    0.0000 C.ar    1  LIG1        0.1364
      6 C          -0.8830    0.6040    0.0000 C.ar    1  LIG1        0.0386
      7 C          -0.8830    1.6000    0.0000 C.ar    1  LIG1        0.0011
      8 C          -1.7380    2.1080    0.0000 C.ar    1  LIG1       -0.0000
      9 C          -2.6000    1.6000    0.0000 C.ar    1  LIG1        0.0031
     10 C          -2.6000    0.6040    0.0000 C.ar    1  LIG1        0.0366
     11 C          -1.7380   -1.9130    0.0000 C.3     1  LIG1        0.0437
     12 C          -0.1670   -2.1040    0.0000 C.3     1  LIG1        0.0437
     13 C           0.8460   -1.4000    0.0000 C.3     1  LIG1        0.0087
     14 C           1.7130   -0.9040    0.0000 C.3     1  LIG1        0.0298
     15 C           1.7130    0.0920    0.0000 C.3     1  LIG1        0.1156
     16 O           0.8460    0.6040    0.0000 O.3     1  LIG1       -0.3541
     17 C           2.5960    0.6210    0.0000 C.3     1  LIG1        0.0321
@<TRIPOS>BOND
     1     1     2    1
     2     1     6    1
     3     1    16    1
     4     2     3    1
     5     2    13    1
     6     3     4    1
     7     3    11    1
     8     3    12    1
     9     4     5    1
    10     5     6   ar
    11     5    10   ar
    12     6     7   ar
    13     7     8   ar
    14     8     9   ar
    15     9    10   ar
    16    13    14    1
    17    14    15    1
    18    15    16    1
    19    15    17    1
