@<TRIPOS>MOLECULE
27845_ChemDiv_3690-0704
 19 21 0 0 0
SMALL
GASTEIGER
Energy = 0

@<TRIPOS>ATOM
      1 C          -0.5710    0.1000    0.0000 C.3     1  LIG1        0.1446
      2 C          -0.5920   -0.8960    0.0000 C.3     1  LIG1        0.0683
      3 C          -1.4500   -1.3920    0.0000 C.3     1  LIG1        0.1358
      4 O          -2.3130   -0.8960    0.0000 O.3     1  LIG1       -0.4827
      5 C          -2.3130    0.1000    0.0000 C.ar    1  LIG1        0.1364
      6 C          -1.4250    0.6040    0.0000 C.ar    1  LIG1        0.0387
      7 C          -1.4250    1.6080    0.0000 C.ar    1  LIG1        0.0011
      8 C          -2.2830    2.1080    0.0000 C.ar    1  LIG1       -0.0000
      9 C          -3.1500    1.6080    0.0000 C.ar    1  LIG1        0.0031
     10 C          -3.1670    0.6040    0.0000 C.ar    1  LIG1        0.0366
     11 C          -0.7330   -2.1040    0.0000 C.3     1  LIG1        0.0437
     12 C          -2.3130   -1.8830    0.0000 C.3     1  LIG1        0.0437
     13 C           0.2630   -1.3920    0.0000 C.3     1  LIG1        0.0097
     14 C           1.1380   -0.8960    0.0000 C.3     1  LIG1        0.0400
     15 C           1.1580    0.1000    0.0000 C.3     1  LIG1        0.1467
     16 O           0.2880    0.6040    0.0000 O.3     1  LIG1       -0.3445
     17 C           2.1540    0.1000    0.0000 C.1     1  LIG1       -0.0523
     18 C           3.1630    0.0830    0.0000 C.1     1  LIG1       -0.0118
     19 C           0.9000    1.0790    0.0000 C.3     1  LIG1        0.0432
@<TRIPOS>BOND
     1     1     2    1
     2     1     6    1
     3     1    16    1
     4     2     3    1
     5     2    13    1
     6     3     4    1
     7     3    11    1
     8     3    12    1
     9     4     5    1
    10     5     6   ar
    11     5    10   ar
    12     6     7   ar
    13     7     8   ar
    14     8     9   ar
    15     9    10   ar
    16    13    14    1
    17    14    15    1
    18    15    16    1
    19    15    17    1
    20    15    19    1
    21    17    18    3
