@<TRIPOS>MOLECULE
27847_ChemDiv_2190-0207
 23 24 0 0 0
SMALL
GASTEIGER
Energy = 0

@<TRIPOS>ATOM
      1 C          -1.3040    0.4460    0.0000 C.3     1  LIG1        0.2402
      2 C          -1.3040   -0.5420    0.0000 C.3     1  LIG1        0.1017
      3 C          -1.3040   -1.5500    0.0000 C.3     1  LIG1        0.1139
      4 N          -0.4210   -2.0500    0.0000 N.4     1  LIG1        0.3096
      5 C           0.4250   -2.5580    0.0000 C.3     1  LIG1        0.1365
      6 C           1.3210   -2.0750    0.0000 C.ar    1  LIG1        0.0328
      7 C           1.3210   -1.0880    0.0000 C.ar    1  LIG1        0.0014
      8 C           2.1670   -0.5670    0.0000 C.ar    1  LIG1       -0.0001
      9 C           3.0210   -1.0920    0.0000 C.ar    1  LIG1       -0.0000
     10 C           3.0210   -2.0750    0.0000 C.ar    1  LIG1       -0.0001
     11 C           2.1380   -2.5580    0.0000 C.ar    1  LIG1        0.0014
     12 C           0.0790   -1.1670    0.0000 C.3     1  LIG1        0.1711
     13 C          -0.9580   -2.9040    0.0000 C.3     1  LIG1        0.1711
     14 C          -2.3000   -0.5420    0.0000 C.3     1  LIG1        0.0110
     15 C          -0.3000   -0.5420    0.0000 C.3     1  LIG1        0.0110
     16 O          -0.4210    0.9380    0.0000 O.3     1  LIG1       -0.3351
     17 C          -0.4170    1.9290    0.0000 C.3     1  LIG1        0.0977
     18 C          -1.2880    2.4460    0.0000 C.3     1  LIG1        0.0569
     19 C          -2.1420    1.9540    0.0000 C.3     1  LIG1        0.1202
     20 O          -2.1580    0.9580    0.0000 O.3     1  LIG1       -0.3328
     21 C          -3.0250    2.4670    0.0000 C.3     1  LIG1        0.0322
     22 C          -0.1880    2.9080    0.0000 C.3     1  LIG1        0.0298
     23 C           0.5830    1.7920    0.0000 C.3     1  LIG1        0.0298
@<TRIPOS>BOND
     1     1     2    1
     2     1    16    1
     3     1    20    1
     4     2     3    1
     5     2    14    1
     6     2    15    1
     7     3     4    1
     8     4     5    1
     9     4    12    1
    10     4    13    1
    11     5     6    1
    12     6     7   ar
    13     6    11   ar
    14     7     8   ar
    15     8     9   ar
    16     9    10   ar
    17    10    11   ar
    18    16    17    1
    19    17    18    1
    20    17    22    1
    21    17    23    1
    22    18    19    1
    23    19    20    1
    24    19    21    1
