@<TRIPOS>MOLECULE
27856_ChemDiv_4250-0002
 28 30 0 0 0
SMALL
GASTEIGER
Energy = 0

@<TRIPOS>ATOM
      1 N           2.3500    0.4330    0.0000 N.am    1  LIG1        0.0156
      2 C           1.7290   -0.3540    0.0000 C.3     1  LIG1        0.2272
      3 S           2.2710   -1.1750    0.0000 S.3     1  LIG1        0.0123
      4 C           3.2330   -0.8960    0.0000 C.2     1  LIG1        0.4358
      5 N           3.2540    0.0920    0.0000 N.2     1  LIG1        0.2098
      6 N           4.0210   -1.5420    0.0000 N.am    1  LIG1       -0.1042
      7 C           4.9630   -1.1750    0.0000 C.2     1  LIG1        0.2513
      8 O           5.1080   -0.1880    0.0000 O.2     1  LIG1       -0.2728
      9 C           5.7460   -1.7920    0.0000 C.3     1  LIG1        0.0970
     10 C           0.7420   -0.3540    0.0000 C.ar    1  LIG1        0.0158
     11 C           0.2250   -1.2210    0.0000 C.ar    1  LIG1        0.0384
     12 C          -0.7630   -1.2210    0.0000 C.ar    1  LIG1        0.1722
     13 C          -1.2580   -0.3540    0.0000 C.ar    1  LIG1        0.1727
     14 O          -2.2750   -0.3540    0.0000 O.3     1  LIG1       -0.4676
     15 C          -2.7710   -1.2210    0.0000 C.3     1  LIG1        0.2321
     16 C          -3.7540   -1.2210    0.0000 C.ar    1  LIG1        0.0212
     17 C          -4.2710   -0.3540    0.0000 C.ar    1  LIG1       -0.0007
     18 C          -5.2630   -0.3540    0.0000 C.ar    1  LIG1       -0.0002
     19 C          -5.7500   -1.2210    0.0000 C.ar    1  LIG1       -0.0000
     20 C          -5.2630   -2.0830    0.0000 C.ar    1  LIG1       -0.0002
     21 C          -4.2500   -2.0830    0.0000 C.ar    1  LIG1       -0.0007
     22 C          -0.7630    0.5290    0.0000 C.ar    1  LIG1        0.0398
     23 C           0.2250    0.5290    0.0000 C.ar    1  LIG1        0.0017
     24 O          -1.2880   -2.1080    0.0000 O.3     1  LIG1       -0.4684
     25 C          -2.2750   -2.1080    0.0000 C.3     1  LIG1        0.2526
     26 C           2.1000    1.4210    0.0000 C.2     1  LIG1        0.2876
     27 O           1.1330    1.6960    0.0000 O.2     1  LIG1       -0.2691
     28 C           2.8170    2.1130    0.0000 C.3     1  LIG1        0.1008
@<TRIPOS>BOND
     1     1     2    1
     2     1     5    1
     3     1    26   am
     4     2     3    1
     5     2    10    1
     6     3     4    1
     7     4     5    2
     8     4     6    1
     9     6     7   am
    10     7     8    2
    11     7     9    1
    12    10    11   ar
    13    10    23   ar
    14    11    12   ar
    15    12    13   ar
    16    12    24    1
    17    13    14    1
    18    13    22   ar
    19    14    15    1
    20    15    16    1
    21    16    17   ar
    22    16    21   ar
    23    17    18   ar
    24    18    19   ar
    25    19    20   ar
    26    20    21   ar
    27    22    23   ar
    28    24    25    1
    29    26    27    2
    30    26    28    1
