@<TRIPOS>MOLECULE
27858_ChemDiv_2330-0005
 20 23 0 0 0
SMALL
GASTEIGER
Energy = 0

@<TRIPOS>ATOM
      1 C           1.2250    0.9960    0.0000 C.ar    1  LIG1        0.0578
      2 C           1.9130    0.2460    0.0000 C.ar    1  LIG1        0.1767
      3 O           2.8080    0.6540    0.0000 O.2     1  LIG1       -0.3534
      4 N           2.7080    1.6460    0.0000 N.ar    1  LIG1       -0.0770
      5 C           1.7290    1.8630    0.0000 C.ar    1  LIG1        0.1229
      6 C           1.2250    2.7250    0.0000 C.ar    1  LIG1        0.0223
      7 C           0.2290    2.7250    0.0000 C.ar    1  LIG1        0.0022
      8 C          -0.2750    1.8630    0.0000 C.ar    1  LIG1        0.0338
      9 C           0.2290    0.9960    0.0000 C.ar    1  LIG1        0.0053
     10 C          -1.2710    1.8630    0.0000 C.3     1  LIG1        0.2601
     11 O          -1.8830    2.6670    0.0000 O.3     1  LIG1       -0.3244
     12 C          -2.8130    2.3170    0.0000 C.3     1  LIG1        0.1772
     13 C          -2.7920    1.3580    0.0000 C.3     1  LIG1        0.1772
     14 O          -1.8420    1.0540    0.0000 O.3     1  LIG1       -0.3244
     15 C           1.7500   -0.7330    0.0000 C.ar    1  LIG1        0.0372
     16 C           2.5290   -1.3710    0.0000 C.ar    1  LIG1        0.0031
     17 C           2.3670   -2.3630    0.0000 C.ar    1  LIG1        0.0001
     18 C           1.4210   -2.7210    0.0000 C.ar    1  LIG1        0.0000
     19 C           0.6380   -2.0880    0.0000 C.ar    1  LIG1        0.0001
     20 C           0.8000   -1.0880    0.0000 C.ar    1  LIG1        0.0031
@<TRIPOS>BOND
     1     1     2   ar
     2     1     5   ar
     3     1     9   ar
     4     2     3   ar
     5     2    15    1
     6     3     4   ar
     7     4     5   ar
     8     5     6   ar
     9     6     7   ar
    10     7     8   ar
    11     8     9   ar
    12     8    10    1
    13    10    11    1
    14    10    14    1
    15    11    12    1
    16    12    13    1
    17    13    14    1
    18    15    16   ar
    19    15    20   ar
    20    16    17   ar
    21    17    18   ar
    22    18    19   ar
    23    19    20   ar
