@<TRIPOS>MOLECULE
27854_ChemDiv_3113-0002
 20 20 0 0 0
SMALL
GASTEIGER
Energy = 0

@<TRIPOS>ATOM
      1 N           0.4670   -0.6210    0.0000 N.am    1  LIG1        0.0087
      2 C          -0.5750   -0.6210    0.0000 C.3     1  LIG1        0.1751
      3 S          -0.8830   -1.6000    0.0000 S.3     1  LIG1        0.0051
      4 C          -0.0580   -2.1790    0.0000 C.2     1  LIG1        0.4354
      5 N           0.7710   -1.5710    0.0000 N.2     1  LIG1        0.2094
      6 N          -0.0580   -3.1790    0.0000 N.am    1  LIG1       -0.1042
      7 C           0.7920   -3.6750    0.0000 C.2     1  LIG1        0.2513
      8 O           1.7460   -3.2630    0.0000 O.2     1  LIG1       -0.2728
      9 C           0.7750   -4.6330    0.0000 C.3     1  LIG1        0.0970
     10 C          -1.5580   -0.6210    0.0000 C.3     1  LIG1        0.0354
     11 C          -1.9920    0.3670    0.0000 C.3     1  LIG1        0.0028
     12 C          -1.4210    1.1790    0.0000 C.3     1  LIG1        0.0001
     13 C          -1.8170    2.0960    0.0000 C.3     1  LIG1        0.0000
     14 C          -1.2670    2.9080    0.0000 C.3     1  LIG1        0.0000
     15 C          -1.6670    3.8080    0.0000 C.3     1  LIG1        0.0000
     16 C          -1.0960    4.6330    0.0000 C.3     1  LIG1        0.0000
     17 C          -0.5750    0.2960    0.0000 C.3     1  LIG1        0.0381
     18 C           1.0460    0.1750    0.0000 C.2     1  LIG1        0.2871
     19 O           0.7710    1.1670    0.0000 O.2     1  LIG1       -0.2692
     20 C           1.9880    0.0380    0.0000 C.3     1  LIG1        0.1008
@<TRIPOS>BOND
     1     1     2    1
     2     1     5    1
     3     1    18   am
     4     2     3    1
     5     2    10    1
     6     2    17    1
     7     3     4    1
     8     4     5    2
     9     4     6    1
    10     6     7   am
    11     7     8    2
    12     7     9    1
    13    10    11    1
    14    11    12    1
    15    12    13    1
    16    13    14    1
    17    14    15    1
    18    15    16    1
    19    18    19    2
    20    18    20    1
