@<TRIPOS>MOLECULE
27859_ChemDiv_3448-3004
 24 26 0 0 0
SMALL
GASTEIGER
Energy = 0

@<TRIPOS>ATOM
      1 C          -1.2750    0.3750    0.0000 C.ar    1  LIG1        0.1854
      2 N          -1.7540    1.2040    0.0000 N.ar    1  LIG1       -0.2272
      3 C          -3.1670    0.3750    0.0000 C.ar    1  LIG1        0.0630
      4 C          -2.7330   -0.4130    0.0000 C.ar    1  LIG1        0.0235
      5 S          -1.7710   -0.4130    0.0000 S.2     1  LIG1       -0.0544
      6 C          -3.1790   -1.2420    0.0000 C.3     1  LIG1        0.0343
      7 C          -4.1460   -1.2420    0.0000 C.3     1  LIG1        0.0057
      8 C          -4.6080   -0.4000    0.0000 C.3     1  LIG1        0.0067
      9 C          -4.1080    0.3750    0.0000 C.3     1  LIG1        0.0461
     10 N          -0.2830    0.3750    0.0000 N.am    1  LIG1       -0.1504
     11 C           0.2000   -0.4420    0.0000 C.2     1  LIG1        0.2738
     12 C           1.1830   -0.4420    0.0000 C.ar    1  LIG1        0.0926
     13 C           1.6920    0.4330    0.0000 C.ar    1  LIG1        0.1798
     14 C           2.6880    0.4330    0.0000 C.ar    1  LIG1        0.2062
     15 C           3.1500   -0.4420    0.0000 C.ar    1  LIG1        0.1754
     16 C           2.6880   -1.2920    0.0000 C.ar    1  LIG1        0.0404
     17 C           1.6920   -1.2920    0.0000 C.ar    1  LIG1        0.0110
     18 O           4.1420   -0.4500    0.0000 O.3     1  LIG1       -0.4683
     19 C           4.6040   -1.3170    0.0000 C.3     1  LIG1        0.2526
     20 O           3.1920    1.3210    0.0000 O.3     1  LIG1       -0.4654
     21 C           4.1920    1.3210    0.0000 C.3     1  LIG1        0.2528
     22 O           1.2080    1.3000    0.0000 O.3     1  LIG1       -0.4681
     23 C           0.1880    1.3000    0.0000 C.3     1  LIG1        0.2526
     24 O          -0.3290   -1.2880    0.0000 O.2     1  LIG1       -0.2678
@<TRIPOS>BOND
     1     1     2   ar
     2     1     5   ar
     3     1    10    1
     4     2     3   ar
     5     3     4   ar
     6     3     9    1
     7     4     5   ar
     8     4     6    1
     9     6     7    1
    10     7     8    1
    11     8     9    1
    12    10    11   am
    13    11    12    1
    14    11    24    2
    15    12    13   ar
    16    12    17   ar
    17    13    14   ar
    18    13    22    1
    19    14    15   ar
    20    14    20    1
    21    15    16   ar
    22    15    18    1
    23    16    17   ar
    24    18    19    1
    25    20    21    1
    26    22    23    1
