@<TRIPOS>MOLECULE
27852_ChemDiv_2989-0117
 18 19 0 0 0
SMALL
GASTEIGER
Energy = 0

@<TRIPOS>ATOM
      1 N           0.8130    0.7540    0.0000 N.am    1  LIG1        0.0156
      2 C          -0.2040    0.7540    0.0000 C.3     1  LIG1        0.2286
      3 S          -0.5130   -0.2210    0.0000 S.3     1  LIG1        0.0124
      4 C           0.2960   -0.7880    0.0000 C.2     1  LIG1        0.4358
      5 N           1.1170   -0.1960    0.0000 N.2     1  LIG1        0.2098
      6 N           0.2960   -1.7790    0.0000 N.am    1  LIG1       -0.1042
      7 C           1.1710   -2.2830    0.0000 C.2     1  LIG1        0.2513
      8 O           2.1290   -1.8750    0.0000 O.2     1  LIG1       -0.2728
      9 C           1.1500   -3.2580    0.0000 C.3     1  LIG1        0.0970
     10 C          -0.8130    1.5540    0.0000 C.ar    1  LIG1        0.0318
     11 C          -0.4290    2.4790    0.0000 C.ar    1  LIG1        0.0972
     12 N          -1.0210    3.2630    0.0000 N.ar    1  LIG1       -0.2426
     13 C          -2.0130    3.1420    0.0000 C.ar    1  LIG1        0.0989
     14 C          -2.3750    2.2040    0.0000 C.ar    1  LIG1        0.0204
     15 C          -1.7830    1.4420    0.0000 C.ar    1  LIG1        0.0015
     16 C           1.4040    1.5380    0.0000 C.2     1  LIG1        0.2876
     17 O           1.1170    2.5500    0.0000 O.2     1  LIG1       -0.2691
     18 C           2.3710    1.4040    0.0000 C.3     1  LIG1        0.1008
@<TRIPOS>BOND
     1     1     2    1
     2     1     5    1
     3     1    16   am
     4     2     3    1
     5     2    10    1
     6     3     4    1
     7     4     5    2
     8     4     6    1
     9     6     7   am
    10     7     8    2
    11     7     9    1
    12    10    11   ar
    13    10    15   ar
    14    11    12   ar
    15    12    13   ar
    16    13    14   ar
    17    14    15   ar
    18    16    17    2
    19    16    18    1
