@<TRIPOS>MOLECULE
27851_ChemDiv_2191-2822
 23 27 0 0 0
SMALL
GASTEIGER
Energy = 0

@<TRIPOS>ATOM
      1 C          -1.4670    0.7830    0.0000 C.ar    1  LIG1        0.0723
      2 C          -1.4830   -0.2170    0.0000 C.ar    1  LIG1        0.1006
      3 N          -0.6210   -0.7380    0.0000 N.pl3   1  LIG1       -0.2068
      4 C           0.2580   -0.2460    0.0000 C.3     1  LIG1        0.2103
      5 N           0.2790    0.7540    0.0000 N.am    1  LIG1       -0.1770
      6 C          -0.5880    1.2750    0.0000 C.2     1  LIG1        0.2680
      7 O          -0.5830    2.2880    0.0000 O.2     1  LIG1       -0.2683
      8 C           1.1170   -0.7670    0.0000 C.ar    1  LIG1        0.0210
      9 C           1.9830   -0.2790    0.0000 C.ar    1  LIG1        0.0393
     10 C           2.8420   -0.7920    0.0000 C.ar    1  LIG1        0.1762
     11 C           2.8290   -1.7920    0.0000 C.ar    1  LIG1        0.1764
     12 O           3.7750   -2.1170    0.0000 O.3     1  LIG1       -0.4346
     13 C           4.3750   -1.3080    0.0000 C.3     1  LIG1        0.4294
     14 O           3.7960   -0.4920    0.0000 O.3     1  LIG1       -0.4346
     15 C           1.9540   -2.2830    0.0000 C.ar    1  LIG1        0.0400
     16 C           1.0920   -1.7670    0.0000 C.ar    1  LIG1        0.0024
     17 S          -2.4420   -0.5040    0.0000 S.2     1  LIG1       -0.0754
     18 C          -3.0040    0.3080    0.0000 C.ar    1  LIG1        0.0047
     19 C          -2.4080    1.1040    0.0000 C.ar    1  LIG1       -0.0140
     20 C          -2.7880    2.0130    0.0000 C.3     1  LIG1        0.0268
     21 C          -3.7750    2.1420    0.0000 C.3     1  LIG1        0.0050
     22 C          -4.3790    1.3460    0.0000 C.3     1  LIG1        0.0055
     23 C          -3.9920    0.4330    0.0000 C.3     1  LIG1        0.0327
@<TRIPOS>BOND
     1     1     2   ar
     2     1     6    1
     3     1    19   ar
     4     2     3    1
     5     2    17   ar
     6     3     4    1
     7     4     5    1
     8     4     8    1
     9     5     6   am
    10     6     7    2
    11     8     9   ar
    12     8    16   ar
    13     9    10   ar
    14    10    11   ar
    15    10    14    1
    16    11    12    1
    17    11    15   ar
    18    12    13    1
    19    13    14    1
    20    15    16   ar
    21    17    18   ar
    22    18    19   ar
    23    18    23    1
    24    19    20    1
    25    20    21    1
    26    21    22    1
    27    22    23    1
