@<TRIPOS>MOLECULE
27869_ChemDiv_6040-3357
 27 29 0 0 0
SMALL
GASTEIGER
Energy = 0

@<TRIPOS>ATOM
      1 C           3.5830    0.3880    0.0000 C.ar    1  LIG1        0.0803
      2 C           2.8750    1.0830    0.0000 C.ar    1  LIG1        0.0697
      3 N           2.0130    0.6170    0.0000 N.ar    1  LIG1       -0.2268
      4 C           2.1420   -0.3460    0.0000 C.ar    1  LIG1        0.1858
      5 S           3.1420   -0.5130    0.0000 S.2     1  LIG1       -0.0472
      6 N           1.4330   -1.0500    0.0000 N.am    1  LIG1       -0.1505
      7 C           0.4750   -0.7790    0.0000 C.2     1  LIG1        0.2707
      8 C          -0.2630   -1.4790    0.0000 C.ar    1  LIG1        0.0567
      9 C          -1.2080   -1.1790    0.0000 C.ar    1  LIG1        0.0212
     10 C          -1.9290   -1.8830    0.0000 C.ar    1  LIG1        0.0735
     11 N          -2.9000   -1.6460    0.0000 N.am    1  LIG1       -0.1792
     12 C          -3.6130   -2.3830    0.0000 C.2     1  LIG1        0.2451
     13 O          -3.3210   -3.3130    0.0000 O.2     1  LIG1       -0.2730
     14 C          -4.5670   -2.1130    0.0000 C.3     1  LIG1        0.0786
     15 C          -5.2790   -2.8460    0.0000 C.3     1  LIG1        0.0096
     16 C          -4.8580   -1.1790    0.0000 C.3     1  LIG1        0.0096
     17 C          -1.6790   -2.8460    0.0000 C.ar    1  LIG1        0.0166
     18 C          -0.7250   -3.1080    0.0000 C.ar    1  LIG1        0.0015
     19 C          -0.0130   -2.4170    0.0000 C.ar    1  LIG1        0.0047
     20 O           0.2130    0.1830    0.0000 O.2     1  LIG1       -0.2679
     21 C           3.1420    2.0540    0.0000 C.3     1  LIG1        0.0469
     22 C           4.1000    2.3170    0.0000 C.3     1  LIG1        0.0129
     23 C           4.8290    1.5830    0.0000 C.3     1  LIG1        0.0701
     24 C           4.5670    0.6170    0.0000 C.2     1  LIG1        0.1802
     25 O           5.2750   -0.1130    0.0000 O.2     1  LIG1       -0.2908
     26 C           4.8080    3.0540    0.0000 C.3     1  LIG1        0.0008
     27 C           4.0080    3.3170    0.0000 C.3     1  LIG1        0.0008
@<TRIPOS>BOND
     1     1     2   ar
     2     1     5   ar
     3     1    24    1
     4     2     3   ar
     5     2    21    1
     6     3     4   ar
     7     4     5   ar
     8     4     6    1
     9     6     7   am
    10     7     8    1
    11     7    20    2
    12     8     9   ar
    13     8    19   ar
    14     9    10   ar
    15    10    11    1
    16    10    17   ar
    17    11    12   am
    18    12    13    2
    19    12    14    1
    20    14    15    1
    21    14    16    1
    22    17    18   ar
    23    18    19   ar
    24    21    22    1
    25    22    23    1
    26    22    26    1
    27    22    27    1
    28    23    24    1
    29    24    25    2
