@<TRIPOS>MOLECULE
27867_ChemDiv_5628-0640
 25 28 0 0 0
SMALL
GASTEIGER
Energy = 0

@<TRIPOS>ATOM
      1 C           1.5420   -1.2670    0.0000 C.ar    1  LIG1        0.1854
      2 N           1.6250   -0.2630    0.0000 N.ar    1  LIG1       -0.2272
      3 C           2.5880   -0.0630    0.0000 C.ar    1  LIG1        0.0630
      4 C           3.1000   -0.9040    0.0000 C.ar    1  LIG1        0.0235
      5 S           2.4290   -1.6710    0.0000 S.2     1  LIG1       -0.0544
      6 C           4.0880   -0.9040    0.0000 C.3     1  LIG1        0.0343
      7 C           4.5960   -0.0630    0.0000 C.3     1  LIG1        0.0057
      8 C           4.0880    0.7880    0.0000 C.3     1  LIG1        0.0067
      9 C           3.1000    0.7880    0.0000 C.3     1  LIG1        0.0461
     10 N           0.6580   -1.7420    0.0000 N.am    1  LIG1       -0.1504
     11 C          -0.2290   -1.2250    0.0000 C.2     1  LIG1        0.2737
     12 C          -0.2290   -0.2170    0.0000 C.ar    1  LIG1        0.0899
     13 C          -1.0830    0.2670    0.0000 C.ar    1  LIG1        0.1497
     14 O          -1.9710   -0.2630    0.0000 O.3     1  LIG1       -0.4533
     15 C          -2.8580    0.2670    0.0000 C.ar    1  LIG1        0.1453
     16 C          -2.8580    1.2710    0.0000 C.ar    1  LIG1        0.0375
     17 C          -3.7130    1.7460    0.0000 C.ar    1  LIG1        0.0031
     18 C          -4.6000    1.2290    0.0000 C.ar    1  LIG1        0.0002
     19 C          -4.6000    0.2210    0.0000 C.ar    1  LIG1        0.0031
     20 C          -3.7380   -0.2630    0.0000 C.ar    1  LIG1        0.0375
     21 C          -1.0830    1.2710    0.0000 C.ar    1  LIG1        0.0376
     22 C          -0.2290    1.7460    0.0000 C.ar    1  LIG1        0.0031
     23 C           0.6250    1.2710    0.0000 C.ar    1  LIG1        0.0003
     24 C           0.6250    0.2670    0.0000 C.ar    1  LIG1        0.0076
     25 O          -1.1170   -1.7080    0.0000 O.2     1  LIG1       -0.2678
@<TRIPOS>BOND
     1     1     2   ar
     2     1     5   ar
     3     1    10    1
     4     2     3   ar
     5     3     4   ar
     6     3     9    1
     7     4     5   ar
     8     4     6    1
     9     6     7    1
    10     7     8    1
    11     8     9    1
    12    10    11   am
    13    11    12    1
    14    11    25    2
    15    12    13   ar
    16    12    24   ar
    17    13    14    1
    18    13    21   ar
    19    14    15    1
    20    15    16   ar
    21    15    20   ar
    22    16    17   ar
    23    17    18   ar
    24    18    19   ar
    25    19    20   ar
    26    21    22   ar
    27    22    23   ar
    28    23    24   ar
