@<TRIPOS>MOLECULE
27865_ChemDiv_5298-5295
 23 25 0 0 0
SMALL
GASTEIGER
Energy = 0

@<TRIPOS>ATOM
      1 C           1.4500   -0.5000    0.0000 C.ar    1  LIG1        0.0803
      2 C           0.7540    0.1830    0.0000 C.ar    1  LIG1        0.0697
      3 N          -0.1330   -0.2540    0.0000 N.ar    1  LIG1       -0.2268
      4 C           0.0290   -1.2290    0.0000 C.ar    1  LIG1        0.1858
      5 S           0.9960   -1.3920    0.0000 S.2     1  LIG1       -0.0472
      6 N          -0.6750   -1.9540    0.0000 N.am    1  LIG1       -0.1505
      7 C          -1.6500   -1.6670    0.0000 C.2     1  LIG1        0.2707
      8 C          -1.9210   -0.7420    0.0000 C.ar    1  LIG1        0.0563
      9 C          -1.1830   -0.0170    0.0000 C.ar    1  LIG1        0.0168
     10 C          -1.4290    0.9250    0.0000 C.ar    1  LIG1        0.0683
     11 C          -2.3960    1.1960    0.0000 C.ar    1  LIG1        0.0682
     12 C          -3.1330    0.5080    0.0000 C.ar    1  LIG1        0.0124
     13 C          -2.8630   -0.4540    0.0000 C.ar    1  LIG1        0.0055
     14 CL         -2.6460    2.2040    0.0000 Cl      1  LIG1       -0.0814
     15 CL         -0.7080    1.6380    0.0000 Cl      1  LIG1       -0.0814
     16 O          -2.3460   -2.4040    0.0000 O.2     1  LIG1       -0.2679
     17 C           0.9960    1.1630    0.0000 C.3     1  LIG1        0.0469
     18 C           1.9670    1.4380    0.0000 C.3     1  LIG1        0.0129
     19 C           2.6960    0.7130    0.0000 C.3     1  LIG1        0.0701
     20 C           2.4250   -0.2540    0.0000 C.2     1  LIG1        0.1802
     21 O           3.1290   -0.9460    0.0000 O.2     1  LIG1       -0.2908
     22 C           2.6630    2.1290    0.0000 C.3     1  LIG1        0.0008
     23 C           1.8540    2.4080    0.0000 C.3     1  LIG1        0.0008
@<TRIPOS>BOND
     1     1     2   ar
     2     1     5   ar
     3     1    20    1
     4     2     3   ar
     5     2    17    1
     6     3     4   ar
     7     4     5   ar
     8     4     6    1
     9     6     7   am
    10     7     8    1
    11     7    16    2
    12     8     9   ar
    13     8    13   ar
    14     9    10   ar
    15    10    11   ar
    16    10    15    1
    17    11    12   ar
    18    11    14    1
    19    12    13   ar
    20    17    18    1
    21    18    19    1
    22    18    22    1
    23    18    23    1
    24    19    20    1
    25    20    21    2
