@<TRIPOS>MOLECULE
27871_ChemDiv_6040-4077
 30 33 0 0 0
SMALL
GASTEIGER
Energy = 0

@<TRIPOS>ATOM
      1 C           4.1750    0.4790    0.0000 C.ar    1  LIG1        0.0803
      2 C           3.4790    1.2040    0.0000 C.ar    1  LIG1        0.0697
      3 N           2.5750    0.7380    0.0000 N.ar    1  LIG1       -0.2268
      4 C           2.7540   -0.2460    0.0000 C.ar    1  LIG1        0.1858
      5 S           3.7380   -0.4130    0.0000 S.2     1  LIG1       -0.0472
      6 N           2.0540   -0.9670    0.0000 N.am    1  LIG1       -0.1505
      7 C           1.0710   -0.7380    0.0000 C.2     1  LIG1        0.2707
      8 C           0.3670   -1.4580    0.0000 C.ar    1  LIG1        0.0567
      9 C          -0.6000   -1.2330    0.0000 C.ar    1  LIG1        0.0212
     10 C          -1.2960   -1.9540    0.0000 C.ar    1  LIG1        0.0738
     11 N          -2.2830   -1.6920    0.0000 N.am    1  LIG1       -0.1754
     12 C          -2.9790   -2.4080    0.0000 C.2     1  LIG1        0.2690
     13 O          -2.7000   -3.3960    0.0000 O.2     1  LIG1       -0.2680
     14 C          -3.9460   -2.1880    0.0000 C.ar    1  LIG1        0.0554
     15 C          -4.2330   -1.2330    0.0000 C.ar    1  LIG1        0.0046
     16 C          -5.2000   -0.9670    0.0000 C.ar    1  LIG1        0.0001
     17 C          -5.8630   -1.7250    0.0000 C.ar    1  LIG1        0.0000
     18 C          -5.5790   -2.6790    0.0000 C.ar    1  LIG1        0.0001
     19 C          -4.6250   -2.9000    0.0000 C.ar    1  LIG1        0.0046
     20 C          -0.9880   -2.9000    0.0000 C.ar    1  LIG1        0.0166
     21 C          -0.0250   -3.1330    0.0000 C.ar    1  LIG1        0.0015
     22 C           0.6540   -2.4080    0.0000 C.ar    1  LIG1        0.0047
     23 O           0.7830    0.2170    0.0000 O.2     1  LIG1       -0.2679
     24 C           3.7380    2.1540    0.0000 C.3     1  LIG1        0.0469
     25 C           4.7040    2.4130    0.0000 C.3     1  LIG1        0.0129
     26 C           5.4040    1.7250    0.0000 C.3     1  LIG1        0.0701
     27 C           5.1460    0.7380    0.0000 C.2     1  LIG1        0.1802
     28 O           5.8630    0.0170    0.0000 O.2     1  LIG1       -0.2908
     29 C           5.4210    3.1080    0.0000 C.3     1  LIG1        0.0008
     30 C           4.6170    3.4000    0.0000 C.3     1  LIG1        0.0008
@<TRIPOS>BOND
     1     1     2   ar
     2     1     5   ar
     3     1    27    1
     4     2     3   ar
     5     2    24    1
     6     3     4   ar
     7     4     5   ar
     8     4     6    1
     9     6     7   am
    10     7     8    1
    11     7    23    2
    12     8     9   ar
    13     8    22   ar
    14     9    10   ar
    15    10    11    1
    16    10    20   ar
    17    11    12   am
    18    12    13    2
    19    12    14    1
    20    14    15   ar
    21    14    19   ar
    22    15    16   ar
    23    16    17   ar
    24    17    18   ar
    25    18    19   ar
    26    20    21   ar
    27    21    22   ar
    28    24    25    1
    29    25    26    1
    30    25    29    1
    31    25    30    1
    32    26    27    1
    33    27    28    2
