@<TRIPOS>MOLECULE
27876_ChemDiv_6231-0138
 30 32 0 0 0
SMALL
GASTEIGER
Energy = 0

@<TRIPOS>ATOM
      1 N           2.8830    1.7880    0.0000 N.am    1  LIG1        0.0126
      2 C           2.1830    1.0710    0.0000 C.3     1  LIG1        0.1938
      3 S           2.6380    0.2080    0.0000 S.3     1  LIG1        0.0093
      4 C           3.6250    0.3750    0.0000 C.2     1  LIG1        0.4357
      5 N           3.7630    1.3420    0.0000 N.2     1  LIG1        0.2097
      6 N           4.3500   -0.3170    0.0000 N.am    1  LIG1       -0.1042
      7 C           4.1130   -1.2790    0.0000 C.2     1  LIG1        0.2513
      8 O           4.8380   -1.9710    0.0000 O.2     1  LIG1       -0.2728
      9 C           3.1580   -1.5670    0.0000 C.3     1  LIG1        0.0970
     10 C           1.6830    0.2080    0.0000 C.ar    1  LIG1        0.0096
     11 C           2.1830   -0.6580    0.0000 C.ar    1  LIG1       -0.0036
     12 C           1.6830   -1.5290    0.0000 C.ar    1  LIG1       -0.0241
     13 C           0.6710   -1.5290    0.0000 C.ar    1  LIG1       -0.1123
     14 N           0.1670   -2.4000    0.0000 N.pl3   1  LIG1       -0.5358
     15 S          -0.8420   -2.4000    0.0000 S.O2    1  LIG1       -0.0578
     16 C          -1.8420   -2.4000    0.0000 C.ar    1  LIG1        0.0893
     17 C          -2.3420   -1.5290    0.0000 C.ar    1  LIG1        0.0166
     18 C          -3.3420   -1.5290    0.0000 C.ar    1  LIG1       -0.0030
     19 C          -3.8420   -2.4000    0.0000 C.ar    1  LIG1       -0.0218
     20 C          -3.3420   -3.2630    0.0000 C.ar    1  LIG1       -0.0030
     21 C          -2.3330   -3.2630    0.0000 C.ar    1  LIG1        0.0166
     22 C          -4.8420   -2.4080    0.0000 C.3     1  LIG1        0.0310
     23 O          -0.8420   -3.4000    0.0000 O.2     1  LIG1       -0.1842
     24 O          -0.8420   -1.4000    0.0000 O.2     1  LIG1       -0.1842
     25 C           0.1710   -0.6580    0.0000 C.ar    1  LIG1       -0.0241
     26 C           0.6710    0.2080    0.0000 C.ar    1  LIG1       -0.0036
     27 C           1.4080    1.7210    0.0000 C.3     1  LIG1        0.0428
     28 C           2.7420    2.7830    0.0000 C.2     1  LIG1        0.2875
     29 O           1.8080    3.1460    0.0000 O.2     1  LIG1       -0.2691
     30 C           3.5210    3.4040    0.0000 C.3     1  LIG1        0.1008
@<TRIPOS>BOND
     1     1     2    1
     2     1     5    1
     3     1    28   am
     4     2     3    1
     5     2    10    1
     6     2    27    1
     7     3     4    1
     8     4     5    2
     9     4     6    1
    10     6     7   am
    11     7     8    2
    12     7     9    1
    13    10    11   ar
    14    10    26   ar
    15    11    12   ar
    16    12    13   ar
    17    13    14    1
    18    13    25   ar
    19    14    15    1
    20    15    16    1
    21    15    23    2
    22    15    24    2
    23    16    17   ar
    24    16    21   ar
    25    17    18   ar
    26    18    19   ar
    27    19    20   ar
    28    19    22    1
    29    20    21   ar
    30    25    26   ar
    31    28    29    2
    32    28    30    1
