@<TRIPOS>MOLECULE
27874_ChemDiv_4250-0050
 16 16 0 0 0
SMALL
GASTEIGER
Energy = 0

@<TRIPOS>ATOM
      1 N          -1.1290    0.7710    0.0000 N.am    1  LIG1        0.0087
      2 C          -1.4250   -0.1710    0.0000 C.3     1  LIG1        0.1751
      3 S          -0.5830   -0.7630    0.0000 S.3     1  LIG1        0.0051
      4 C           0.1670   -0.1380    0.0000 C.2     1  LIG1        0.4354
      5 N          -0.0750    0.7710    0.0000 N.2     1  LIG1        0.2094
      6 N           1.1210   -0.4170    0.0000 N.am    1  LIG1       -0.1042
      7 C           1.8630    0.2630    0.0000 C.2     1  LIG1        0.2513
      8 O           1.7330    1.3080    0.0000 O.2     1  LIG1       -0.2728
      9 C           2.7580   -0.0130    0.0000 C.3     1  LIG1        0.0970
     10 C          -1.6250   -1.1380    0.0000 C.3     1  LIG1        0.0354
     11 C          -2.5540   -1.4460    0.0000 C.3     1  LIG1        0.0028
     12 C          -2.7460   -2.4130    0.0000 C.3     1  LIG1        0.0001
     13 C          -2.3670    0.4170    0.0000 C.3     1  LIG1        0.0381
     14 C          -1.7380    1.5500    0.0000 C.2     1  LIG1        0.2871
     15 O          -2.7630    1.5130    0.0000 O.2     1  LIG1       -0.2692
     16 C          -1.3670    2.4170    0.0000 C.3     1  LIG1        0.1008
@<TRIPOS>BOND
     1     1     2    1
     2     1     5    1
     3     1    14   am
     4     2     3    1
     5     2    10    1
     6     2    13    1
     7     3     4    1
     8     4     5    2
     9     4     6    1
    10     6     7   am
    11     7     8    2
    12     7     9    1
    13    10    11    1
    14    11    12    1
    15    14    15    2
    16    14    16    1
