@<TRIPOS>MOLECULE
27878_ChemDiv_8005-2784
 24 25 0 0 0
SMALL
GASTEIGER
Energy = 0

@<TRIPOS>ATOM
      1 C          -1.3210    1.5330    0.0000 C.3     1  LIG1        0.1973
      2 N          -0.7500    2.3500    0.0000 N.am    1  LIG1        0.0105
      3 N           0.1960    2.0130    0.0000 N.2     1  LIG1        0.2094
      4 C           0.1960    1.0210    0.0000 C.2     1  LIG1        0.4354
      5 S          -0.7500    0.7080    0.0000 S.3     1  LIG1        0.0069
      6 N           1.0130    0.4540    0.0000 N.am    1  LIG1       -0.1042
      7 C           1.9130    0.8670    0.0000 C.2     1  LIG1        0.2513
      8 O           2.1040    1.8830    0.0000 O.2     1  LIG1       -0.2728
      9 C           2.6710    0.3080    0.0000 C.3     1  LIG1        0.0970
     10 C          -1.0630    3.2710    0.0000 C.2     1  LIG1        0.2872
     11 O          -2.0710    3.5880    0.0000 O.2     1  LIG1       -0.2691
     12 C          -0.4210    3.9960    0.0000 C.3     1  LIG1        0.1008
     13 C          -2.0130    0.7880    0.0000 C.3     1  LIG1        0.1910
     14 S          -1.7170   -0.1670    0.0000 S.O2    1  LIG1        0.0114
     15 C          -1.4250   -1.1170    0.0000 C.ar    1  LIG1        0.1058
     16 C          -0.4580   -1.3500    0.0000 C.ar    1  LIG1        0.0188
     17 C          -0.1540   -2.2880    0.0000 C.ar    1  LIG1        0.0080
     18 C          -0.8080   -3.0460    0.0000 C.ar    1  LIG1        0.0346
     19 C          -1.8000   -2.8130    0.0000 C.ar    1  LIG1        0.0080
     20 C          -2.1040   -1.8750    0.0000 C.ar    1  LIG1        0.0188
     21 BR         -0.4960   -3.9920    0.0000 Br      1  LIG1       -0.0490
     22 O          -2.6750   -0.4750    0.0000 O.2     1  LIG1       -0.1685
     23 O          -0.7500    0.1330    0.0000 O.2     1  LIG1       -0.1685
     24 C          -1.9380    2.3500    0.0000 C.3     1  LIG1        0.0400
@<TRIPOS>BOND
     1     1     2    1
     2     1     5    1
     3     1    13    1
     4     1    24    1
     5     2     3    1
     6     2    10   am
     7     3     4    2
     8     4     5    1
     9     4     6    1
    10     6     7   am
    11     7     8    2
    12     7     9    1
    13    10    11    2
    14    10    12    1
    15    13    14    1
    16    14    15    1
    17    14    22    2
    18    14    23    2
    19    15    16   ar
    20    15    20   ar
    21    16    17   ar
    22    17    18   ar
    23    18    19   ar
    24    18    21    1
    25    19    20   ar
