@<TRIPOS>MOLECULE
27889_ChemDiv_6040-4605
 23 25 0 0 0
SMALL
GASTEIGER
Energy = 0

@<TRIPOS>ATOM
      1 C           1.9500   -0.4710    0.0000 C.ar    1  LIG1        0.0803
      2 C           1.2330    0.2290    0.0000 C.ar    1  LIG1        0.0697
      3 N           0.3630   -0.2250    0.0000 N.ar    1  LIG1       -0.2268
      4 C           0.5290   -1.2000    0.0000 C.ar    1  LIG1        0.1858
      5 S           1.5040   -1.3710    0.0000 S.2     1  LIG1       -0.0472
      6 N          -0.1790   -1.9460    0.0000 N.am    1  LIG1       -0.1505
      7 C          -1.1330   -1.6960    0.0000 C.2     1  LIG1        0.2707
      8 C          -1.4080   -0.7580    0.0000 C.ar    1  LIG1        0.0551
      9 C          -2.3630   -0.5130    0.0000 C.ar    1  LIG1        0.0000
     10 C          -2.6540    0.4670    0.0000 C.ar    1  LIG1       -0.0256
     11 C          -1.9500    1.1670    0.0000 C.ar    1  LIG1       -0.0258
     12 C          -0.9710    0.9170    0.0000 C.ar    1  LIG1       -0.0044
     13 C          -0.6960   -0.0210    0.0000 C.ar    1  LIG1        0.0042
     14 C          -2.2250    2.1420    0.0000 C.3     1  LIG1        0.0307
     15 C          -3.6380    0.7580    0.0000 C.3     1  LIG1        0.0307
     16 O          -1.8380   -2.4290    0.0000 O.2     1  LIG1       -0.2679
     17 C           1.5040    1.2040    0.0000 C.3     1  LIG1        0.0469
     18 C           2.4580    1.4540    0.0000 C.3     1  LIG1        0.0129
     19 C           3.1750    0.7250    0.0000 C.3     1  LIG1        0.0701
     20 C           2.9290   -0.2250    0.0000 C.2     1  LIG1        0.1802
     21 O           3.6330   -0.9250    0.0000 O.2     1  LIG1       -0.2908
     22 C           3.1750    2.1420    0.0000 C.3     1  LIG1        0.0008
     23 C           2.3830    2.4330    0.0000 C.3     1  LIG1        0.0008
@<TRIPOS>BOND
     1     1     2   ar
     2     1     5   ar
     3     1    20    1
     4     2     3   ar
     5     2    17    1
     6     3     4   ar
     7     4     5   ar
     8     4     6    1
     9     6     7   am
    10     7     8    1
    11     7    16    2
    12     8     9   ar
    13     8    13   ar
    14     9    10   ar
    15    10    11   ar
    16    10    15    1
    17    11    12   ar
    18    11    14    1
    19    12    13   ar
    20    17    18    1
    21    18    19    1
    22    18    22    1
    23    18    23    1
    24    19    20    1
    25    20    21    2
