@<TRIPOS>MOLECULE
27880_ChemDiv_8009-7673
 25 28 0 0 0
SMALL
GASTEIGER
Energy = 0

@<TRIPOS>ATOM
      1 C           1.1750    0.2170    0.0000 C.3     1  LIG1        0.1950
      2 N           1.1750    1.2080    0.0000 N.am    1  LIG1        0.0126
      3 N           0.2380    1.5170    0.0000 N.2     1  LIG1        0.2097
      4 C          -0.3540    0.7290    0.0000 C.2     1  LIG1        0.4357
      5 S           0.2380   -0.0880    0.0000 S.3     1  LIG1        0.0093
      6 N          -1.3540    0.7290    0.0000 N.am    1  LIG1       -0.1042
      7 C          -2.1630    0.2420    0.0000 C.2     1  LIG1        0.2513
      8 O          -2.3710   -0.7500    0.0000 O.2     1  LIG1       -0.2728
      9 C          -2.9130    0.9210    0.0000 C.3     1  LIG1        0.0970
     10 C           1.9880    1.8290    0.0000 C.2     1  LIG1        0.2875
     11 O           1.8630    2.8210    0.0000 O.2     1  LIG1       -0.2691
     12 C           2.9080    1.4380    0.0000 C.3     1  LIG1        0.1008
     13 C           1.1750   -0.7960    0.0000 C.ar    1  LIG1        0.0154
     14 C           0.3040   -1.2830    0.0000 C.ar    1  LIG1       -0.0010
     15 C           0.3040   -2.3040    0.0000 C.ar    1  LIG1       -0.0002
     16 C           1.1750   -2.8170    0.0000 C.ar    1  LIG1        0.0005
     17 C           2.0380   -2.3040    0.0000 C.ar    1  LIG1        0.0059
     18 C           2.0380   -1.2830    0.0000 C.ar    1  LIG1        0.0237
     19 S           2.9080   -0.7960    0.0000 S.3     1  LIG1       -0.1138
     20 C           2.9080    0.2170    0.0000 C.3     1  LIG1        0.0653
     21 C           2.0380    0.7000    0.0000 C.3     1  LIG1        0.0517
     22 C          -0.5540   -2.8170    0.0000 C.ar    1  LIG1       -0.0000
     23 C          -1.4170   -2.3040    0.0000 C.ar    1  LIG1       -0.0000
     24 C          -1.4170   -1.2830    0.0000 C.ar    1  LIG1       -0.0000
     25 C          -0.5540   -0.7960    0.0000 C.ar    1  LIG1       -0.0002
@<TRIPOS>BOND
     1     1     2    1
     2     1     5    1
     3     1    13    1
     4     1    21    1
     5     2     3    1
     6     2    10   am
     7     3     4    2
     8     4     5    1
     9     4     6    1
    10     6     7   am
    11     7     8    2
    12     7     9    1
    13    10    11    2
    14    10    12    1
    15    13    14   ar
    16    13    18   ar
    17    14    15   ar
    18    14    25   ar
    19    15    16   ar
    20    15    22   ar
    21    16    17   ar
    22    17    18   ar
    23    18    19    1
    24    19    20    1
    25    20    21    1
    26    22    23   ar
    27    23    24   ar
    28    24    25   ar
