@<TRIPOS>MOLECULE
27882_ChemDiv_C185-0012
 23 24 0 0 0
SMALL
GASTEIGER
Energy = 0

@<TRIPOS>ATOM
      1 N           0.1420    1.5750    0.0000 N.am    1  LIG1        0.0156
      2 N           1.1080    1.8420    0.0000 N.2     1  LIG1        0.2098
      3 C           1.6670    1.0000    0.0000 C.2     1  LIG1        0.4358
      4 S           1.0460    0.2130    0.0000 S.3     1  LIG1        0.0123
      5 C           0.1000    0.5750    0.0000 C.3     1  LIG1        0.2271
      6 C          -0.7210   -0.0290    0.0000 C.ar    1  LIG1        0.0127
      7 C          -0.6130   -1.0250    0.0000 C.ar    1  LIG1       -0.0003
      8 C          -1.4250   -1.6250    0.0000 C.ar    1  LIG1        0.0143
      9 C          -2.3460   -1.2170    0.0000 C.ar    1  LIG1        0.0478
     10 N          -3.1460   -1.7960    0.0000 N.pl3   1  LIG1       -0.3075
     11 C          -3.0420   -2.7920    0.0000 C.3     1  LIG1        0.0908
     12 C          -2.1330   -3.1960    0.0000 C.3     1  LIG1        0.0232
     13 C          -4.0500   -1.3880    0.0000 C.3     1  LIG1        0.0908
     14 C          -4.1580   -0.4000    0.0000 C.3     1  LIG1        0.0232
     15 C          -2.4500   -0.2130    0.0000 C.ar    1  LIG1        0.0143
     16 C          -1.6380    0.3790    0.0000 C.ar    1  LIG1       -0.0003
     17 N           2.6750    0.9670    0.0000 N.am    1  LIG1       -0.1042
     18 C           3.1420    0.0750    0.0000 C.2     1  LIG1        0.2513
     19 O           4.1540    0.0290    0.0000 O.2     1  LIG1       -0.2728
     20 C           2.6040   -0.7830    0.0000 C.3     1  LIG1        0.0970
     21 C          -0.6420    2.2040    0.0000 C.2     1  LIG1        0.2876
     22 O          -0.4750    3.2000    0.0000 O.2     1  LIG1       -0.2691
     23 C          -1.5170    2.3750    0.0000 C.3     1  LIG1        0.1008
@<TRIPOS>BOND
     1     1     2    1
     2     1     5    1
     3     1    21   am
     4     2     3    2
     5     3     4    1
     6     3    17    1
     7     4     5    1
     8     5     6    1
     9     6     7   ar
    10     6    16   ar
    11     7     8   ar
    12     8     9   ar
    13     9    10    1
    14     9    15   ar
    15    10    11    1
    16    10    13    1
    17    11    12    1
    18    13    14    1
    19    15    16   ar
    20    17    18   am
    21    18    19    2
    22    18    20    1
    23    21    22    2
    24    21    23    1
