@<TRIPOS>MOLECULE
27888_ChemDiv_C185-0043
 23 24 0 0 0
SMALL
GASTEIGER
Energy = 0

@<TRIPOS>ATOM
      1 C          -1.1460   -0.1830    0.0000 C.ar    1  LIG1        0.0807
      2 C          -2.0130    0.3830    0.0000 C.ar    1  LIG1        0.2639
      3 N          -2.9170   -0.1040    0.0000 N.ar    1  LIG1       -0.2469
      4 C          -2.9630   -1.1170    0.0000 C.ar    1  LIG1        0.3336
      5 N          -2.1040   -1.6670    0.0000 N.ar    1  LIG1       -0.2830
      6 C          -1.1920   -1.1920    0.0000 C.ar    1  LIG1        0.0449
      7 C          -0.3380   -1.7460    0.0000 C.3     1  LIG1        0.0501
      8 C          -2.1540   -2.6880    0.0000 C.3     1  LIG1        0.1347
      9 O          -3.8500   -1.6250    0.0000 O.2     1  LIG1       -0.2462
     10 C          -3.7750    0.4580    0.0000 C.3     1  LIG1        0.1382
     11 O          -1.9130    1.3630    0.0000 O.2     1  LIG1       -0.2671
     12 C          -0.2380    0.2880    0.0000 C.3     1  LIG1        0.2327
     13 N          -0.1330    1.3130    0.0000 N.am    1  LIG1        0.0158
     14 N           0.8630    1.5170    0.0000 N.2     1  LIG1        0.2098
     15 C           1.3670    0.6420    0.0000 C.2     1  LIG1        0.4358
     16 S           0.6790   -0.1250    0.0000 S.3     1  LIG1        0.0125
     17 N           2.3920    0.5500    0.0000 N.am    1  LIG1       -0.1042
     18 C           2.8210   -0.3790    0.0000 C.2     1  LIG1        0.2513
     19 O           3.8460   -0.4710    0.0000 O.2     1  LIG1       -0.2728
     20 C           2.2330   -1.2080    0.0000 C.3     1  LIG1        0.0970
     21 C          -0.4710    1.9710    0.0000 C.2     1  LIG1        0.2876
     22 O           0.2670    2.6920    0.0000 O.2     1  LIG1       -0.2691
     23 C          -1.1460    2.4210    0.0000 C.3     1  LIG1        0.1008
@<TRIPOS>BOND
     1     1     2   ar
     2     1     6   ar
     3     1    12    1
     4     2     3   ar
     5     2    11    2
     6     3     4   ar
     7     3    10    1
     8     4     5   ar
     9     4     9    2
    10     5     6   ar
    11     5     8    1
    12     6     7    1
    13    12    13    1
    14    12    16    1
    15    13    14    1
    16    13    21   am
    17    14    15    2
    18    15    16    1
    19    15    17    1
    20    17    18   am
    21    18    19    2
    22    18    20    1
    23    21    22    2
    24    21    23    1
