@<TRIPOS>MOLECULE
27890_ChemDiv_D136-0019
 21 24 0 0 0
SMALL
GASTEIGER
Energy = 0

@<TRIPOS>ATOM
      1 C           1.0460   -0.4460    0.0000 C.ar    1  LIG1        0.0578
      2 C           0.9380   -1.4460    0.0000 C.ar    1  LIG1        0.1767
      3 O           1.8580   -1.8500    0.0000 O.2     1  LIG1       -0.3534
      4 N           2.5130   -1.1000    0.0000 N.ar    1  LIG1       -0.0770
      5 C           2.0130   -0.2460    0.0000 C.ar    1  LIG1        0.1229
      6 C           2.3170    0.7170    0.0000 C.ar    1  LIG1        0.0223
      7 C           1.6460    1.4500    0.0000 C.ar    1  LIG1        0.0022
      8 C           0.6670    1.2330    0.0000 C.ar    1  LIG1        0.0338
      9 C           0.3630    0.2790    0.0000 C.ar    1  LIG1        0.0053
     10 C           0.0000    1.9750    0.0000 C.3     1  LIG1        0.2601
     11 O           0.2080    2.9580    0.0000 O.3     1  LIG1       -0.3244
     12 C          -0.6670    3.4580    0.0000 C.3     1  LIG1        0.1772
     13 C          -1.4080    2.7790    0.0000 C.3     1  LIG1        0.1772
     14 O          -0.9880    1.8710    0.0000 O.3     1  LIG1       -0.3244
     15 C           0.0750   -1.9460    0.0000 C.ar    1  LIG1        0.0372
     16 C           0.0750   -2.9540    0.0000 C.ar    1  LIG1        0.0028
     17 C          -0.7880   -3.4540    0.0000 C.ar    1  LIG1       -0.0042
     18 C          -1.6500   -2.9540    0.0000 C.ar    1  LIG1       -0.0218
     19 C          -1.6500   -1.9540    0.0000 C.ar    1  LIG1       -0.0042
     20 C          -0.7880   -1.4460    0.0000 C.ar    1  LIG1        0.0028
     21 C          -2.5170   -3.4540    0.0000 C.3     1  LIG1        0.0310
@<TRIPOS>BOND
     1     1     2   ar
     2     1     5   ar
     3     1     9   ar
     4     2     3   ar
     5     2    15    1
     6     3     4   ar
     7     4     5   ar
     8     5     6   ar
     9     6     7   ar
    10     7     8   ar
    11     8     9   ar
    12     8    10    1
    13    10    11    1
    14    10    14    1
    15    11    12    1
    16    12    13    1
    17    13    14    1
    18    15    16   ar
    19    15    20   ar
    20    16    17   ar
    21    17    18   ar
    22    18    19   ar
    23    18    21    1
    24    19    20   ar
