@<TRIPOS>MOLECULE
27891_ChemDiv_6040-4629
 23 25 0 0 0
SMALL
GASTEIGER
Energy = 0

@<TRIPOS>ATOM
      1 C           2.3210   -0.5210    0.0000 C.ar    1  LIG1        0.0803
      2 C           1.6000    0.1960    0.0000 C.ar    1  LIG1        0.0697
      3 N           0.7210   -0.2500    0.0000 N.ar    1  LIG1       -0.2268
      4 C           0.8710   -1.2500    0.0000 C.ar    1  LIG1        0.1858
      5 S           1.8630   -1.3920    0.0000 S.2     1  LIG1       -0.0472
      6 N           0.1540   -1.9460    0.0000 N.am    1  LIG1       -0.1505
      7 C          -0.8080   -1.6920    0.0000 C.2     1  LIG1        0.2708
      8 C          -1.0580   -0.7250    0.0000 C.ar    1  LIG1        0.0585
      9 C          -2.0210   -0.4580    0.0000 C.ar    1  LIG1        0.0415
     10 C          -2.2750    0.5080    0.0000 C.ar    1  LIG1        0.1389
     11 O          -3.2460    0.7880    0.0000 O.3     1  LIG1       -0.4714
     12 C          -3.9710    0.0960    0.0000 C.3     1  LIG1        0.2525
     13 C          -1.5670    1.2040    0.0000 C.ar    1  LIG1        0.0369
     14 C          -0.5960    0.9330    0.0000 C.ar    1  LIG1        0.0033
     15 C          -0.3420   -0.0130    0.0000 C.ar    1  LIG1        0.0048
     16 O          -1.5250   -2.4040    0.0000 O.2     1  LIG1       -0.2679
     17 C           1.8630    1.1580    0.0000 C.3     1  LIG1        0.0469
     18 C           2.8330    1.4080    0.0000 C.3     1  LIG1        0.0129
     19 C           3.5330    0.7130    0.0000 C.3     1  LIG1        0.0701
     20 C           3.2710   -0.2500    0.0000 C.2     1  LIG1        0.1802
     21 O           3.9670   -0.9790    0.0000 O.2     1  LIG1       -0.2908
     22 C           3.5540    2.1210    0.0000 C.3     1  LIG1        0.0008
     23 C           2.7540    2.4080    0.0000 C.3     1  LIG1        0.0008
@<TRIPOS>BOND
     1     1     2   ar
     2     1     5   ar
     3     1    20    1
     4     2     3   ar
     5     2    17    1
     6     3     4   ar
     7     4     5   ar
     8     4     6    1
     9     6     7   am
    10     7     8    1
    11     7    16    2
    12     8     9   ar
    13     8    15   ar
    14     9    10   ar
    15    10    11    1
    16    10    13   ar
    17    11    12    1
    18    13    14   ar
    19    14    15   ar
    20    17    18    1
    21    18    19    1
    22    18    22    1
    23    18    23    1
    24    19    20    1
    25    20    21    2
