@<TRIPOS>MOLECULE
27897_ChemDiv_8009-8296
 28 31 0 0 0
SMALL
GASTEIGER
Energy = 0

@<TRIPOS>ATOM
      1 C          -3.0000    0.8080    0.0000 C.ar    1  LIG1        0.0803
      2 C          -3.0000   -0.1710    0.0000 C.ar    1  LIG1        0.0697
      3 N          -2.0380   -0.4670    0.0000 N.ar    1  LIG1       -0.2268
      4 C          -1.4670    0.3130    0.0000 C.ar    1  LIG1        0.1858
      5 S          -2.0380    1.1380    0.0000 S.2     1  LIG1       -0.0472
      6 N          -0.4670    0.3130    0.0000 N.am    1  LIG1       -0.1505
      7 C           0.0080   -0.5250    0.0000 C.2     1  LIG1        0.2707
      8 C           1.0080   -0.5250    0.0000 C.ar    1  LIG1        0.0555
      9 C           1.5080   -1.3960    0.0000 C.ar    1  LIG1        0.0059
     10 C           2.5290   -1.3960    0.0000 C.ar    1  LIG1        0.0155
     11 C           3.0290   -0.5250    0.0000 C.ar    1  LIG1        0.0606
     12 N           4.0210   -0.5250    0.0000 N.am    1  LIG1       -0.2081
     13 C           4.7290    0.2000    0.0000 C.2     1  LIG1        0.2356
     14 C           5.6040   -0.1880    0.0000 C.3     1  LIG1        0.0956
     15 C           5.6040   -1.1460    0.0000 C.3     1  LIG1        0.0956
     16 C           4.6920   -1.3960    0.0000 C.2     1  LIG1        0.2356
     17 O           4.2380   -2.3250    0.0000 O.2     1  LIG1       -0.2741
     18 O           4.5460    1.2170    0.0000 O.2     1  LIG1       -0.2741
     19 C           2.5290    0.3420    0.0000 C.ar    1  LIG1        0.0155
     20 C           1.5380    0.3420    0.0000 C.ar    1  LIG1        0.0059
     21 O          -0.4670   -1.3960    0.0000 O.2     1  LIG1       -0.2679
     22 C          -3.8710   -0.6670    0.0000 C.3     1  LIG1        0.0469
     23 C          -4.7380   -0.1500    0.0000 C.3     1  LIG1        0.0129
     24 C          -4.7380    0.8080    0.0000 C.3     1  LIG1        0.0701
     25 C          -3.8710    1.3040    0.0000 C.2     1  LIG1        0.1802
     26 O          -3.8710    2.3290    0.0000 O.2     1  LIG1       -0.2908
     27 C          -5.6080    0.3420    0.0000 C.3     1  LIG1        0.0008
     28 C          -5.6080   -0.6500    0.0000 C.3     1  LIG1        0.0008
@<TRIPOS>BOND
     1     1     2   ar
     2     1     5   ar
     3     1    25    1
     4     2     3   ar
     5     2    22    1
     6     3     4   ar
     7     4     5   ar
     8     4     6    1
     9     6     7   am
    10     7     8    1
    11     7    21    2
    12     8     9   ar
    13     8    20   ar
    14     9    10   ar
    15    10    11   ar
    16    11    12    1
    17    11    19   ar
    18    12    13   am
    19    12    16   am
    20    13    14    1
    21    13    18    2
    22    14    15    1
    23    15    16    1
    24    16    17    2
    25    19    20   ar
    26    22    23    1
    27    23    24    1
    28    23    27    1
    29    23    28    1
    30    24    25    1
    31    25    26    2
