@<TRIPOS>MOLECULE
27893_ChemDiv_6040-4689
 27 29 0 0 0
SMALL
GASTEIGER
Energy = 0

@<TRIPOS>ATOM
      1 C           2.7790   -1.2580    0.0000 C.ar    1  LIG1        0.0803
      2 C           2.0750   -0.5460    0.0000 C.ar    1  LIG1        0.0697
      3 N           1.1920   -0.9960    0.0000 N.ar    1  LIG1       -0.2268
      4 C           1.3330   -1.9750    0.0000 C.ar    1  LIG1        0.1858
      5 S           2.3330   -2.1380    0.0000 S.2     1  LIG1       -0.0472
      6 N           0.6170   -2.6880    0.0000 N.am    1  LIG1       -0.1505
      7 C          -0.3460   -2.4000    0.0000 C.2     1  LIG1        0.2708
      8 C          -0.6040   -1.4500    0.0000 C.ar    1  LIG1        0.0587
      9 C          -1.5540   -1.1630    0.0000 C.ar    1  LIG1        0.0446
     10 C          -1.7920   -0.2130    0.0000 C.ar    1  LIG1        0.1723
     11 C          -1.0790    0.4830    0.0000 C.ar    1  LIG1        0.1722
     12 C          -0.1080    0.1960    0.0000 C.ar    1  LIG1        0.0402
     13 C           0.1290   -0.7580    0.0000 C.ar    1  LIG1        0.0079
     14 O          -1.3170    1.4830    0.0000 O.3     1  LIG1       -0.4724
     15 C          -0.5880    2.1670    0.0000 C.3     1  LIG1        0.2057
     16 C          -0.8130    3.1210    0.0000 C.3     1  LIG1        0.0512
     17 O          -2.7670    0.0750    0.0000 O.3     1  LIG1       -0.4724
     18 C          -3.4960   -0.6170    0.0000 C.3     1  LIG1        0.2057
     19 C          -4.4630   -0.3290    0.0000 C.3     1  LIG1        0.0512
     20 O          -1.0630   -3.1170    0.0000 O.2     1  LIG1       -0.2679
     21 C           2.3330    0.4080    0.0000 C.3     1  LIG1        0.0469
     22 C           3.3040    0.6710    0.0000 C.3     1  LIG1        0.0129
     23 C           4.0000   -0.0210    0.0000 C.3     1  LIG1        0.0701
     24 C           3.7420   -0.9960    0.0000 C.2     1  LIG1        0.1802
     25 O           4.4580   -1.7080    0.0000 O.2     1  LIG1       -0.2908
     26 C           4.0170    1.3880    0.0000 C.3     1  LIG1        0.0008
     27 C           3.2250    1.6670    0.0000 C.3     1  LIG1        0.0008
@<TRIPOS>BOND
     1     1     2   ar
     2     1     5   ar
     3     1    24    1
     4     2     3   ar
     5     2    21    1
     6     3     4   ar
     7     4     5   ar
     8     4     6    1
     9     6     7   am
    10     7     8    1
    11     7    20    2
    12     8     9   ar
    13     8    13   ar
    14     9    10   ar
    15    10    11   ar
    16    10    17    1
    17    11    12   ar
    18    11    14    1
    19    12    13   ar
    20    14    15    1
    21    15    16    1
    22    17    18    1
    23    18    19    1
    24    21    22    1
    25    22    23    1
    26    22    26    1
    27    22    27    1
    28    23    24    1
    29    24    25    2
