@<TRIPOS>MOLECULE
27895_ChemDiv_6040-4767
 27 29 0 0 0
SMALL
GASTEIGER
Energy = 0

@<TRIPOS>ATOM
      1 C           2.7710    0.9540    0.0000 C.ar    1  LIG1        0.0803
      2 C           2.0670    1.6580    0.0000 C.ar    1  LIG1        0.0697
      3 N           1.1830    1.2000    0.0000 N.ar    1  LIG1       -0.2268
      4 C           1.3210    0.2330    0.0000 C.ar    1  LIG1        0.1858
      5 S           2.3170    0.0670    0.0000 S.2     1  LIG1       -0.0472
      6 N           0.6080   -0.4710    0.0000 N.am    1  LIG1       -0.1505
      7 C          -0.3580   -0.2000    0.0000 C.2     1  LIG1        0.2709
      8 C          -1.0830   -0.9080    0.0000 C.ar    1  LIG1        0.0617
      9 C          -0.8330   -1.8830    0.0000 C.ar    1  LIG1        0.0448
     10 C          -1.5500   -2.5880    0.0000 C.ar    1  LIG1        0.1756
     11 C          -2.5000   -2.2960    0.0000 C.ar    1  LIG1        0.2061
     12 C          -2.7500   -1.3460    0.0000 C.ar    1  LIG1        0.1756
     13 C          -2.0330   -0.6380    0.0000 C.ar    1  LIG1        0.0448
     14 O          -3.7500   -1.0710    0.0000 O.3     1  LIG1       -0.4683
     15 C          -4.4460   -1.7960    0.0000 C.3     1  LIG1        0.2526
     16 O          -3.2210   -2.9790    0.0000 O.3     1  LIG1       -0.4654
     17 C          -4.1710   -2.7130    0.0000 C.3     1  LIG1        0.2528
     18 O          -1.3170   -3.5790    0.0000 O.3     1  LIG1       -0.4683
     19 C          -0.3580   -3.8670    0.0000 C.3     1  LIG1        0.2526
     20 O          -0.6130    0.7630    0.0000 O.2     1  LIG1       -0.2679
     21 C           2.3170    2.6130    0.0000 C.3     1  LIG1        0.0469
     22 C           3.2830    2.8790    0.0000 C.3     1  LIG1        0.0129
     23 C           4.0000    2.1750    0.0000 C.3     1  LIG1        0.0701
     24 C           3.7380    1.2000    0.0000 C.2     1  LIG1        0.1802
     25 O           4.4420    0.5000    0.0000 O.2     1  LIG1       -0.2908
     26 C           4.0000    3.5830    0.0000 C.3     1  LIG1        0.0008
     27 C           3.2000    3.8710    0.0000 C.3     1  LIG1        0.0008
@<TRIPOS>BOND
     1     1     2   ar
     2     1     5   ar
     3     1    24    1
     4     2     3   ar
     5     2    21    1
     6     3     4   ar
     7     4     5   ar
     8     4     6    1
     9     6     7   am
    10     7     8    1
    11     7    20    2
    12     8     9   ar
    13     8    13   ar
    14     9    10   ar
    15    10    11   ar
    16    10    18    1
    17    11    12   ar
    18    11    16    1
    19    12    13   ar
    20    12    14    1
    21    14    15    1
    22    16    17    1
    23    18    19    1
    24    21    22    1
    25    22    23    1
    26    22    26    1
    27    22    27    1
    28    23    24    1
    29    24    25    2
