@<TRIPOS>MOLECULE
27899_ChemDiv_2291-2284
 29 32 0 0 0
SMALL
GASTEIGER
Energy = 0

@<TRIPOS>ATOM
      1 N          -0.8460    0.7380    0.0000 N.ar    1  LIG1       -0.1451
      2 C          -1.6290    0.1880    0.0000 C.ar    1  LIG1        0.2730
      3 N          -1.3130   -0.7580    0.0000 N.ar    1  LIG1       -0.2735
      4 C          -0.3130   -0.7580    0.0000 C.ar    1  LIG1        0.1345
      5 C           0.0040    0.1750    0.0000 C.ar    1  LIG1        0.3086
      6 C           0.3080   -1.5580    0.0000 C.ar    1  LIG1        0.0220
      7 C          -0.0670   -2.4920    0.0000 C.ar    1  LIG1        0.0016
      8 C           0.5540   -3.2790    0.0000 C.ar    1  LIG1        0.0001
      9 C           1.5750   -3.1460    0.0000 C.ar    1  LIG1        0.0000
     10 C           1.9250   -2.2080    0.0000 C.ar    1  LIG1        0.0001
     11 C           1.3290   -1.4170    0.0000 C.ar    1  LIG1        0.0016
     12 C          -1.8790   -1.6040    0.0000 C.3     1  LIG1        0.1115
     13 C          -2.8710   -1.6750    0.0000 C.3     1  LIG1        0.0247
     14 C          -3.5380   -0.9420    0.0000 C.3     1  LIG1        0.0026
     15 C          -3.4380    0.0290    0.0000 C.3     1  LIG1        0.0130
     16 C          -2.5710    0.5330    0.0000 C.3     1  LIG1        0.1172
     17 C          -0.8630    1.7630    0.0000 C.3     1  LIG1        0.3931
     18 C           0.0130    2.2830    0.0000 C.2     1  LIG1        0.2512
     19 C           0.8630    1.7920    0.0000 C.ar    1  LIG1        0.0449
     20 C           0.8790    0.8040    0.0000 C.ar    1  LIG1        0.0431
     21 C           1.7460    0.3000    0.0000 C.ar    1  LIG1        0.1725
     22 C           2.5880    0.8330    0.0000 C.ar    1  LIG1        0.1724
     23 C           2.5880    1.7960    0.0000 C.ar    1  LIG1        0.0401
     24 C           1.7250    2.3000    0.0000 C.ar    1  LIG1        0.0064
     25 O           3.4790    0.3540    0.0000 O.3     1  LIG1       -0.4684
     26 C           3.5330   -0.6580    0.0000 C.3     1  LIG1        0.2526
     27 O           1.7460   -0.6830    0.0000 O.3     1  LIG1       -0.4684
     28 C           2.6130   -1.1920    0.0000 C.3     1  LIG1        0.2526
     29 O          -0.0130    3.2830    0.0000 O.2     1  LIG1       -0.2840
@<TRIPOS>BOND
     1     1     2   ar
     2     1     5   ar
     3     1    17    1
     4     2     3   ar
     5     2    16    1
     6     3     4   ar
     7     3    12    1
     8     4     5   ar
     9     4     6    1
    10     6     7   ar
    11     6    11   ar
    12     7     8   ar
    13     8     9   ar
    14     9    10   ar
    15    10    11   ar
    16    12    13    1
    17    13    14    1
    18    14    15    1
    19    15    16    1
    20    17    18    1
    21    18    19    1
    22    18    29    2
    23    19    20   ar
    24    19    24   ar
    25    20    21   ar
    26    21    22   ar
    27    21    27    1
    28    22    23   ar
    29    22    25    1
    30    23    24   ar
    31    25    26    1
    32    27    28    1
