@<TRIPOS>MOLECULE
27904_ChemDiv_8008-9753
 26 29 0 0 0
SMALL
GASTEIGER
Energy = 0

@<TRIPOS>ATOM
      1 N           0.2380    0.8460    0.0000 N.ar    1  LIG1       -0.2395
      2 C          -0.0580   -0.1130    0.0000 C.ar    1  LIG1        0.1891
      3 N          -1.0040   -0.4290    0.0000 N.ar    1  LIG1       -0.1903
      4 C          -0.9670   -1.4250    0.0000 C.ar    1  LIG1        0.2310
      5 O          -0.0330   -1.7000    0.0000 O.2     1  LIG1       -0.4330
      6 C           0.5080   -0.8830    0.0000 C.ar    1  LIG1        0.1815
      7 C           1.4790   -0.8830    0.0000 C.ar    1  LIG1        0.0377
      8 C           1.9710   -0.0210    0.0000 C.ar    1  LIG1        0.0031
      9 C           2.9830   -0.0210    0.0000 C.ar    1  LIG1        0.0001
     10 C           3.4960   -0.8830    0.0000 C.ar    1  LIG1        0.0000
     11 C           3.0170   -1.7420    0.0000 C.ar    1  LIG1        0.0001
     12 C           2.0000   -1.7580    0.0000 C.ar    1  LIG1        0.0031
     13 C          -1.7250   -2.0580    0.0000 C.ar    1  LIG1        0.0536
     14 C          -2.6960   -1.7130    0.0000 C.ar    1  LIG1        0.0047
     15 C          -3.5000   -2.3330    0.0000 C.ar    1  LIG1        0.0002
     16 C          -3.3170   -3.3330    0.0000 C.ar    1  LIG1        0.0000
     17 C          -2.3500   -3.7080    0.0000 C.ar    1  LIG1        0.0002
     18 C          -1.5750   -3.0580    0.0000 C.ar    1  LIG1        0.0047
     19 C          -0.4750    1.4790    0.0000 C.ar    1  LIG1        0.3579
     20 N          -0.2130    2.4920    0.0000 N.ar    1  LIG1       -0.1531
     21 C           0.7630    2.7540    0.0000 C.ar    1  LIG1        0.2804
     22 C           1.4540    2.0040    0.0000 C.ar    1  LIG1        0.0538
     23 C           1.1830    1.0380    0.0000 C.ar    1  LIG1        0.0864
     24 C           2.4540    2.2500    0.0000 C.3     1  LIG1        0.0377
     25 O           1.0330    3.7130    0.0000 O.2     1  LIG1       -0.2654
     26 O          -1.3920    1.1630    0.0000 O.2     1  LIG1       -0.2439
@<TRIPOS>BOND
     1     1     2    1
     2     1    19   ar
     3     1    23   ar
     4     2     3   ar
     5     2     6   ar
     6     3     4   ar
     7     4     5   ar
     8     4    13    1
     9     5     6   ar
    10     6     7    1
    11     7     8   ar
    12     7    12   ar
    13     8     9   ar
    14     9    10   ar
    15    10    11   ar
    16    11    12   ar
    17    13    14   ar
    18    13    18   ar
    19    14    15   ar
    20    15    16   ar
    21    16    17   ar
    22    17    18   ar
    23    19    20   ar
    24    19    26    2
    25    20    21   ar
    26    21    22   ar
    27    21    25    2
    28    22    23   ar
    29    22    24    1
