@<TRIPOS>MOLECULE
27902_ChemDiv_3338-1182
 29 32 0 0 0
SMALL
GASTEIGER
Energy = 0

@<TRIPOS>ATOM
      1 C          -0.7750   -0.4210    0.0000 C.ar    1  LIG1        0.1891
      2 N           0.2080   -0.4460    0.0000 N.ar    1  LIG1       -0.2393
      3 C           0.7250    0.4040    0.0000 C.ar    1  LIG1        0.3564
      4 N           1.7210    0.4040    0.0000 N.ar    1  LIG1       -0.1770
      5 C           2.2170   -0.4460    0.0000 C.ar    1  LIG1        0.1379
      6 C           1.7000   -1.3670    0.0000 C.ar    1  LIG1        0.0536
      7 C           0.6920   -1.3380    0.0000 C.ar    1  LIG1        0.0888
      8 N           3.2500   -0.4460    0.0000 N.pl3   1  LIG1       -0.2931
      9 C           3.7210    0.4330    0.0000 C.3     1  LIG1        0.0922
     10 C           4.7460    0.4330    0.0000 C.3     1  LIG1        0.0232
     11 C           3.7210   -1.3040    0.0000 C.3     1  LIG1        0.0922
     12 C           3.2210   -2.1580    0.0000 C.3     1  LIG1        0.0232
     13 O           0.2080    1.3040    0.0000 O.2     1  LIG1       -0.2440
     14 N          -1.3380   -1.2580    0.0000 N.ar    1  LIG1       -0.1903
     15 C          -2.2960   -0.9790    0.0000 C.ar    1  LIG1        0.2310
     16 O          -2.3210    0.0170    0.0000 O.2     1  LIG1       -0.4330
     17 C          -1.3920    0.3540    0.0000 C.ar    1  LIG1        0.1815
     18 C          -1.1380    1.3380    0.0000 C.ar    1  LIG1        0.0377
     19 C          -1.8540    2.0290    0.0000 C.ar    1  LIG1        0.0031
     20 C          -1.5960    2.9790    0.0000 C.ar    1  LIG1        0.0001
     21 C          -0.6670    3.2380    0.0000 C.ar    1  LIG1        0.0000
     22 C           0.0460    2.5460    0.0000 C.ar    1  LIG1        0.0001
     23 C          -0.2130    1.5960    0.0000 C.ar    1  LIG1        0.0031
     24 C          -3.0460   -1.5960    0.0000 C.ar    1  LIG1        0.0536
     25 C          -4.0000   -1.2380    0.0000 C.ar    1  LIG1        0.0047
     26 C          -4.7500   -1.8790    0.0000 C.ar    1  LIG1        0.0002
     27 C          -4.6000   -2.8830    0.0000 C.ar    1  LIG1        0.0000
     28 C          -3.6580   -3.2330    0.0000 C.ar    1  LIG1        0.0002
     29 C          -2.8880   -2.5920    0.0000 C.ar    1  LIG1        0.0047
@<TRIPOS>BOND
     1     1     2    1
     2     1    14   ar
     3     1    17   ar
     4     2     3   ar
     5     2     7   ar
     6     3     4   ar
     7     3    13    2
     8     4     5   ar
     9     5     6   ar
    10     5     8    1
    11     6     7   ar
    12     8     9    1
    13     8    11    1
    14     9    10    1
    15    11    12    1
    16    14    15   ar
    17    15    16   ar
    18    15    24    1
    19    16    17   ar
    20    17    18    1
    21    18    19   ar
    22    18    23   ar
    23    19    20   ar
    24    20    21   ar
    25    21    22   ar
    26    22    23   ar
    27    24    25   ar
    28    24    29   ar
    29    25    26   ar
    30    26    27   ar
    31    27    28   ar
    32    28    29   ar
