@<TRIPOS>MOLECULE
27909_ChemDiv_2225-0277
 23 26 0 0 0
SMALL
GASTEIGER
Energy = 0

@<TRIPOS>ATOM
      1 C          -0.5670   -0.2710    0.0000 C.ar    1  LIG1        0.1552
      2 N          -0.6790    0.7000    0.0000 N.ar    1  LIG1       -0.2280
      3 C          -1.6500    0.9170    0.0000 C.ar    1  LIG1        0.0984
      4 C          -2.1380    0.0500    0.0000 C.ar    1  LIG1        0.0786
      5 N          -1.4750   -0.6920    0.0000 N.ar    1  LIG1       -0.3145
      6 C          -1.6500   -1.6830    0.0000 C.3     1  LIG1        0.0868
      7 C          -0.8710   -2.3170    0.0000 C.3     1  LIG1        0.0245
      8 C          -2.5670   -2.0330    0.0000 C.3     1  LIG1        0.0245
      9 C          -3.1500    0.0500    0.0000 C.ar    1  LIG1        0.0188
     10 C          -3.6460    0.9170    0.0000 C.ar    1  LIG1        0.0016
     11 C          -3.1500    1.7790    0.0000 C.ar    1  LIG1        0.0016
     12 C          -2.1580    1.7790    0.0000 C.ar    1  LIG1        0.0206
     13 C           0.3130   -0.7830    0.0000 C.3     1  LIG1        0.2303
     14 C           1.1960   -0.2710    0.0000 C.ar    1  LIG1        0.0182
     15 C           1.1750    0.7540    0.0000 C.ar    1  LIG1        0.0388
     16 C           2.0420    1.2500    0.0000 C.ar    1  LIG1        0.1762
     17 C           2.9080    0.7420    0.0000 C.ar    1  LIG1        0.1764
     18 O           3.6420    1.4040    0.0000 O.3     1  LIG1       -0.4346
     19 C           3.2790    2.3210    0.0000 C.3     1  LIG1        0.4294
     20 O           2.2540    2.2290    0.0000 O.3     1  LIG1       -0.4346
     21 C           2.9080   -0.2500    0.0000 C.ar    1  LIG1        0.0400
     22 C           2.0420   -0.7580    0.0000 C.ar    1  LIG1        0.0019
     23 O           0.3130   -1.7830    0.0000 O.3     1  LIG1       -0.2101
@<TRIPOS>BOND
     1     1     2   ar
     2     1     5   ar
     3     1    13    1
     4     2     3   ar
     5     3     4   ar
     6     3    12   ar
     7     4     5   ar
     8     4     9   ar
     9     5     6    1
    10     6     7    1
    11     6     8    1
    12     9    10   ar
    13    10    11   ar
    14    11    12   ar
    15    13    14    1
    16    13    23    1
    17    14    15   ar
    18    14    22   ar
    19    15    16   ar
    20    16    17   ar
    21    16    20    1
    22    17    18    1
    23    17    21   ar
    24    18    19    1
    25    19    20    1
    26    21    22   ar
