@<TRIPOS>MOLECULE
27908_ChemDiv_C185-0054
 23 24 0 0 0
SMALL
GASTEIGER
Energy = 0

@<TRIPOS>ATOM
      1 N          -1.1540    2.4670    0.0000 N.am    1  LIG1        0.0126
      2 C          -1.1630    1.4630    0.0000 C.3     1  LIG1        0.1938
      3 S          -0.2130    1.1580    0.0000 S.3     1  LIG1        0.0093
      4 C           0.3790    1.9710    0.0000 C.2     1  LIG1        0.4357
      5 N          -0.2040    2.7750    0.0000 N.2     1  LIG1        0.2097
      6 N           1.3830    1.9790    0.0000 N.am    1  LIG1       -0.1042
      7 C           1.8830    1.1130    0.0000 C.2     1  LIG1        0.2513
      8 O           2.8880    1.1130    0.0000 O.2     1  LIG1       -0.2728
      9 C           1.3830    0.2330    0.0000 C.3     1  LIG1        0.0970
     10 C          -1.4170    0.5040    0.0000 C.ar    1  LIG1        0.0098
     11 C          -0.7170   -0.1960    0.0000 C.ar    1  LIG1       -0.0004
     12 C          -0.9750   -1.1540    0.0000 C.ar    1  LIG1        0.0164
     13 C          -1.9460   -1.4130    0.0000 C.ar    1  LIG1        0.0733
     14 N          -2.2040   -2.3830    0.0000 N.am    1  LIG1       -0.1792
     15 C          -1.4960   -3.0920    0.0000 C.2     1  LIG1        0.2461
     16 O          -0.5330   -2.8330    0.0000 O.2     1  LIG1       -0.2730
     17 C          -1.7540   -4.0580    0.0000 C.3     1  LIG1        0.0968
     18 C          -2.6380   -0.7290    0.0000 C.ar    1  LIG1        0.0164
     19 C          -2.3790    0.2460    0.0000 C.ar    1  LIG1       -0.0004
     20 C          -2.0710    1.8880    0.0000 C.3     1  LIG1        0.0428
     21 C          -1.9670    3.0630    0.0000 C.2     1  LIG1        0.2875
     22 O          -1.8580    4.0580    0.0000 O.2     1  LIG1       -0.2691
     23 C          -2.8920    2.6630    0.0000 C.3     1  LIG1        0.1008
@<TRIPOS>BOND
     1     1     2    1
     2     1     5    1
     3     1    21   am
     4     2     3    1
     5     2    10    1
     6     2    20    1
     7     3     4    1
     8     4     5    2
     9     4     6    1
    10     6     7   am
    11     7     8    2
    12     7     9    1
    13    10    11   ar
    14    10    19   ar
    15    11    12   ar
    16    12    13   ar
    17    13    14    1
    18    13    18   ar
    19    14    15   am
    20    15    16    2
    21    15    17    1
    22    18    19   ar
    23    21    22    2
    24    21    23    1
