@<TRIPOS>MOLECULE
27901_ChemDiv_2291-2316
 16 17 0 0 0
SMALL
GASTEIGER
Energy = 0

@<TRIPOS>ATOM
      1 N          -1.3210    0.5540    0.0000 N.2     1  LIG1       -0.2216
      2 C          -2.0630    1.2380    0.0000 C.2     1  LIG1        0.3488
      3 N          -3.0670    1.0420    0.0000 N.pl3   1  LIG1        0.2065
      4 C          -1.6290    2.1130    0.0000 C.3     1  LIG1        0.1261
      5 C          -0.6880    2.0080    0.0000 C.3     1  LIG1        0.0659
      6 C          -0.4790    1.0170    0.0000 C.3     1  LIG1        0.2127
      7 C          -1.5630   -0.4210    0.0000 C.3     1  LIG1        0.2812
      8 C          -0.8460   -1.1420    0.0000 C.2     1  LIG1        0.2221
      9 C           0.1380   -0.8710    0.0000 C.ar    1  LIG1        0.0390
     10 C           0.4080    0.1170    0.0000 C.ar    1  LIG1        0.0027
     11 C           1.3710    0.3630    0.0000 C.ar    1  LIG1       -0.0042
     12 C           2.0750   -0.3580    0.0000 C.ar    1  LIG1       -0.0218
     13 C           1.8080   -1.3210    0.0000 C.ar    1  LIG1       -0.0042
     14 C           0.8380   -1.5670    0.0000 C.ar    1  LIG1        0.0027
     15 C           3.0630   -0.1250    0.0000 C.3     1  LIG1        0.0310
     16 O          -1.0960   -2.1080    0.0000 O.2     1  LIG1       -0.2868
@<TRIPOS>BOND
     1     1     2    2
     2     1     6    1
     3     1     7    1
     4     2     3    1
     5     2     4    1
     6     4     5    1
     7     5     6    1
     8     7     8    1
     9     8     9    1
    10     8    16    2
    11     9    10   ar
    12     9    14   ar
    13    10    11   ar
    14    11    12   ar
    15    12    13   ar
    16    12    15    1
    17    13    14   ar
