@<TRIPOS>MOLECULE
27900_ChemDiv_2332-2119
 33 37 0 0 0
SMALL
GASTEIGER
Energy = 0

@<TRIPOS>ATOM
      1 C           0.2580   -1.6290    0.0000 C.ar    1  LIG1        0.1891
      2 N           0.2830   -0.6250    0.0000 N.ar    1  LIG1       -0.2393
      3 C          -0.5880   -0.1210    0.0000 C.ar    1  LIG1        0.3564
      4 N          -0.5880    0.8750    0.0000 N.ar    1  LIG1       -0.1752
      5 C           0.2830    1.3750    0.0000 C.ar    1  LIG1        0.1580
      6 C           1.1540    0.8750    0.0000 C.ar    1  LIG1        0.0554
      7 C           1.1540   -0.1210    0.0000 C.ar    1  LIG1        0.0889
      8 N           0.2580    2.3830    0.0000 N.pl3   1  LIG1       -0.1940
      9 C          -0.6130    2.8750    0.0000 C.ar    1  LIG1        0.0723
     10 C          -0.6330    3.8540    0.0000 C.ar    1  LIG1        0.0197
     11 C          -1.4880    4.3540    0.0000 C.ar    1  LIG1        0.0382
     12 C          -2.3580    3.8540    0.0000 C.ar    1  LIG1        0.1388
     13 C          -2.3290    2.8580    0.0000 C.ar    1  LIG1        0.0382
     14 C          -1.4880    2.3540    0.0000 C.ar    1  LIG1        0.0197
     15 O          -3.2290    4.3540    0.0000 O.3     1  LIG1       -0.4714
     16 C          -3.2290    5.3750    0.0000 C.3     1  LIG1        0.2525
     17 O          -1.4580   -0.6500    0.0000 O.2     1  LIG1       -0.2440
     18 N           1.1540   -2.0830    0.0000 N.ar    1  LIG1       -0.1903
     19 C           1.0000   -3.0630    0.0000 C.ar    1  LIG1        0.2310
     20 O          -0.0040   -3.2210    0.0000 O.2     1  LIG1       -0.4330
     21 C          -0.4380   -2.3500    0.0000 C.ar    1  LIG1        0.1815
     22 C          -1.4170   -2.2420    0.0000 C.ar    1  LIG1        0.0377
     23 C          -2.0040   -3.0460    0.0000 C.ar    1  LIG1        0.0031
     24 C          -3.0080   -2.9380    0.0000 C.ar    1  LIG1        0.0001
     25 C          -3.4170   -2.0250    0.0000 C.ar    1  LIG1        0.0000
     26 C          -2.8210   -1.2130    0.0000 C.ar    1  LIG1        0.0001
     27 C          -1.8290   -1.3210    0.0000 C.ar    1  LIG1        0.0031
     28 C           1.7210   -3.7420    0.0000 C.ar    1  LIG1        0.0536
     29 C           1.5040   -4.6960    0.0000 C.ar    1  LIG1        0.0047
     30 C           2.2420   -5.3750    0.0000 C.ar    1  LIG1        0.0002
     31 C           3.1790   -5.0920    0.0000 C.ar    1  LIG1        0.0000
     32 C           3.4130   -4.1130    0.0000 C.ar    1  LIG1        0.0002
     33 C           2.6790   -3.4380    0.0000 C.ar    1  LIG1        0.0047
@<TRIPOS>BOND
     1     1     2    1
     2     1    18   ar
     3     1    21   ar
     4     2     3   ar
     5     2     7   ar
     6     3     4   ar
     7     3    17    2
     8     4     5   ar
     9     5     6   ar
    10     5     8    1
    11     6     7   ar
    12     8     9    1
    13     9    10   ar
    14     9    14   ar
    15    10    11   ar
    16    11    12   ar
    17    12    13   ar
    18    12    15    1
    19    13    14   ar
    20    15    16    1
    21    18    19   ar
    22    19    20   ar
    23    19    28    1
    24    20    21   ar
    25    21    22    1
    26    22    23   ar
    27    22    27   ar
    28    23    24   ar
    29    24    25   ar
    30    25    26   ar
    31    26    27   ar
    32    28    29   ar
    33    28    33   ar
    34    29    30   ar
    35    30    31   ar
    36    31    32   ar
    37    32    33   ar
