@<TRIPOS>MOLECULE
27910_ChemDiv_C185-0065
 23 25 0 0 0
SMALL
GASTEIGER
Energy = 0

@<TRIPOS>ATOM
      1 N          -0.6960    1.7500    0.0000 N.am    1  LIG1        0.0126
      2 C          -0.7080    0.7460    0.0000 C.3     1  LIG1        0.1938
      3 S           0.2580    0.4290    0.0000 S.3     1  LIG1        0.0093
      4 C           0.8460    1.2540    0.0000 C.2     1  LIG1        0.4357
      5 N           0.2580    2.0630    0.0000 N.2     1  LIG1        0.2097
      6 N           1.8540    1.2540    0.0000 N.am    1  LIG1       -0.1042
      7 C           2.3580    0.3830    0.0000 C.2     1  LIG1        0.2513
      8 O           3.3750    0.3830    0.0000 O.2     1  LIG1       -0.2728
      9 C           1.8540   -0.4880    0.0000 C.3     1  LIG1        0.0970
     10 C          -0.9670   -0.2250    0.0000 C.ar    1  LIG1        0.0097
     11 C          -1.9290   -0.4830    0.0000 C.ar    1  LIG1       -0.0017
     12 C          -2.1880   -1.4630    0.0000 C.ar    1  LIG1       -0.0002
     13 C          -1.4920   -2.1540    0.0000 C.ar    1  LIG1       -0.0000
     14 C          -0.5130   -1.8960    0.0000 C.ar    1  LIG1       -0.0002
     15 C          -0.2500   -0.9330    0.0000 C.ar    1  LIG1       -0.0017
     16 C          -1.7380   -3.0960    0.0000 C.ar    1  LIG1       -0.0000
     17 C          -2.6790   -3.3460    0.0000 C.ar    1  LIG1       -0.0000
     18 C          -3.3790   -2.6580    0.0000 C.ar    1  LIG1       -0.0000
     19 C          -3.1250   -1.7130    0.0000 C.ar    1  LIG1       -0.0000
     20 C          -1.6210    1.1670    0.0000 C.3     1  LIG1        0.0428
     21 C          -1.5170    2.3540    0.0000 C.2     1  LIG1        0.2875
     22 O          -1.4000    3.3500    0.0000 O.2     1  LIG1       -0.2691
     23 C          -2.4330    1.9460    0.0000 C.3     1  LIG1        0.1008
@<TRIPOS>BOND
     1     1     2    1
     2     1     5    1
     3     1    21   am
     4     2     3    1
     5     2    10    1
     6     2    20    1
     7     3     4    1
     8     4     5    2
     9     4     6    1
    10     6     7   am
    11     7     8    2
    12     7     9    1
    13    10    11   ar
    14    10    15   ar
    15    11    12   ar
    16    12    13   ar
    17    12    19   ar
    18    13    14   ar
    19    13    16   ar
    20    14    15   ar
    21    16    17   ar
    22    17    18   ar
    23    18    19   ar
    24    21    22    2
    25    21    23    1
