@<TRIPOS>MOLECULE
27917_ChemDiv_2712-0892
 28 31 0 0 0
SMALL
GASTEIGER
Energy = 0

@<TRIPOS>ATOM
      1 S          -1.2920    0.2080    0.0000 S.O2    1  LIG1       -0.0578
      2 N          -0.6500    0.9750    0.0000 N.pl3   1  LIG1       -0.5358
      3 C           0.3790    0.7960    0.0000 C.ar    1  LIG1       -0.1121
      4 C           1.0130    1.5630    0.0000 C.ar    1  LIG1       -0.0206
      5 C           1.9750    1.3630    0.0000 C.ar    1  LIG1        0.0381
      6 C           2.7750    1.9710    0.0000 C.ar    1  LIG1        0.0678
      7 C           3.5920    1.3880    0.0000 C.ar    1  LIG1        0.1255
      8 O           3.2920    0.4250    0.0000 O.2     1  LIG1       -0.4577
      9 C           2.3040    0.4250    0.0000 C.ar    1  LIG1        0.1448
     10 C           1.6750   -0.3460    0.0000 C.ar    1  LIG1        0.0356
     11 C           0.6880   -0.1380    0.0000 C.ar    1  LIG1       -0.0207
     12 C           4.5080    1.8000    0.0000 C.3     1  LIG1        0.0651
     13 C           4.6130    2.8000    0.0000 C.3     1  LIG1        0.0161
     14 C           3.7750    3.3920    0.0000 C.3     1  LIG1        0.0697
     15 C           2.8540    2.9750    0.0000 C.2     1  LIG1        0.1758
     16 O           2.0670    3.5630    0.0000 O.2     1  LIG1       -0.2912
     17 C          -1.9420   -0.5500    0.0000 C.ar    1  LIG1        0.0893
     18 C          -1.5880   -1.4790    0.0000 C.ar    1  LIG1        0.0166
     19 C          -2.2380   -2.2380    0.0000 C.ar    1  LIG1       -0.0030
     20 C          -3.2040   -2.0380    0.0000 C.ar    1  LIG1       -0.0227
     21 C          -3.8500   -2.8000    0.0000 C.3     1  LIG1        0.0189
     22 C          -3.0920   -3.4630    0.0000 C.3     1  LIG1        0.0044
     23 C          -4.6170   -2.1460    0.0000 C.3     1  LIG1        0.0044
     24 C          -4.4960   -3.5580    0.0000 C.3     1  LIG1        0.0044
     25 C          -3.5580   -1.1130    0.0000 C.ar    1  LIG1       -0.0030
     26 C          -2.9080   -0.3790    0.0000 C.ar    1  LIG1        0.0166
     27 O          -2.0670    0.8670    0.0000 O.2     1  LIG1       -0.1842
     28 O          -0.5290   -0.4330    0.0000 O.2     1  LIG1       -0.1842
@<TRIPOS>BOND
     1     1     2    1
     2     1    17    1
     3     1    27    2
     4     1    28    2
     5     2     3    1
     6     3     4   ar
     7     3    11   ar
     8     4     5   ar
     9     5     6   ar
    10     5     9   ar
    11     6     7   ar
    12     6    15    1
    13     7     8   ar
    14     7    12    1
    15     8     9   ar
    16     9    10   ar
    17    10    11   ar
    18    12    13    1
    19    13    14    1
    20    14    15    1
    21    15    16    2
    22    17    18   ar
    23    17    26   ar
    24    18    19   ar
    25    19    20   ar
    26    20    21    1
    27    20    25   ar
    28    21    22    1
    29    21    23    1
    30    21    24    1
    31    25    26   ar
