@<TRIPOS>MOLECULE
27913_ChemDiv_2248-0999
 28 32 0 0 0
SMALL
GASTEIGER
Energy = 0

@<TRIPOS>ATOM
      1 S          -1.1630    0.9080    0.0000 S.O2    1  LIG1       -0.0578
      2 N          -1.6830    0.0290    0.0000 N.pl3   1  LIG1       -0.5358
      3 C          -1.1630   -0.8330    0.0000 C.ar    1  LIG1       -0.1121
      4 C          -0.1880   -0.8330    0.0000 C.ar    1  LIG1       -0.0206
      5 C           0.3710   -1.6830    0.0000 C.ar    1  LIG1        0.0381
      6 C           1.3130   -1.9170    0.0000 C.ar    1  LIG1        0.0678
      7 C           1.4290   -2.8880    0.0000 C.ar    1  LIG1        0.1255
      8 O           0.5210   -3.2920    0.0000 O.2     1  LIG1       -0.4577
      9 C          -0.1580   -2.5460    0.0000 C.ar    1  LIG1        0.1447
     10 C          -1.1630   -2.6080    0.0000 C.ar    1  LIG1        0.0328
     11 C          -1.6500   -1.7290    0.0000 C.ar    1  LIG1       -0.0192
     12 C          -2.6540   -1.7290    0.0000 C.ar    1  LIG1       -0.0017
     13 C          -3.1750   -2.6080    0.0000 C.ar    1  LIG1       -0.0001
     14 C          -2.6170   -3.4790    0.0000 C.ar    1  LIG1        0.0001
     15 C          -1.6500   -3.4500    0.0000 C.ar    1  LIG1        0.0030
     16 C           2.3420   -3.2710    0.0000 C.3     1  LIG1        0.0651
     17 C           3.1710   -2.7000    0.0000 C.3     1  LIG1        0.0161
     18 C           3.0790   -1.7040    0.0000 C.3     1  LIG1        0.0697
     19 C           2.1080   -1.3000    0.0000 C.2     1  LIG1        0.1758
     20 O           2.0130   -0.3670    0.0000 O.2     1  LIG1       -0.2912
     21 O          -2.0580    1.4290    0.0000 O.2     1  LIG1       -0.1842
     22 O          -0.3040    0.3500    0.0000 O.2     1  LIG1       -0.1842
     23 C          -0.6460    1.7710    0.0000 C.ar    1  LIG1        0.0893
     24 C           0.3330    1.7710    0.0000 C.ar    1  LIG1        0.0169
     25 C           0.8380    2.6210    0.0000 C.ar    1  LIG1        0.0013
     26 C           0.3710    3.4830    0.0000 C.ar    1  LIG1        0.0001
     27 C          -0.6460    3.4830    0.0000 C.ar    1  LIG1        0.0013
     28 C          -1.1210    2.6580    0.0000 C.ar    1  LIG1        0.0169
@<TRIPOS>BOND
     1     1     2    1
     2     1    21    2
     3     1    22    2
     4     1    23    1
     5     2     3    1
     6     3     4   ar
     7     3    11   ar
     8     4     5   ar
     9     5     6   ar
    10     5     9   ar
    11     6     7   ar
    12     6    19    1
    13     7     8   ar
    14     7    16    1
    15     8     9   ar
    16     9    10   ar
    17    10    11   ar
    18    10    15   ar
    19    11    12   ar
    20    12    13   ar
    21    13    14   ar
    22    14    15   ar
    23    16    17    1
    24    17    18    1
    25    18    19    1
    26    19    20    2
    27    23    24   ar
    28    23    28   ar
    29    24    25   ar
    30    25    26   ar
    31    26    27   ar
    32    27    28   ar
