@<TRIPOS>MOLECULE
27919_ChemDiv_2712-0916
 28 31 0 0 0
SMALL
GASTEIGER
Energy = 0

@<TRIPOS>ATOM
      1 S          -1.4750    0.6830    0.0000 S.O2    1  LIG1       -0.0578
      2 N          -0.8330    1.4500    0.0000 N.pl3   1  LIG1       -0.5358
      3 C           0.1830    1.2750    0.0000 C.ar    1  LIG1       -0.1113
      4 C           0.5080    0.3290    0.0000 C.ar    1  LIG1       -0.0094
      5 C           1.4710    0.1290    0.0000 C.ar    1  LIG1        0.0903
      6 C           2.1250    0.8880    0.0000 C.ar    1  LIG1        0.1552
      7 C           1.8040    1.8380    0.0000 C.ar    1  LIG1        0.0390
      8 C           2.5920    2.4500    0.0000 C.ar    1  LIG1        0.0679
      9 C           3.4210    1.8630    0.0000 C.ar    1  LIG1        0.1256
     10 O           3.0880    0.8880    0.0000 O.2     1  LIG1       -0.4568
     11 C           4.3330    2.2790    0.0000 C.3     1  LIG1        0.0651
     12 C           4.4130    3.2710    0.0000 C.3     1  LIG1        0.0161
     13 C           3.5960    3.8580    0.0000 C.3     1  LIG1        0.0697
     14 C           2.6830    3.4540    0.0000 C.2     1  LIG1        0.1758
     15 O           1.9080    4.0370    0.0000 O.2     1  LIG1       -0.2912
     16 C           0.8290    2.0380    0.0000 C.ar    1  LIG1       -0.0206
     17 CL          1.8040   -0.8080    0.0000 Cl      1  LIG1       -0.0791
     18 C          -2.1290   -0.0750    0.0000 C.ar    1  LIG1        0.0895
     19 C          -3.0920    0.0960    0.0000 C.ar    1  LIG1        0.0200
     20 C          -3.7500   -0.6630    0.0000 C.ar    1  LIG1        0.0382
     21 C          -3.4170   -1.6130    0.0000 C.ar    1  LIG1        0.1386
     22 C          -2.3880   -1.7670    0.0000 C.ar    1  LIG1        0.0382
     23 C          -1.7710   -1.0250    0.0000 C.ar    1  LIG1        0.0200
     24 O          -4.0960   -2.3540    0.0000 O.3     1  LIG1       -0.4755
     25 C          -3.7750   -3.3040    0.0000 C.3     1  LIG1        0.2055
     26 C          -4.4170   -4.0370    0.0000 C.3     1  LIG1        0.0512
     27 O          -2.2420    1.3290    0.0000 O.2     1  LIG1       -0.1842
     28 O          -0.7170    0.0380    0.0000 O.2     1  LIG1       -0.1842
@<TRIPOS>BOND
     1     1     2    1
     2     1    18    1
     3     1    27    2
     4     1    28    2
     5     2     3    1
     6     3     4   ar
     7     3    16   ar
     8     4     5   ar
     9     5     6   ar
    10     5    17    1
    11     6     7   ar
    12     6    10   ar
    13     7     8   ar
    14     7    16   ar
    15     8     9   ar
    16     8    14    1
    17     9    10   ar
    18     9    11    1
    19    11    12    1
    20    12    13    1
    21    13    14    1
    22    14    15    2
    23    18    19   ar
    24    18    23   ar
    25    19    20   ar
    26    20    21   ar
    27    21    22   ar
    28    21    24    1
    29    22    23   ar
    30    24    25    1
    31    25    26    1
