@<TRIPOS>MOLECULE
27918_ChemDiv_E230-1356
 24 26 0 0 0
SMALL
GASTEIGER
Energy = 0

@<TRIPOS>ATOM
      1 N          -0.2790   -1.1500    0.0000 N.ar    1  LIG1       -0.3221
      2 C           0.3040   -0.3460    0.0000 C.ar    1  LIG1        0.0718
      3 C          -0.2790    0.4710    0.0000 C.ar    1  LIG1       -0.0036
      4 C          -1.2330    0.1580    0.0000 C.ar    1  LIG1        0.0133
      5 C          -1.2330   -0.8420    0.0000 C.ar    1  LIG1        0.0599
      6 C          -2.0960   -1.3420    0.0000 C.ar    1  LIG1        0.0172
      7 C          -2.9580   -0.8420    0.0000 C.ar    1  LIG1        0.0015
      8 C          -2.9580    0.1580    0.0000 C.ar    1  LIG1        0.0001
      9 C          -2.0960    0.6580    0.0000 C.ar    1  LIG1        0.0012
     10 C           0.0250    1.4250    0.0000 C.3     1  LIG1        0.0284
     11 C           1.0040    1.6380    0.0000 C.3     1  LIG1        0.0143
     12 C           1.3080    2.5920    0.0000 C.3     1  LIG1        0.0872
     13 C           2.2790    2.8040    0.0000 C.2     1  LIG1        0.2414
     14 O           2.9540    2.0630    0.0000 O.2     1  LIG1       -0.2733
     15 N           2.5830    3.7580    0.0000 N.am    1  LIG1       -0.2035
     16 C           1.9170    4.4750    0.0000 C.3     1  LIG1        0.1385
     17 C           0.0250   -2.1040    0.0000 C.3     1  LIG1        0.1324
     18 C          -0.6880   -2.8080    0.0000 C.ar    1  LIG1       -0.0036
     19 C          -0.4290   -3.7670    0.0000 C.ar    1  LIG1       -0.0240
     20 C           0.5330   -4.0370    0.0000 C.3     1  LIG1        0.0308
     21 C          -1.1420   -4.4750    0.0000 C.ar    1  LIG1       -0.0045
     22 C          -2.1250   -4.2080    0.0000 C.ar    1  LIG1       -0.0003
     23 C          -2.3710   -3.2380    0.0000 C.ar    1  LIG1       -0.0003
     24 C          -1.6580   -2.5380    0.0000 C.ar    1  LIG1       -0.0027
@<TRIPOS>BOND
     1     1     2   ar
     2     1     5   ar
     3     1    17    1
     4     2     3   ar
     5     3     4   ar
     6     3    10    1
     7     4     5   ar
     8     4     9   ar
     9     5     6   ar
    10     6     7   ar
    11     7     8   ar
    12     8     9   ar
    13    10    11    1
    14    11    12    1
    15    12    13    1
    16    13    14    2
    17    13    15   am
    18    15    16    1
    19    17    18    1
    20    18    19   ar
    21    18    24   ar
    22    19    20    1
    23    19    21   ar
    24    21    22   ar
    25    22    23   ar
    26    23    24   ar
