@<TRIPOS>MOLECULE
27914_ChemDiv_2421-0222
 23 26 0 0 0
SMALL
GASTEIGER
Energy = 0

@<TRIPOS>ATOM
      1 C           0.2630    0.8750    0.0000 C.ar    1  LIG1        0.1104
      2 N          -0.5290    0.2920    0.0000 N.ar    1  LIG1       -0.3197
      3 C          -1.3290    0.8580    0.0000 C.ar    1  LIG1        0.0599
      4 C          -1.0210    1.8210    0.0000 C.ar    1  LIG1        0.0134
      5 C          -0.0290    1.8210    0.0000 C.ar    1  LIG1       -0.0005
      6 C           0.5130    2.6540    0.0000 C.3     1  LIG1        0.0298
      7 C           1.5040    2.7380    0.0000 C.3     1  LIG1        0.0262
      8 C           2.1790    2.0080    0.0000 C.3     1  LIG1        0.0942
      9 N           2.0580    1.0540    0.0000 N.am    1  LIG1       -0.2731
     10 C           1.2040    0.5290    0.0000 C.2     1  LIG1        0.2647
     11 O           1.3330   -0.4880    0.0000 O.2     1  LIG1       -0.2683
     12 C           2.9670    0.5420    0.0000 C.3     1  LIG1        0.1152
     13 C          -1.6960    2.5580    0.0000 C.ar    1  LIG1        0.0012
     14 C          -2.6630    2.3460    0.0000 C.ar    1  LIG1        0.0001
     15 C          -2.9710    1.3830    0.0000 C.ar    1  LIG1        0.0015
     16 C          -2.3130    0.6500    0.0000 C.ar    1  LIG1        0.0172
     17 C          -0.5170   -0.7380    0.0000 C.3     1  LIG1        0.1328
     18 C           0.3580   -1.2380    0.0000 C.ar    1  LIG1        0.0004
     19 C           0.3580   -2.2330    0.0000 C.ar    1  LIG1       -0.0024
     20 C           1.2210   -2.7330    0.0000 C.ar    1  LIG1       -0.0003
     21 C           2.0880   -2.2330    0.0000 C.ar    1  LIG1       -0.0000
     22 C           2.0880   -1.2290    0.0000 C.ar    1  LIG1       -0.0003
     23 C           1.2210   -0.7380    0.0000 C.ar    1  LIG1       -0.0024
@<TRIPOS>BOND
     1     1     2   ar
     2     1     5   ar
     3     1    10    1
     4     2     3   ar
     5     2    17    1
     6     3     4   ar
     7     3    16   ar
     8     4     5   ar
     9     4    13   ar
    10     5     6    1
    11     6     7    1
    12     7     8    1
    13     8     9    1
    14     9    10   am
    15     9    12    1
    16    10    11    2
    17    13    14   ar
    18    14    15   ar
    19    15    16   ar
    20    17    18    1
    21    18    19   ar
    22    18    23   ar
    23    19    20   ar
    24    20    21   ar
    25    21    22   ar
    26    22    23   ar
