@<TRIPOS>MOLECULE
27916_ChemDiv_E230-0172
 22 23 0 0 0
SMALL
GASTEIGER
Energy = 0

@<TRIPOS>ATOM
      1 N          -0.2790   -4.5250    0.0000 N.ar    1  LIG1       -0.3243
      2 C           0.3080   -3.7210    0.0000 C.ar    1  LIG1        0.0716
      3 C          -0.2790   -2.9040    0.0000 C.ar    1  LIG1       -0.0036
      4 C          -1.2380   -3.2170    0.0000 C.ar    1  LIG1        0.0133
      5 C          -1.2380   -4.2170    0.0000 C.ar    1  LIG1        0.0597
      6 C          -2.1000   -4.7210    0.0000 C.ar    1  LIG1        0.0172
      7 C          -2.9670   -4.2170    0.0000 C.ar    1  LIG1        0.0015
      8 C          -2.9670   -3.2170    0.0000 C.ar    1  LIG1        0.0001
      9 C          -2.1000   -2.7170    0.0000 C.ar    1  LIG1        0.0012
     10 C           0.0250   -1.9460    0.0000 C.3     1  LIG1        0.0284
     11 C           1.0040   -1.7330    0.0000 C.3     1  LIG1        0.0143
     12 C           1.3130   -0.7790    0.0000 C.3     1  LIG1        0.0872
     13 C           2.2830   -0.5670    0.0000 C.2     1  LIG1        0.2414
     14 O           2.9630   -1.3080    0.0000 O.2     1  LIG1       -0.2733
     15 N           2.5880    0.3830    0.0000 N.am    1  LIG1       -0.2053
     16 C           1.8540    1.1920    0.0000 C.3     1  LIG1        0.1177
     17 C           2.0580    1.9170    0.0000 C.3     1  LIG1        0.0555
     18 C           1.5500    2.5380    0.0000 C.3     1  LIG1        0.1440
     19 O           1.8710    3.5750    0.0000 O.3     1  LIG1       -0.3537
     20 C           1.1330    4.3920    0.0000 C.3     1  LIG1        0.1422
     21 C           1.4330    5.4830    0.0000 C.3     1  LIG1        0.0346
     22 C           0.0250   -5.4830    0.0000 C.3     1  LIG1        0.1305
@<TRIPOS>BOND
     1     1     2   ar
     2     1     5   ar
     3     1    22    1
     4     2     3   ar
     5     3     4   ar
     6     3    10    1
     7     4     5   ar
     8     4     9   ar
     9     5     6   ar
    10     6     7   ar
    11     7     8   ar
    12     8     9   ar
    13    10    11    1
    14    11    12    1
    15    12    13    1
    16    13    14    2
    17    13    15   am
    18    15    16    1
    19    16    17    1
    20    17    18    1
    21    18    19    1
    22    19    20    1
    23    20    21    1
