@<TRIPOS>MOLECULE
27915_ChemDiv_2551-0111
 24 27 0 0 0
SMALL
GASTEIGER
Energy = 0

@<TRIPOS>ATOM
      1 S          -1.1130    1.5290    0.0000 S.O2    1  LIG1       -0.0578
      2 N          -0.1420    1.2170    0.0000 N.pl3   1  LIG1       -0.5358
      3 C           0.1500    0.3040    0.0000 C.ar    1  LIG1       -0.1116
      4 C          -0.4880   -0.4080    0.0000 C.ar    1  LIG1       -0.0141
      5 C          -0.2500   -1.3210    0.0000 C.ar    1  LIG1        0.0672
      6 C           0.6670   -1.6080    0.0000 C.ar    1  LIG1        0.1505
      7 C           1.4210   -0.9250    0.0000 C.ar    1  LIG1        0.0319
      8 C           2.2880   -1.4290    0.0000 C.ar    1  LIG1        0.0110
      9 C           2.0580   -2.4250    0.0000 C.ar    1  LIG1        0.1188
     10 O           1.0630   -2.5330    0.0000 O.2     1  LIG1       -0.4576
     11 C           2.7920   -3.0500    0.0000 C.3     1  LIG1        0.0642
     12 C           3.7290   -2.7630    0.0000 C.3     1  LIG1        0.0083
     13 C           4.0170   -1.7880    0.0000 C.3     1  LIG1        0.0052
     14 C           3.2580   -1.0920    0.0000 C.3     1  LIG1        0.0292
     15 C           1.1330    0.0880    0.0000 C.ar    1  LIG1       -0.0210
     16 BR         -0.9710   -1.9920    0.0000 Br      1  LIG1       -0.0459
     17 O          -0.8250    2.4750    0.0000 O.2     1  LIG1       -0.1842
     18 O          -1.3540    0.5170    0.0000 O.2     1  LIG1       -0.1842
     19 C          -2.1130    1.7920    0.0000 C.ar    1  LIG1        0.0893
     20 C          -2.3250    2.7170    0.0000 C.ar    1  LIG1        0.0169
     21 C          -3.2630    3.0540    0.0000 C.ar    1  LIG1        0.0013
     22 C          -4.0210    2.4290    0.0000 C.ar    1  LIG1        0.0001
     23 C          -3.8420    1.4540    0.0000 C.ar    1  LIG1        0.0013
     24 C          -2.8420    1.0960    0.0000 C.ar    1  LIG1        0.0169
@<TRIPOS>BOND
     1     1     2    1
     2     1    17    2
     3     1    18    2
     4     1    19    1
     5     2     3    1
     6     3     4   ar
     7     3    15   ar
     8     4     5   ar
     9     5     6   ar
    10     5    16    1
    11     6     7   ar
    12     6    10   ar
    13     7     8   ar
    14     7    15   ar
    15     8     9   ar
    16     8    14    1
    17     9    10   ar
    18     9    11    1
    19    11    12    1
    20    12    13    1
    21    13    14    1
    22    19    20   ar
    23    19    24   ar
    24    20    21   ar
    25    21    22   ar
    26    22    23   ar
    27    23    24   ar
