@<TRIPOS>MOLECULE
27922_ChemDiv_2332-2254
 17 18 0 0 0
SMALL
GASTEIGER
Energy = 0

@<TRIPOS>ATOM
      1 N          -1.4580   -0.4250    0.0000 N.2     1  LIG1       -0.2216
      2 C          -2.4580   -0.4250    0.0000 C.2     1  LIG1        0.3488
      3 N          -3.0670   -1.2420    0.0000 N.pl3   1  LIG1        0.2065
      4 C          -2.7630    0.5210    0.0000 C.3     1  LIG1        0.1261
      5 C          -1.9710    1.1040    0.0000 C.3     1  LIG1        0.0659
      6 C          -1.1540    0.5210    0.0000 C.3     1  LIG1        0.2127
      7 C          -0.9580   -1.2960    0.0000 C.3     1  LIG1        0.2812
      8 C           0.0460   -1.2960    0.0000 C.2     1  LIG1        0.2221
      9 C           0.5580   -0.4130    0.0000 C.ar    1  LIG1        0.0392
     10 C           1.5580   -0.4000    0.0000 C.ar    1  LIG1        0.0061
     11 C           2.0330    0.4420    0.0000 C.ar    1  LIG1        0.0370
     12 C           1.5460    1.3000    0.0000 C.ar    1  LIG1        0.1387
     13 C           0.5580    1.3130    0.0000 C.ar    1  LIG1        0.0370
     14 C           0.0710    0.4420    0.0000 C.ar    1  LIG1        0.0061
     15 O           2.0460    2.1830    0.0000 O.3     1  LIG1       -0.4714
     16 C           3.0630    2.1960    0.0000 C.3     1  LIG1        0.2525
     17 O           0.5460   -2.1920    0.0000 O.2     1  LIG1       -0.2868
@<TRIPOS>BOND
     1     1     2    2
     2     1     6    1
     3     1     7    1
     4     2     3    1
     5     2     4    1
     6     4     5    1
     7     5     6    1
     8     7     8    1
     9     8     9    1
    10     8    17    2
    11     9    10   ar
    12     9    14   ar
    13    10    11   ar
    14    11    12   ar
    15    12    13   ar
    16    12    15    1
    17    13    14   ar
    18    15    16    1
