@<TRIPOS>MOLECULE
27923_ChemDiv_3232-1083
 24 26 0 0 0
SMALL
GASTEIGER
Energy = 0

@<TRIPOS>ATOM
      1 N          -2.5960    1.4750    0.0000 N.am    1  LIG1       -0.1780
      2 C          -1.7170    0.9670    0.0000 C.2     1  LIG1        0.2561
      3 C          -1.7170   -0.0420    0.0000 C.3     1  LIG1        0.1392
      4 S          -2.5960   -0.5290    0.0000 S.3     1  LIG1       -0.1034
      5 C          -3.4460   -0.0420    0.0000 C.ar    1  LIG1        0.0410
      6 C          -3.4460    0.9670    0.0000 C.ar    1  LIG1        0.0790
      7 C          -4.3290    1.4750    0.0000 C.ar    1  LIG1        0.0171
      8 C          -5.2040    0.9670    0.0000 C.ar    1  LIG1        0.0014
      9 C          -5.2040   -0.0420    0.0000 C.ar    1  LIG1        0.0006
     10 C          -4.3170   -0.5210    0.0000 C.ar    1  LIG1        0.0075
     11 C          -0.8540   -0.5290    0.0000 C.3     1  LIG1        0.1075
     12 C           0.0040   -0.0420    0.0000 C.2     1  LIG1        0.2469
     13 N           0.8670   -0.5420    0.0000 N.am    1  LIG1       -0.1792
     14 C           1.7290   -0.0420    0.0000 C.ar    1  LIG1        0.0734
     15 C           2.6130   -0.5420    0.0000 C.ar    1  LIG1        0.0177
     16 C           3.4630   -0.0210    0.0000 C.ar    1  LIG1        0.0153
     17 C           4.3420   -0.4710    0.0000 C.2     1  LIG1        0.0729
     18 O           5.2000    0.0380    0.0000 O.co2   1  LIG1       -0.5446
     19 O           4.3420   -1.4710    0.0000 O.co2   1  LIG1       -0.5446
     20 C           3.4630    0.9380    0.0000 C.ar    1  LIG1        0.0012
     21 C           2.5920    1.4670    0.0000 C.ar    1  LIG1        0.0014
     22 C           1.7290    0.9500    0.0000 C.ar    1  LIG1        0.0166
     23 O           0.0040    0.9500    0.0000 O.2     1  LIG1       -0.2729
     24 O          -0.8540    1.4750    0.0000 O.2     1  LIG1       -0.2720
@<TRIPOS>BOND
     1     1     2   am
     2     1     6    1
     3     2     3    1
     4     2    24    2
     5     3     4    1
     6     3    11    1
     7     4     5    1
     8     5     6   ar
     9     5    10   ar
    10     6     7   ar
    11     7     8   ar
    12     8     9   ar
    13     9    10   ar
    14    11    12    1
    15    12    13   am
    16    12    23    2
    17    13    14    1
    18    14    15   ar
    19    14    22   ar
    20    15    16   ar
    21    16    17    1
    22    16    20   ar
    23    17    18   ar
    24    17    19   ar
    25    20    21   ar
    26    21    22   ar
