@<TRIPOS>MOLECULE
27921_ChemDiv_2291-3947
 22 24 0 0 0
SMALL
GASTEIGER
Energy = 0

@<TRIPOS>ATOM
      1 N          -2.1580    0.9040    0.0000 N.am    1  LIG1       -0.1780
      2 C          -1.2750    0.3750    0.0000 C.2     1  LIG1        0.2561
      3 C          -1.2750   -0.5710    0.0000 C.3     1  LIG1        0.1392
      4 S          -2.1580   -1.1000    0.0000 S.3     1  LIG1       -0.1034
      5 C          -3.0080   -0.6080    0.0000 C.ar    1  LIG1        0.0410
      6 C          -3.0080    0.4210    0.0000 C.ar    1  LIG1        0.0790
      7 C          -3.8920    0.9040    0.0000 C.ar    1  LIG1        0.0171
      8 C          -4.7710    0.3750    0.0000 C.ar    1  LIG1        0.0014
      9 C          -4.7710   -0.5710    0.0000 C.ar    1  LIG1        0.0006
     10 C          -3.8920   -1.1000    0.0000 C.ar    1  LIG1        0.0075
     11 C          -0.3670   -1.0710    0.0000 C.3     1  LIG1        0.1075
     12 C           0.5170   -0.5420    0.0000 C.2     1  LIG1        0.2469
     13 N           1.3670   -1.0330    0.0000 N.am    1  LIG1       -0.1792
     14 C           2.2130   -0.5420    0.0000 C.ar    1  LIG1        0.0734
     15 C           3.0500   -1.0330    0.0000 C.ar    1  LIG1        0.0175
     16 C           3.9000   -0.5420    0.0000 C.ar    1  LIG1        0.0127
     17 C           3.9290    0.4880    0.0000 C.ar    1  LIG1        0.0578
     18 CL          4.7670    1.1040    0.0000 Cl      1  LIG1       -0.0822
     19 C           3.0920    0.9500    0.0000 C.ar    1  LIG1        0.0127
     20 C           2.2500    0.4210    0.0000 C.ar    1  LIG1        0.0175
     21 O           0.4880    0.4500    0.0000 O.2     1  LIG1       -0.2729
     22 O          -0.3670    0.8670    0.0000 O.2     1  LIG1       -0.2720
@<TRIPOS>BOND
     1     1     2   am
     2     1     6    1
     3     2     3    1
     4     2    22    2
     5     3     4    1
     6     3    11    1
     7     4     5    1
     8     5     6   ar
     9     5    10   ar
    10     6     7   ar
    11     7     8   ar
    12     8     9   ar
    13     9    10   ar
    14    11    12    1
    15    12    13   am
    16    12    21    2
    17    13    14    1
    18    14    15   ar
    19    14    20   ar
    20    15    16   ar
    21    16    17   ar
    22    17    18    1
    23    17    19   ar
    24    19    20   ar
