@<TRIPOS>MOLECULE
27928_ChemDiv_8011-4737
 27 30 0 0 0
SMALL
GASTEIGER
Energy = 0

@<TRIPOS>ATOM
      1 S          -2.9380   -1.8130    0.0000 S.O2    1  LIG1       -0.0578
      2 N          -1.9540   -1.8130    0.0000 N.pl3   1  LIG1       -0.5358
      3 C          -1.4580   -0.9460    0.0000 C.ar    1  LIG1       -0.1123
      4 C          -1.9710   -0.0710    0.0000 C.ar    1  LIG1       -0.0227
      5 C          -2.9500   -0.0710    0.0000 C.ar    1  LIG1        0.0139
      6 C          -3.4460   -0.9460    0.0000 C.ar    1  LIG1        0.0892
      7 C          -4.4670   -0.9460    0.0000 C.ar    1  LIG1        0.0169
      8 C          -4.9920   -0.0710    0.0000 C.ar    1  LIG1        0.0013
      9 C          -4.4960    0.7750    0.0000 C.ar    1  LIG1        0.0001
     10 C          -3.4790    0.7750    0.0000 C.ar    1  LIG1        0.0012
     11 C          -1.4710    0.7750    0.0000 C.ar    1  LIG1       -0.0256
     12 C          -0.4670    0.7750    0.0000 C.ar    1  LIG1       -0.1124
     13 N           0.0290    1.6290    0.0000 N.pl3   1  LIG1       -0.5358
     14 S           1.0210    1.6460    0.0000 S.O2    1  LIG1       -0.0578
     15 C           2.0040    1.6460    0.0000 C.ar    1  LIG1        0.0893
     16 C           2.5170    0.8080    0.0000 C.ar    1  LIG1        0.0166
     17 C           3.4920    0.8080    0.0000 C.ar    1  LIG1       -0.0030
     18 C           3.9960    1.6630    0.0000 C.ar    1  LIG1       -0.0218
     19 C           3.4920    2.5250    0.0000 C.ar    1  LIG1       -0.0030
     20 C           2.4830    2.5250    0.0000 C.ar    1  LIG1        0.0166
     21 C           4.9880    1.6630    0.0000 C.3     1  LIG1        0.0310
     22 O           1.0210    2.6790    0.0000 O.2     1  LIG1       -0.1842
     23 O           1.0210    0.6670    0.0000 O.2     1  LIG1       -0.1842
     24 C           0.0670   -0.0710    0.0000 C.ar    1  LIG1       -0.0257
     25 C          -0.4330   -0.9460    0.0000 C.ar    1  LIG1       -0.0257
     26 O          -3.9960   -1.8130    0.0000 O.2     1  LIG1       -0.1842
     27 O          -2.4540   -2.6750    0.0000 O.2     1  LIG1       -0.1842
@<TRIPOS>BOND
     1     1     2    1
     2     1     6    1
     3     1    26    2
     4     1    27    2
     5     2     3    1
     6     3     4   ar
     7     3    25   ar
     8     4     5    1
     9     4    11   ar
    10     5     6   ar
    11     5    10   ar
    12     6     7   ar
    13     7     8   ar
    14     8     9   ar
    15     9    10   ar
    16    11    12   ar
    17    12    13    1
    18    12    24   ar
    19    13    14    1
    20    14    15    1
    21    14    22    2
    22    14    23    2
    23    15    16   ar
    24    15    20   ar
    25    16    17   ar
    26    17    18   ar
    27    18    19   ar
    28    18    21    1
    29    19    20   ar
    30    24    25   ar
