@<TRIPOS>MOLECULE
27925_ChemDiv_3888-0270
 27 30 0 0 0
SMALL
GASTEIGER
Energy = 0

@<TRIPOS>ATOM
      1 N          -2.9420   -0.2380    0.0000 N.am    1  LIG1       -0.1780
      2 C          -2.1130    0.2670    0.0000 C.2     1  LIG1        0.2561
      3 C          -2.1130    1.2460    0.0000 C.3     1  LIG1        0.1392
      4 S          -2.9420    1.7420    0.0000 S.3     1  LIG1       -0.1034
      5 C          -3.8290    1.2460    0.0000 C.ar    1  LIG1        0.0410
      6 C          -3.8290    0.2670    0.0000 C.ar    1  LIG1        0.0790
      7 C          -4.6710   -0.2380    0.0000 C.ar    1  LIG1        0.0171
      8 C          -5.5710    0.2670    0.0000 C.ar    1  LIG1        0.0014
      9 C          -5.5710    1.2460    0.0000 C.ar    1  LIG1        0.0006
     10 C          -4.6710    1.7420    0.0000 C.ar    1  LIG1        0.0075
     11 C          -1.2000    1.7290    0.0000 C.3     1  LIG1        0.1075
     12 C          -0.3630    1.1920    0.0000 C.2     1  LIG1        0.2469
     13 N           0.5080    1.6540    0.0000 N.am    1  LIG1       -0.1792
     14 C           1.6000    1.1540    0.0000 C.ar    1  LIG1        0.0734
     15 C           1.6000    0.1080    0.0000 C.ar    1  LIG1        0.0179
     16 C           2.4960   -0.3460    0.0000 C.ar    1  LIG1        0.0159
     17 C           3.4210    0.0290    0.0000 C.ar    1  LIG1        0.0481
     18 N           3.7960   -0.2170    0.0000 N.pl3   1  LIG1       -0.3028
     19 C           4.6920    0.2960    0.0000 C.3     1  LIG1        0.1231
     20 C           5.5670   -0.2170    0.0000 C.3     1  LIG1        0.1636
     21 O           5.5670   -1.2330    0.0000 O.3     1  LIG1       -0.3501
     22 C           4.6920   -1.7380    0.0000 C.3     1  LIG1        0.1636
     23 C           3.7960   -1.2330    0.0000 C.3     1  LIG1        0.1231
     24 C           3.4210    1.1580    0.0000 C.ar    1  LIG1        0.0159
     25 C           2.5460    1.6540    0.0000 C.ar    1  LIG1        0.0179
     26 O          -0.3500    0.1630    0.0000 O.2     1  LIG1       -0.2729
     27 O          -1.2000   -0.1880    0.0000 O.2     1  LIG1       -0.2720
@<TRIPOS>BOND
     1     1     2   am
     2     1     6    1
     3     2     3    1
     4     2    27    2
     5     3     4    1
     6     3    11    1
     7     4     5    1
     8     5     6   ar
     9     5    10   ar
    10     6     7   ar
    11     7     8   ar
    12     8     9   ar
    13     9    10   ar
    14    11    12    1
    15    12    13   am
    16    12    26    2
    17    13    14    1
    18    14    15   ar
    19    14    25   ar
    20    15    16   ar
    21    16    17   ar
    22    17    18    1
    23    17    24   ar
    24    18    19    1
    25    18    23    1
    26    19    20    1
    27    20    21    1
    28    21    22    1
    29    22    23    1
    30    24    25   ar
