@<TRIPOS>MOLECULE
27927_ChemDiv_4676-0094
 21 23 0 0 0
SMALL
GASTEIGER
Energy = 0

@<TRIPOS>ATOM
      1 N          -0.3750    3.2750    0.0000 N.am    1  LIG1       -0.1780
      2 C           0.4670    2.7670    0.0000 C.2     1  LIG1        0.2561
      3 C           0.4670    1.7380    0.0000 C.3     1  LIG1        0.1392
      4 S          -0.3750    1.2670    0.0000 S.3     1  LIG1       -0.1034
      5 C          -1.2460    1.7670    0.0000 C.ar    1  LIG1        0.0410
      6 C          -1.2460    2.7670    0.0000 C.ar    1  LIG1        0.0790
      7 C          -2.1000    3.2750    0.0000 C.ar    1  LIG1        0.0171
      8 C          -2.9380    2.7670    0.0000 C.ar    1  LIG1        0.0014
      9 C          -2.9380    1.7380    0.0000 C.ar    1  LIG1        0.0006
     10 C          -2.1000    1.2670    0.0000 C.ar    1  LIG1        0.0075
     11 C           1.3380    1.2040    0.0000 C.3     1  LIG1        0.1075
     12 C           1.2750    0.2000    0.0000 C.2     1  LIG1        0.2469
     13 N           2.1250   -0.3250    0.0000 N.am    1  LIG1       -0.1792
     14 C           2.0960   -1.3420    0.0000 C.ar    1  LIG1        0.0734
     15 C           1.2250   -1.7960    0.0000 C.ar    1  LIG1        0.0166
     16 C           1.1790   -2.8000    0.0000 C.ar    1  LIG1        0.0013
     17 C           2.0250   -3.3290    0.0000 C.ar    1  LIG1        0.0001
     18 C           2.9170   -2.8580    0.0000 C.ar    1  LIG1        0.0013
     19 C           2.9330   -1.8290    0.0000 C.ar    1  LIG1        0.0166
     20 O           0.4000   -0.2790    0.0000 O.2     1  LIG1       -0.2729
     21 O           1.3210    3.3330    0.0000 O.2     1  LIG1       -0.2720
@<TRIPOS>BOND
     1     1     2   am
     2     1     6    1
     3     2     3    1
     4     2    21    2
     5     3     4    1
     6     3    11    1
     7     4     5    1
     8     5     6   ar
     9     5    10   ar
    10     6     7   ar
    11     7     8   ar
    12     8     9   ar
    13     9    10   ar
    14    11    12    1
    15    12    13   am
    16    12    20    2
    17    13    14    1
    18    14    15   ar
    19    14    19   ar
    20    15    16   ar
    21    16    17   ar
    22    17    18   ar
    23    18    19   ar
