@<TRIPOS>MOLECULE
27920_ChemDiv_E230-1455
 28 31 0 0 0
SMALL
GASTEIGER
Energy = 0

@<TRIPOS>ATOM
      1 N          -0.7420   -1.7330    0.0000 N.ar    1  LIG1       -0.3220
      2 C          -0.1540   -0.9330    0.0000 C.ar    1  LIG1        0.0718
      3 C          -0.7420   -0.1170    0.0000 C.ar    1  LIG1       -0.0036
      4 C          -1.6960   -0.4290    0.0000 C.ar    1  LIG1        0.0133
      5 C          -1.6960   -1.4290    0.0000 C.ar    1  LIG1        0.0599
      6 C          -2.5580   -1.9250    0.0000 C.ar    1  LIG1        0.0172
      7 C          -3.4170   -1.4290    0.0000 C.ar    1  LIG1        0.0015
      8 C          -3.4170   -0.4290    0.0000 C.ar    1  LIG1        0.0001
      9 C          -2.5580    0.0710    0.0000 C.ar    1  LIG1        0.0012
     10 C          -0.4380    0.8380    0.0000 C.3     1  LIG1        0.0284
     11 C           0.5420    1.0500    0.0000 C.3     1  LIG1        0.0143
     12 C           0.8460    2.0000    0.0000 C.3     1  LIG1        0.0856
     13 C           1.8170    2.2130    0.0000 C.2     1  LIG1        0.2258
     14 N           2.1170    3.1670    0.0000 N.am    1  LIG1       -0.2744
     15 C           3.1170    3.3830    0.0000 C.3     1  LIG1        0.1255
     16 C           3.4130    4.3170    0.0000 C.3     1  LIG1        0.1636
     17 O           2.7500    5.0580    0.0000 O.3     1  LIG1       -0.3501
     18 C           1.7540    4.8380    0.0000 C.3     1  LIG1        0.1636
     19 C           1.4540    3.8880    0.0000 C.3     1  LIG1        0.1255
     20 O           2.4920    1.4710    0.0000 O.2     1  LIG1       -0.2749
     21 C          -0.4380   -2.6880    0.0000 C.3     1  LIG1        0.1336
     22 C          -1.1500   -3.3960    0.0000 C.ar    1  LIG1        0.0110
     23 C          -0.8920   -4.3540    0.0000 C.ar    1  LIG1        0.0555
     24 CL          0.0710   -4.6210    0.0000 Cl      1  LIG1       -0.0825
     25 C          -1.6040   -5.0580    0.0000 C.ar    1  LIG1        0.0111
     26 C          -2.5880   -4.7920    0.0000 C.ar    1  LIG1        0.0008
     27 C          -2.8290   -3.8250    0.0000 C.ar    1  LIG1       -0.0002
     28 C          -2.1170   -3.1210    0.0000 C.ar    1  LIG1       -0.0016
@<TRIPOS>BOND
     1     1     2   ar
     2     1     5   ar
     3     1    21    1
     4     2     3   ar
     5     3     4   ar
     6     3    10    1
     7     4     5   ar
     8     4     9   ar
     9     5     6   ar
    10     6     7   ar
    11     7     8   ar
    12     8     9   ar
    13    10    11    1
    14    11    12    1
    15    12    13    1
    16    13    14   am
    17    13    20    2
    18    14    15    1
    19    14    19    1
    20    15    16    1
    21    16    17    1
    22    17    18    1
    23    18    19    1
    24    21    22    1
    25    22    23   ar
    26    22    28   ar
    27    23    24    1
    28    23    25   ar
    29    25    26   ar
    30    26    27   ar
    31    27    28   ar
