@<TRIPOS>MOLECULE
27929_ChemDiv_4676-0752
 36 40 0 0 0
SMALL
GASTEIGER
Energy = 0

@<TRIPOS>ATOM
      1 N          -3.4000    4.0040    0.0000 N.am    1  LIG1       -0.1780
      2 C          -2.5130    3.5040    0.0000 C.2     1  LIG1        0.2561
      3 C          -2.5130    2.5080    0.0000 C.3     1  LIG1        0.1392
      4 S          -3.4000    2.0040    0.0000 S.3     1  LIG1       -0.1034
      5 C          -4.2710    2.5080    0.0000 C.ar    1  LIG1        0.0410
      6 C          -4.2710    3.5040    0.0000 C.ar    1  LIG1        0.0790
      7 C          -5.1380    4.0040    0.0000 C.ar    1  LIG1        0.0171
      8 C          -6.0130    3.5040    0.0000 C.ar    1  LIG1        0.0014
      9 C          -6.0130    2.5080    0.0000 C.ar    1  LIG1        0.0006
     10 C          -5.1380    2.0040    0.0000 C.ar    1  LIG1        0.0075
     11 C          -1.6540    2.0250    0.0000 C.3     1  LIG1        0.1075
     12 C          -0.8130    2.5250    0.0000 C.2     1  LIG1        0.2470
     13 N           0.0210    2.0380    0.0000 N.am    1  LIG1       -0.1779
     14 C           0.8830    2.5420    0.0000 C.ar    1  LIG1        0.0886
     15 C           1.7460    2.0380    0.0000 C.ar    1  LIG1        0.0886
     16 N           1.7080    1.0460    0.0000 N.am    1  LIG1       -0.1779
     17 C           2.5710    0.5250    0.0000 C.2     1  LIG1        0.2470
     18 C           2.5460   -0.4540    0.0000 C.3     1  LIG1        0.1075
     19 C           3.4170   -0.9750    0.0000 C.3     1  LIG1        0.1392
     20 C           4.2830   -0.4750    0.0000 C.2     1  LIG1        0.2561
     21 N           5.1460   -0.9920    0.0000 N.am    1  LIG1       -0.1780
     22 C           5.1460   -2.0170    0.0000 C.ar    1  LIG1        0.0790
     23 C           4.2830   -2.5040    0.0000 C.ar    1  LIG1        0.0410
     24 S           3.4170   -1.9710    0.0000 S.3     1  LIG1       -0.1034
     25 C           4.2580   -3.5080    0.0000 C.ar    1  LIG1        0.0075
     26 C           5.1250   -4.0330    0.0000 C.ar    1  LIG1        0.0006
     27 C           6.0130   -3.5420    0.0000 C.ar    1  LIG1        0.0014
     28 C           6.0130   -2.5330    0.0000 C.ar    1  LIG1        0.0171
     29 O           4.2830    0.4920    0.0000 O.2     1  LIG1       -0.2720
     30 O           3.4500    1.0130    0.0000 O.2     1  LIG1       -0.2729
     31 C           2.6170    2.5420    0.0000 C.ar    1  LIG1        0.0179
     32 C           2.6130    3.5250    0.0000 C.ar    1  LIG1        0.0014
     33 C           1.7460    4.0330    0.0000 C.ar    1  LIG1        0.0014
     34 C           0.8830    3.5460    0.0000 C.ar    1  LIG1        0.0179
     35 O          -0.8130    3.5040    0.0000 O.2     1  LIG1       -0.2729
     36 O          -1.6540    3.9790    0.0000 O.2     1  LIG1       -0.2720
@<TRIPOS>BOND
     1     1     2   am
     2     1     6    1
     3     2     3    1
     4     2    36    2
     5     3     4    1
     6     3    11    1
     7     4     5    1
     8     5     6   ar
     9     5    10   ar
    10     6     7   ar
    11     7     8   ar
    12     8     9   ar
    13     9    10   ar
    14    11    12    1
    15    12    13   am
    16    12    35    2
    17    13    14    1
    18    14    15   ar
    19    14    34   ar
    20    15    16    1
    21    15    31   ar
    22    16    17   am
    23    17    18    1
    24    17    30    2
    25    18    19    1
    26    19    20    1
    27    19    24    1
    28    20    21   am
    29    20    29    2
    30    21    22    1
    31    22    23   ar
    32    22    28   ar
    33    23    24    1
    34    23    25   ar
    35    25    26   ar
    36    26    27   ar
    37    27    28   ar
    38    31    32   ar
    39    32    33   ar
    40    33    34   ar
