@<TRIPOS>MOLECULE
27931_ChemDiv_4676-1087
 24 27 0 0 0
SMALL
GASTEIGER
Energy = 0

@<TRIPOS>ATOM
      1 N          -2.4920    1.0130    0.0000 N.am    1  LIG1       -0.1780
      2 C          -1.6380    0.5000    0.0000 C.2     1  LIG1        0.2561
      3 C          -1.6380   -0.4830    0.0000 C.3     1  LIG1        0.1392
      4 S          -2.4920   -1.0080    0.0000 S.3     1  LIG1       -0.1034
      5 C          -3.3630   -0.4830    0.0000 C.ar    1  LIG1        0.0410
      6 C          -3.3630    0.5000    0.0000 C.ar    1  LIG1        0.0790
      7 C          -4.2040    1.0130    0.0000 C.ar    1  LIG1        0.0171
      8 C          -5.0750    0.5000    0.0000 C.ar    1  LIG1        0.0014
      9 C          -5.0750   -0.4830    0.0000 C.ar    1  LIG1        0.0006
     10 C          -4.2040   -1.0080    0.0000 C.ar    1  LIG1        0.0075
     11 C          -0.7540   -1.0130    0.0000 C.3     1  LIG1        0.1075
     12 C           0.0960   -0.4830    0.0000 C.2     1  LIG1        0.2469
     13 N           0.9380   -1.0080    0.0000 N.am    1  LIG1       -0.1791
     14 C           1.8040   -0.5080    0.0000 C.ar    1  LIG1        0.0766
     15 C           2.6750   -1.0130    0.0000 C.ar    1  LIG1        0.0568
     16 C           3.5420   -0.5080    0.0000 C.ar    1  LIG1        0.1777
     17 C           3.5420    0.4880    0.0000 C.ar    1  LIG1        0.1765
     18 O           4.4630    0.8250    0.0000 O.3     1  LIG1       -0.4346
     19 C           5.0710    0.0040    0.0000 C.3     1  LIG1        0.4294
     20 O           4.5080   -0.7830    0.0000 O.3     1  LIG1       -0.4346
     21 C           2.6750    0.9920    0.0000 C.ar    1  LIG1        0.0415
     22 C           1.8040    0.4880    0.0000 C.ar    1  LIG1        0.0199
     23 O           0.0960    0.5000    0.0000 O.2     1  LIG1       -0.2729
     24 O          -0.7540    1.0170    0.0000 O.2     1  LIG1       -0.2720
@<TRIPOS>BOND
     1     1     2   am
     2     1     6    1
     3     2     3    1
     4     2    24    2
     5     3     4    1
     6     3    11    1
     7     4     5    1
     8     5     6   ar
     9     5    10   ar
    10     6     7   ar
    11     7     8   ar
    12     8     9   ar
    13     9    10   ar
    14    11    12    1
    15    12    13   am
    16    12    23    2
    17    13    14    1
    18    14    15   ar
    19    14    22   ar
    20    15    16   ar
    21    16    17   ar
    22    16    20    1
    23    17    18    1
    24    17    21   ar
    25    18    19    1
    26    19    20    1
    27    21    22   ar
