@<TRIPOS>MOLECULE
27938_ChemDiv_E542-0398
 23 25 0 0 0
SMALL
GASTEIGER
Energy = 0

@<TRIPOS>ATOM
      1 N          -0.8790   -2.6420    0.0000 N.ar    1  LIG1       -0.3263
      2 C          -0.2790   -1.8250    0.0000 C.ar    1  LIG1        0.0715
      3 C          -0.8790   -1.0210    0.0000 C.ar    1  LIG1       -0.0031
      4 C          -1.8330   -1.3250    0.0000 C.ar    1  LIG1        0.0133
      5 C          -1.8330   -2.3330    0.0000 C.ar    1  LIG1        0.0596
      6 C          -2.6960   -2.8330    0.0000 C.ar    1  LIG1        0.0172
      7 C          -3.5580   -2.3330    0.0000 C.ar    1  LIG1        0.0015
      8 C          -3.5580   -1.3380    0.0000 C.ar    1  LIG1        0.0001
      9 C          -2.6960   -0.8290    0.0000 C.ar    1  LIG1        0.0012
     10 C          -0.5750   -0.0710    0.0000 C.3     1  LIG1        0.0375
     11 C           0.4000    0.1420    0.0000 C.3     1  LIG1        0.0915
     12 C           0.7040    1.0830    0.0000 C.2     1  LIG1        0.2417
     13 N           1.6750    1.3040    0.0000 N.am    1  LIG1       -0.2072
     14 C           1.9880    2.2670    0.0000 C.3     1  LIG1        0.0953
     15 C           3.0330    2.4330    0.0000 C.3     1  LIG1        0.0217
     16 C           3.5540    3.3710    0.0000 C.3     1  LIG1        0.0018
     17 C           3.1130    4.2920    0.0000 C.3     1  LIG1        0.0001
     18 C           2.2460    4.4580    0.0000 C.3     1  LIG1        0.0001
     19 C           1.4040    3.8420    0.0000 C.3     1  LIG1        0.0018
     20 C           1.2540    2.9790    0.0000 C.3     1  LIG1        0.0217
     21 O           0.0290    1.8250    0.0000 O.2     1  LIG1       -0.2733
     22 C          -0.5630   -3.5960    0.0000 C.3     1  LIG1        0.1061
     23 C          -1.0670   -4.4580    0.0000 C.3     1  LIG1        0.0265
@<TRIPOS>BOND
     1     1     2   ar
     2     1     5   ar
     3     1    22    1
     4     2     3   ar
     5     3     4   ar
     6     3    10    1
     7     4     5   ar
     8     4     9   ar
     9     5     6   ar
    10     6     7   ar
    11     7     8   ar
    12     8     9   ar
    13    10    11    1
    14    11    12    1
    15    12    13   am
    16    12    21    2
    17    13    14    1
    18    14    15    1
    19    14    20    1
    20    15    16    1
    21    16    17    1
    22    17    18    1
    23    18    19    1
    24    19    20    1
    25    22    23    1
