@<TRIPOS>MOLECULE
27935_ChemDiv_5029-0040
 26 28 0 0 0
SMALL
GASTEIGER
Energy = 0

@<TRIPOS>ATOM
      1 N          -3.0250    1.7500    0.0000 N.am    1  LIG1       -0.1780
      2 C          -2.1500    1.2500    0.0000 C.2     1  LIG1        0.2561
      3 C          -2.1500    0.2380    0.0000 C.3     1  LIG1        0.1392
      4 S          -3.0250   -0.2540    0.0000 S.3     1  LIG1       -0.1034
      5 C          -3.8920    0.2380    0.0000 C.ar    1  LIG1        0.0410
      6 C          -3.8920    1.2500    0.0000 C.ar    1  LIG1        0.0790
      7 C          -4.7540    1.7500    0.0000 C.ar    1  LIG1        0.0171
      8 C          -5.6250    1.2500    0.0000 C.ar    1  LIG1        0.0014
      9 C          -5.6250    0.2380    0.0000 C.ar    1  LIG1        0.0006
     10 C          -4.7540   -0.2540    0.0000 C.ar    1  LIG1        0.0075
     11 C          -1.2960   -0.2540    0.0000 C.3     1  LIG1        0.1075
     12 C          -0.4290    0.2380    0.0000 C.2     1  LIG1        0.2470
     13 N           0.4460   -0.2540    0.0000 N.am    1  LIG1       -0.1761
     14 C           1.3130    0.2540    0.0000 C.ar    1  LIG1        0.1072
     15 C           2.1670   -0.2500    0.0000 C.ar    1  LIG1        0.1537
     16 O           2.1580   -1.2420    0.0000 O.3     1  LIG1       -0.4742
     17 C           3.0290   -1.7500    0.0000 C.3     1  LIG1        0.2055
     18 C           3.8960   -1.2420    0.0000 C.3     1  LIG1        0.0473
     19 C           4.7460   -1.7420    0.0000 C.3     1  LIG1        0.0038
     20 C           5.6210   -1.2420    0.0000 C.3     1  LIG1        0.0001
     21 C           3.0290    0.2540    0.0000 C.ar    1  LIG1        0.0382
     22 C           3.0290    1.2500    0.0000 C.ar    1  LIG1        0.0032
     23 C           2.1670    1.7500    0.0000 C.ar    1  LIG1        0.0015
     24 C           1.3130    1.2500    0.0000 C.ar    1  LIG1        0.0197
     25 O          -0.4290    1.2500    0.0000 O.2     1  LIG1       -0.2729
     26 O          -1.2960    1.7540    0.0000 O.2     1  LIG1       -0.2720
@<TRIPOS>BOND
     1     1     2   am
     2     1     6    1
     3     2     3    1
     4     2    26    2
     5     3     4    1
     6     3    11    1
     7     4     5    1
     8     5     6   ar
     9     5    10   ar
    10     6     7   ar
    11     7     8   ar
    12     8     9   ar
    13     9    10   ar
    14    11    12    1
    15    12    13   am
    16    12    25    2
    17    13    14    1
    18    14    15   ar
    19    14    24   ar
    20    15    16    1
    21    15    21   ar
    22    16    17    1
    23    17    18    1
    24    18    19    1
    25    19    20    1
    26    21    22   ar
    27    22    23   ar
    28    23    24   ar
