@<TRIPOS>MOLECULE
27942_ChemDiv_E542-1498
 33 36 0 0 0
SMALL
GASTEIGER
Energy = 0

@<TRIPOS>ATOM
      1 N          -1.6750   -2.3630    0.0000 N.ar    1  LIG1       -0.3221
      2 C          -1.0750   -1.5460    0.0000 C.ar    1  LIG1        0.0718
      3 C          -1.6750   -0.7380    0.0000 C.ar    1  LIG1       -0.0031
      4 C          -2.6290   -1.0460    0.0000 C.ar    1  LIG1        0.0133
      5 C          -2.6290   -2.0540    0.0000 C.ar    1  LIG1        0.0599
      6 C          -3.4920   -2.5540    0.0000 C.ar    1  LIG1        0.0172
      7 C          -4.3540   -2.0540    0.0000 C.ar    1  LIG1        0.0015
      8 C          -4.3540   -1.0580    0.0000 C.ar    1  LIG1        0.0001
      9 C          -3.4920   -0.5460    0.0000 C.ar    1  LIG1        0.0012
     10 C          -1.3710    0.2080    0.0000 C.3     1  LIG1        0.0375
     11 C          -0.3920    0.4210    0.0000 C.3     1  LIG1        0.0915
     12 C          -0.0920    1.3630    0.0000 C.2     1  LIG1        0.2417
     13 N           0.8830    1.5880    0.0000 N.am    1  LIG1       -0.2071
     14 C           1.1880    2.5330    0.0000 C.3     1  LIG1        0.0987
     15 C           2.1540    2.7290    0.0000 C.3     1  LIG1        0.0433
     16 C           2.4670    3.7000    0.0000 C.3     1  LIG1        0.0985
     17 N           1.7920    4.4210    0.0000 N.am    1  LIG1       -0.2459
     18 C           2.0880    5.3750    0.0000 C.2     1  LIG1        0.4049
     19 O           1.4130    6.1170    0.0000 O.2     1  LIG1       -0.2262
     20 O           3.0630    5.5880    0.0000 O.3     1  LIG1       -0.4345
     21 C           3.3750    6.5420    0.0000 C.3     1  LIG1        0.2102
     22 C           4.3500    6.7540    0.0000 C.3     1  LIG1        0.0513
     23 C           0.8080    4.2080    0.0000 C.3     1  LIG1        0.0985
     24 C           0.5040    3.2630    0.0000 C.3     1  LIG1        0.0433
     25 O          -0.7670    2.1040    0.0000 O.2     1  LIG1       -0.2733
     26 C          -1.3580   -3.3170    0.0000 C.3     1  LIG1        0.1327
     27 C          -1.8630   -4.1790    0.0000 C.ar    1  LIG1        0.0004
     28 C          -2.8710   -4.1630    0.0000 C.ar    1  LIG1       -0.0027
     29 C          -3.3710   -5.0290    0.0000 C.ar    1  LIG1       -0.0045
     30 C          -2.8750   -5.8920    0.0000 C.ar    1  LIG1       -0.0219
     31 C          -1.8710   -5.9000    0.0000 C.ar    1  LIG1       -0.0045
     32 C          -1.3710   -5.0380    0.0000 C.ar    1  LIG1       -0.0027
     33 C          -3.3830   -6.7540    0.0000 C.3     1  LIG1        0.0310
@<TRIPOS>BOND
     1     1     2   ar
     2     1     5   ar
     3     1    26    1
     4     2     3   ar
     5     3     4   ar
     6     3    10    1
     7     4     5   ar
     8     4     9   ar
     9     5     6   ar
    10     6     7   ar
    11     7     8   ar
    12     8     9   ar
    13    10    11    1
    14    11    12    1
    15    12    13   am
    16    12    25    2
    17    13    14    1
    18    14    15    1
    19    14    24    1
    20    15    16    1
    21    16    17    1
    22    17    18   am
    23    17    23    1
    24    18    19    2
    25    18    20    1
    26    20    21    1
    27    21    22    1
    28    23    24    1
    29    26    27    1
    30    27    28   ar
    31    27    32   ar
    32    28    29   ar
    33    29    30   ar
    34    30    31   ar
    35    30    33    1
    36    31    32   ar
