@<TRIPOS>MOLECULE
27941_ChemDiv_4456-0623
 28 31 0 0 0
SMALL
GASTEIGER
Energy = 0

@<TRIPOS>ATOM
      1 S          -2.0170   -0.6170    0.0000 S.O2    1  LIG1       -0.0578
      2 N          -1.5000    0.2380    0.0000 N.pl3   1  LIG1       -0.5358
      3 C          -0.4830    0.2790    0.0000 C.ar    1  LIG1       -0.1113
      4 C           0.0540   -0.5920    0.0000 C.ar    1  LIG1       -0.0094
      5 C           1.0500   -0.5210    0.0000 C.ar    1  LIG1        0.0903
      6 C           1.4880    0.3630    0.0000 C.ar    1  LIG1        0.1552
      7 C           0.9500    1.1960    0.0000 C.ar    1  LIG1        0.0390
      8 C           1.5880    1.9580    0.0000 C.ar    1  LIG1        0.0679
      9 C           2.5170    1.5540    0.0000 C.ar    1  LIG1        0.1256
     10 O           2.4170    0.5580    0.0000 O.2     1  LIG1       -0.4568
     11 C           3.3130    2.1500    0.0000 C.3     1  LIG1        0.0650
     12 C           3.1830    3.1460    0.0000 C.3     1  LIG1        0.0144
     13 C           2.2580    3.5250    0.0000 C.3     1  LIG1        0.0697
     14 C           1.4630    2.9460    0.0000 C.2     1  LIG1        0.1758
     15 O           0.5330    3.3670    0.0000 O.2     1  LIG1       -0.2912
     16 C           2.8380    4.0960    0.0000 C.3     1  LIG1        0.0009
     17 C           4.0130    3.7420    0.0000 C.3     1  LIG1        0.0009
     18 C          -0.0330    1.1330    0.0000 C.ar    1  LIG1       -0.0206
     19 CL          1.5880   -1.3880    0.0000 Cl      1  LIG1       -0.0791
     20 C          -2.5210   -1.5170    0.0000 C.ar    1  LIG1        0.0893
     21 C          -2.0170   -2.3710    0.0000 C.ar    1  LIG1        0.0174
     22 C          -2.5210   -3.2290    0.0000 C.ar    1  LIG1        0.0080
     23 C          -3.5130   -3.2290    0.0000 C.ar    1  LIG1        0.0346
     24 C          -4.0170   -2.3710    0.0000 C.ar    1  LIG1        0.0080
     25 C          -3.5130   -1.5170    0.0000 C.ar    1  LIG1        0.0174
     26 BR         -4.0170   -4.0960    0.0000 Br      1  LIG1       -0.0490
     27 O          -1.1210   -1.1290    0.0000 O.2     1  LIG1       -0.1842
     28 O          -2.8750   -0.1130    0.0000 O.2     1  LIG1       -0.1842
@<TRIPOS>BOND
     1     1     2    1
     2     1    20    1
     3     1    27    2
     4     1    28    2
     5     2     3    1
     6     3     4   ar
     7     3    18   ar
     8     4     5   ar
     9     5     6   ar
    10     5    19    1
    11     6     7   ar
    12     6    10   ar
    13     7     8   ar
    14     7    18   ar
    15     8     9   ar
    16     8    14    1
    17     9    10   ar
    18     9    11    1
    19    11    12    1
    20    12    13    1
    21    12    16    1
    22    12    17    1
    23    13    14    1
    24    14    15    2
    25    20    21   ar
    26    20    25   ar
    27    21    22   ar
    28    22    23   ar
    29    23    24   ar
    30    23    26    1
    31    24    25   ar
