@<TRIPOS>MOLECULE
27947_ChemDiv_4456-3667
 33 37 0 0 0
SMALL
GASTEIGER
Energy = 0

@<TRIPOS>ATOM
      1 S          -2.5960   -0.4830    0.0000 S.O2    1  LIG1       -0.0578
      2 N          -2.5670   -1.4960    0.0000 N.pl3   1  LIG1       -0.5358
      3 C          -1.6960   -2.0170    0.0000 C.ar    1  LIG1       -0.1121
      4 C          -0.8330   -1.4960    0.0000 C.ar    1  LIG1       -0.0206
      5 C           0.0420   -1.9830    0.0000 C.ar    1  LIG1        0.0381
      6 C           1.0040   -1.6830    0.0000 C.ar    1  LIG1        0.0678
      7 C           1.5670   -2.4670    0.0000 C.ar    1  LIG1        0.1255
      8 O           1.0040   -3.2710    0.0000 O.2     1  LIG1       -0.4577
      9 C           0.0420   -2.9710    0.0000 C.ar    1  LIG1        0.1447
     10 C          -0.7960   -3.4830    0.0000 C.ar    1  LIG1        0.0328
     11 C          -1.6670   -2.9960    0.0000 C.ar    1  LIG1       -0.0192
     12 C          -2.5420   -3.5170    0.0000 C.ar    1  LIG1       -0.0017
     13 C          -2.5080   -4.4960    0.0000 C.ar    1  LIG1       -0.0001
     14 C          -1.6670   -4.9830    0.0000 C.ar    1  LIG1        0.0001
     15 C          -0.7960   -4.4710    0.0000 C.ar    1  LIG1        0.0030
     16 C           2.5630   -2.3710    0.0000 C.3     1  LIG1        0.0650
     17 C           2.9880   -1.4380    0.0000 C.3     1  LIG1        0.0144
     18 C           2.3880   -0.5960    0.0000 C.3     1  LIG1        0.0697
     19 C           1.3920   -0.7460    0.0000 C.2     1  LIG1        0.1758
     20 O           0.7630    0.0630    0.0000 O.2     1  LIG1       -0.2912
     21 C           3.5880   -0.6630    0.0000 C.3     1  LIG1        0.0009
     22 C           3.4380   -2.3420    0.0000 C.3     1  LIG1        0.0009
     23 C          -2.5960    0.5130    0.0000 C.ar    1  LIG1        0.0895
     24 C          -1.7580    1.0170    0.0000 C.ar    1  LIG1        0.0200
     25 C          -1.7580    2.0380    0.0000 C.ar    1  LIG1        0.0382
     26 C          -2.6330    2.4880    0.0000 C.ar    1  LIG1        0.1386
     27 C          -3.4960    2.0130    0.0000 C.ar    1  LIG1        0.0382
     28 C          -3.4670    1.0170    0.0000 C.ar    1  LIG1        0.0200
     29 O          -2.6330    3.5130    0.0000 O.3     1  LIG1       -0.4755
     30 C          -1.7580    4.0000    0.0000 C.3     1  LIG1        0.2055
     31 C          -1.7330    4.9830    0.0000 C.3     1  LIG1        0.0512
     32 O          -1.5830   -0.4830    0.0000 O.2     1  LIG1       -0.1842
     33 O          -3.5920   -0.5130    0.0000 O.2     1  LIG1       -0.1842
@<TRIPOS>BOND
     1     1     2    1
     2     1    23    1
     3     1    32    2
     4     1    33    2
     5     2     3    1
     6     3     4   ar
     7     3    11   ar
     8     4     5   ar
     9     5     6   ar
    10     5     9   ar
    11     6     7   ar
    12     6    19    1
    13     7     8   ar
    14     7    16    1
    15     8     9   ar
    16     9    10   ar
    17    10    11   ar
    18    10    15   ar
    19    11    12   ar
    20    12    13   ar
    21    13    14   ar
    22    14    15   ar
    23    16    17    1
    24    17    18    1
    25    17    21    1
    26    17    22    1
    27    18    19    1
    28    19    20    2
    29    23    24   ar
    30    23    28   ar
    31    24    25   ar
    32    25    26   ar
    33    26    27   ar
    34    26    29    1
    35    27    28   ar
    36    29    30    1
    37    30    31    1
