@<TRIPOS>MOLECULE
27940_ChemDiv_E542-1224
 33 36 0 0 0
SMALL
GASTEIGER
Energy = 0

@<TRIPOS>ATOM
      1 N          -1.6750   -2.7920    0.0000 N.ar    1  LIG1       -0.3220
      2 C          -1.0750   -1.9750    0.0000 C.ar    1  LIG1        0.0718
      3 C          -1.6750   -1.1670    0.0000 C.ar    1  LIG1       -0.0031
      4 C          -2.6290   -1.4750    0.0000 C.ar    1  LIG1        0.0133
      5 C          -2.6290   -2.4830    0.0000 C.ar    1  LIG1        0.0599
      6 C          -3.4920   -2.9830    0.0000 C.ar    1  LIG1        0.0172
      7 C          -4.3540   -2.4830    0.0000 C.ar    1  LIG1        0.0015
      8 C          -4.3540   -1.4830    0.0000 C.ar    1  LIG1        0.0001
      9 C          -3.4920   -0.9750    0.0000 C.ar    1  LIG1        0.0012
     10 C          -1.3710   -0.2170    0.0000 C.3     1  LIG1        0.0375
     11 C          -0.3920   -0.0040    0.0000 C.3     1  LIG1        0.0915
     12 C          -0.0920    0.9380    0.0000 C.2     1  LIG1        0.2417
     13 N           0.8830    1.1580    0.0000 N.am    1  LIG1       -0.2071
     14 C           1.1880    2.1080    0.0000 C.3     1  LIG1        0.0987
     15 C           2.1540    2.3040    0.0000 C.3     1  LIG1        0.0433
     16 C           2.4670    3.2750    0.0000 C.3     1  LIG1        0.0985
     17 N           1.7920    4.0000    0.0000 N.am    1  LIG1       -0.2459
     18 C           2.0880    4.9500    0.0000 C.2     1  LIG1        0.4049
     19 O           1.4130    5.6920    0.0000 O.2     1  LIG1       -0.2262
     20 O           3.0630    5.1630    0.0000 O.3     1  LIG1       -0.4345
     21 C           3.3750    6.1170    0.0000 C.3     1  LIG1        0.2102
     22 C           4.3500    6.3290    0.0000 C.3     1  LIG1        0.0513
     23 C           0.8080    3.7880    0.0000 C.3     1  LIG1        0.0985
     24 C           0.5040    2.8330    0.0000 C.3     1  LIG1        0.0433
     25 O          -0.7670    1.6790    0.0000 O.2     1  LIG1       -0.2733
     26 C          -1.3580   -3.7460    0.0000 C.3     1  LIG1        0.1336
     27 C          -1.8630   -4.6080    0.0000 C.ar    1  LIG1        0.0110
     28 C          -2.8710   -4.5920    0.0000 C.ar    1  LIG1        0.0555
     29 CL         -3.3540   -3.7250    0.0000 Cl      1  LIG1       -0.0825
     30 C          -3.3710   -5.4540    0.0000 C.ar    1  LIG1        0.0111
     31 C          -2.8750   -6.3170    0.0000 C.ar    1  LIG1        0.0008
     32 C          -1.8710   -6.3290    0.0000 C.ar    1  LIG1       -0.0002
     33 C          -1.3710   -5.4670    0.0000 C.ar    1  LIG1       -0.0016
@<TRIPOS>BOND
     1     1     2   ar
     2     1     5   ar
     3     1    26    1
     4     2     3   ar
     5     3     4   ar
     6     3    10    1
     7     4     5   ar
     8     4     9   ar
     9     5     6   ar
    10     6     7   ar
    11     7     8   ar
    12     8     9   ar
    13    10    11    1
    14    11    12    1
    15    12    13   am
    16    12    25    2
    17    13    14    1
    18    14    15    1
    19    14    24    1
    20    15    16    1
    21    16    17    1
    22    17    18   am
    23    17    23    1
    24    18    19    2
    25    18    20    1
    26    20    21    1
    27    21    22    1
    28    23    24    1
    29    26    27    1
    30    27    28   ar
    31    27    33   ar
    32    28    29    1
    33    28    30   ar
    34    30    31   ar
    35    31    32   ar
    36    32    33   ar
