@<TRIPOS>MOLECULE
27944_ChemDiv_E542-2697
 25 28 0 0 0
SMALL
GASTEIGER
Energy = 0

@<TRIPOS>ATOM
      1 N          -0.4630   -1.1630    0.0000 N.ar    1  LIG1       -0.3221
      2 C           0.1380   -0.3460    0.0000 C.ar    1  LIG1        0.0718
      3 C          -0.4630    0.4630    0.0000 C.ar    1  LIG1       -0.0031
      4 C          -1.4170    0.1540    0.0000 C.ar    1  LIG1        0.0133
      5 C          -1.4170   -0.8540    0.0000 C.ar    1  LIG1        0.0599
      6 C          -2.2790   -1.3540    0.0000 C.ar    1  LIG1        0.0172
      7 C          -3.1420   -0.8540    0.0000 C.ar    1  LIG1        0.0015
      8 C          -3.1420    0.1420    0.0000 C.ar    1  LIG1        0.0001
      9 C          -2.2790    0.6540    0.0000 C.ar    1  LIG1        0.0012
     10 C          -0.1580    1.4080    0.0000 C.3     1  LIG1        0.0375
     11 C           0.8210    1.6210    0.0000 C.3     1  LIG1        0.0915
     12 C           1.1250    2.5670    0.0000 C.2     1  LIG1        0.2417
     13 N           2.0960    2.7880    0.0000 N.am    1  LIG1       -0.2072
     14 C           2.4000    3.7170    0.0000 C.3     1  LIG1        0.0954
     15 C           2.1880    4.7000    0.0000 C.3     1  LIG1        0.0234
     16 C           3.1380    4.3960    0.0000 C.3     1  LIG1        0.0234
     17 O           0.4460    3.3080    0.0000 O.2     1  LIG1       -0.2733
     18 C          -0.1420   -2.1170    0.0000 C.3     1  LIG1        0.1324
     19 C          -0.6460   -2.9790    0.0000 C.ar    1  LIG1       -0.0036
     20 C          -0.1580   -3.8380    0.0000 C.ar    1  LIG1       -0.0240
     21 C           0.8420   -3.8420    0.0000 C.3     1  LIG1        0.0308
     22 C          -0.6580   -4.7000    0.0000 C.ar    1  LIG1       -0.0045
     23 C          -1.6630   -4.6920    0.0000 C.ar    1  LIG1       -0.0003
     24 C          -2.1580   -3.8290    0.0000 C.ar    1  LIG1       -0.0003
     25 C          -1.6580   -2.9670    0.0000 C.ar    1  LIG1       -0.0027
@<TRIPOS>BOND
     1     1     2   ar
     2     1     5   ar
     3     1    18    1
     4     2     3   ar
     5     3     4   ar
     6     3    10    1
     7     4     5   ar
     8     4     9   ar
     9     5     6   ar
    10     6     7   ar
    11     7     8   ar
    12     8     9   ar
    13    10    11    1
    14    11    12    1
    15    12    13   am
    16    12    17    2
    17    13    14    1
    18    14    15    1
    19    14    16    1
    20    15    16    1
    21    18    19    1
    22    19    20   ar
    23    19    25   ar
    24    20    21    1
    25    20    22   ar
    26    22    23   ar
    27    23    24   ar
    28    24    25   ar
