@<TRIPOS>MOLECULE
27946_ChemDiv_K786-3185
 31 34 0 0 0
SMALL
GASTEIGER
Energy = 0

@<TRIPOS>ATOM
      1 N          -2.8630   -1.7170    0.0000 N.ar    1  LIG1       -0.3221
      2 C          -2.2630   -0.8960    0.0000 C.ar    1  LIG1        0.0718
      3 C          -2.8630   -0.0750    0.0000 C.ar    1  LIG1       -0.0031
      4 C          -3.8170   -0.3960    0.0000 C.ar    1  LIG1        0.0133
      5 C          -3.8170   -1.3960    0.0000 C.ar    1  LIG1        0.0599
      6 C          -4.6920   -1.8960    0.0000 C.ar    1  LIG1        0.0172
      7 C          -5.5580   -1.3960    0.0000 C.ar    1  LIG1        0.0015
      8 C          -5.5580   -0.3960    0.0000 C.ar    1  LIG1        0.0001
      9 C          -4.6920    0.1040    0.0000 C.ar    1  LIG1        0.0012
     10 C          -2.5500    0.8710    0.0000 C.3     1  LIG1        0.0375
     11 C          -1.5790    1.0790    0.0000 C.3     1  LIG1        0.0915
     12 C          -1.2750    2.0330    0.0000 C.2     1  LIG1        0.2420
     13 N          -0.3040    2.2460    0.0000 N.am    1  LIG1       -0.2005
     14 C           0.3710    1.5080    0.0000 C.3     1  LIG1        0.1415
     15 C           1.3500    1.7210    0.0000 C.ar    1  LIG1       -0.0004
     16 C           2.0170    0.9880    0.0000 C.ar    1  LIG1        0.0006
     17 C           2.9880    1.2000    0.0000 C.ar    1  LIG1        0.0366
     18 C           3.2920    2.1460    0.0000 C.ar    1  LIG1        0.1385
     19 C           2.6170    2.8830    0.0000 C.ar    1  LIG1        0.0366
     20 C           1.6460    2.6710    0.0000 C.ar    1  LIG1        0.0006
     21 O           4.2750    2.3580    0.0000 O.3     1  LIG1       -0.4755
     22 C           4.5750    3.3130    0.0000 C.3     1  LIG1        0.2055
     23 C           5.5540    3.5250    0.0000 C.3     1  LIG1        0.0512
     24 O          -1.9500    2.7750    0.0000 O.2     1  LIG1       -0.2733
     25 C          -2.5500   -2.6670    0.0000 C.3     1  LIG1        0.1327
     26 C          -1.5500   -2.6670    0.0000 C.ar    1  LIG1        0.0004
     27 C          -1.0540   -3.5210    0.0000 C.ar    1  LIG1       -0.0024
     28 C          -0.0630   -3.5210    0.0000 C.ar    1  LIG1       -0.0003
     29 C           0.4380   -2.6580    0.0000 C.ar    1  LIG1       -0.0000
     30 C          -0.0670   -1.7920    0.0000 C.ar    1  LIG1       -0.0003
     31 C          -1.0670   -1.8080    0.0000 C.ar    1  LIG1       -0.0024
@<TRIPOS>BOND
     1     1     2   ar
     2     1     5   ar
     3     1    25    1
     4     2     3   ar
     5     3     4   ar
     6     3    10    1
     7     4     5   ar
     8     4     9   ar
     9     5     6   ar
    10     6     7   ar
    11     7     8   ar
    12     8     9   ar
    13    10    11    1
    14    11    12    1
    15    12    13   am
    16    12    24    2
    17    13    14    1
    18    14    15    1
    19    15    16   ar
    20    15    20   ar
    21    16    17   ar
    22    17    18   ar
    23    18    19   ar
    24    18    21    1
    25    19    20   ar
    26    21    22    1
    27    22    23    1
    28    25    26    1
    29    26    27   ar
    30    26    31   ar
    31    27    28   ar
    32    28    29   ar
    33    29    30   ar
    34    30    31   ar
