@<TRIPOS>MOLECULE
27949_ChemDiv_5591-2947
 27 30 0 0 0
SMALL
GASTEIGER
Energy = 0

@<TRIPOS>ATOM
      1 S          -1.6920   -0.2960    0.0000 S.O2    1  LIG1        0.0823
      2 N          -1.1920    0.5710    0.0000 N.am    1  LIG1       -0.1376
      3 C          -0.1960    0.5710    0.0000 C.ar    1  LIG1        0.0767
      4 C           0.3040    1.4330    0.0000 C.ar    1  LIG1        0.0194
      5 C           1.3000    1.4330    0.0000 C.ar    1  LIG1        0.0345
      6 C           1.9790    2.1830    0.0000 C.ar    1  LIG1        0.0111
      7 C           2.8830    1.7750    0.0000 C.ar    1  LIG1        0.1188
      8 O           2.7790    0.7830    0.0000 O.2     1  LIG1       -0.4581
      9 C           1.8000    0.5710    0.0000 C.ar    1  LIG1        0.1446
     10 C           1.3000   -0.2960    0.0000 C.ar    1  LIG1        0.0388
     11 C           0.3040   -0.2960    0.0000 C.ar    1  LIG1        0.0198
     12 C           3.6960    2.3540    0.0000 C.3     1  LIG1        0.0642
     13 C           3.5960    3.3500    0.0000 C.3     1  LIG1        0.0083
     14 C           2.6920    3.7580    0.0000 C.3     1  LIG1        0.0052
     15 C           1.8750    3.1790    0.0000 C.3     1  LIG1        0.0292
     16 C          -1.6920    1.4330    0.0000 C.2     1  LIG1        0.2485
     17 O          -2.6960    1.4330    0.0000 O.2     1  LIG1       -0.2729
     18 C          -1.1920    2.3040    0.0000 C.3     1  LIG1        0.0968
     19 C          -2.1960   -1.1670    0.0000 C.ar    1  LIG1        0.1260
     20 C          -3.2040   -1.1670    0.0000 C.ar    1  LIG1        0.0225
     21 C          -3.7000   -2.0290    0.0000 C.ar    1  LIG1        0.0310
     22 C          -3.2040   -2.8960    0.0000 C.ar    1  LIG1        0.1402
     23 C          -2.1960   -2.8960    0.0000 C.ar    1  LIG1        0.0310
     24 C          -1.6960   -2.0290    0.0000 C.ar    1  LIG1        0.0225
     25 F          -3.7000   -3.7540    0.0000 F       1  LIG1       -0.2042
     26 O          -2.5670    0.2080    0.0000 O.2     1  LIG1       -0.1493
     27 O          -0.8290   -0.7960    0.0000 O.2     1  LIG1       -0.1493
@<TRIPOS>BOND
     1     1     2    1
     2     1    19    1
     3     1    26    2
     4     1    27    2
     5     2     3    1
     6     2    16   am
     7     3     4   ar
     8     3    11   ar
     9     4     5   ar
    10     5     6   ar
    11     5     9   ar
    12     6     7   ar
    13     6    15    1
    14     7     8   ar
    15     7    12    1
    16     8     9   ar
    17     9    10   ar
    18    10    11   ar
    19    12    13    1
    20    13    14    1
    21    14    15    1
    22    16    17    2
    23    16    18    1
    24    19    20   ar
    25    19    24   ar
    26    20    21   ar
    27    21    22   ar
    28    22    23   ar
    29    22    25    1
    30    23    24   ar
