@<TRIPOS>MOLECULE
27945_ChemDiv_4456-1146
 29 32 0 0 0
SMALL
GASTEIGER
Energy = 0

@<TRIPOS>ATOM
      1 S          -0.8130   -0.9670    0.0000 S.O2    1  LIG1       -0.0578
      2 N          -1.0210    0.0130    0.0000 N.pl3   1  LIG1       -0.5358
      3 C          -0.2710    0.6830    0.0000 C.ar    1  LIG1       -0.1121
      4 C          -0.4880    1.6380    0.0000 C.ar    1  LIG1       -0.0206
      5 C           0.2580    2.2920    0.0000 C.ar    1  LIG1        0.0381
      6 C           0.2580    3.3130    0.0000 C.ar    1  LIG1        0.0678
      7 C           1.2290    3.6250    0.0000 C.ar    1  LIG1        0.1255
      8 O           1.7960    2.8040    0.0000 O.2     1  LIG1       -0.4577
      9 C           1.2290    1.9920    0.0000 C.ar    1  LIG1        0.1448
     10 C           1.4330    1.0380    0.0000 C.ar    1  LIG1        0.0356
     11 C           0.7080    0.3830    0.0000 C.ar    1  LIG1       -0.0207
     12 C           1.4330    4.6000    0.0000 C.3     1  LIG1        0.0650
     13 C           0.7080    5.2540    0.0000 C.3     1  LIG1        0.0144
     14 C          -0.2710    4.9670    0.0000 C.3     1  LIG1        0.0697
     15 C          -0.4880    3.9790    0.0000 C.2     1  LIG1        0.1758
     16 O          -1.4460    3.7130    0.0000 O.2     1  LIG1       -0.2912
     17 C          -0.1880    5.6920    0.0000 C.3     1  LIG1        0.0009
     18 C           0.8960    6.2080    0.0000 C.3     1  LIG1        0.0009
     19 C          -0.6380   -1.9330    0.0000 C.ar    1  LIG1        0.0895
     20 C           0.3290   -2.2580    0.0000 C.ar    1  LIG1        0.0200
     21 C           0.5040   -3.2500    0.0000 C.ar    1  LIG1        0.0382
     22 C          -0.2130   -3.9040    0.0000 C.ar    1  LIG1        0.1386
     23 C          -1.1710   -3.5830    0.0000 C.ar    1  LIG1        0.0382
     24 C          -1.3880   -2.5880    0.0000 C.ar    1  LIG1        0.0200
     25 O           0.0000   -4.9000    0.0000 O.3     1  LIG1       -0.4755
     26 C           0.9290   -5.2290    0.0000 C.3     1  LIG1        0.2055
     27 C           1.1040   -6.2080    0.0000 C.3     1  LIG1        0.0512
     28 O          -1.8000   -1.1540    0.0000 O.2     1  LIG1       -0.1842
     29 O           0.1790   -0.7580    0.0000 O.2     1  LIG1       -0.1842
@<TRIPOS>BOND
     1     1     2    1
     2     1    19    1
     3     1    28    2
     4     1    29    2
     5     2     3    1
     6     3     4   ar
     7     3    11   ar
     8     4     5   ar
     9     5     6   ar
    10     5     9   ar
    11     6     7   ar
    12     6    15    1
    13     7     8   ar
    14     7    12    1
    15     8     9   ar
    16     9    10   ar
    17    10    11   ar
    18    12    13    1
    19    13    14    1
    20    13    17    1
    21    13    18    1
    22    14    15    1
    23    15    16    2
    24    19    20   ar
    25    19    24   ar
    26    20    21   ar
    27    21    22   ar
    28    22    23   ar
    29    22    25    1
    30    23    24   ar
    31    25    26    1
    32    26    27    1
