@<TRIPOS>MOLECULE
27959_ChemDiv_C306-0488
 23 24 0 0 0
SMALL
GASTEIGER
Energy = 0

@<TRIPOS>ATOM
      1 C          -0.8920   -1.7460    0.0000 C.ar    1  LIG1        0.0919
      2 C          -0.8920   -2.7500    0.0000 C.ar    1  LIG1        0.2853
      3 N          -1.7630   -3.2500    0.0000 N.ar    1  LIG1       -0.2069
      4 C          -2.6250   -2.7460    0.0000 C.ar    1  LIG1        0.0905
      5 C          -2.6250   -1.7460    0.0000 C.ar    1  LIG1        0.0473
      6 S          -1.7630   -1.2380    0.0000 S.2     1  LIG1       -0.0805
      7 C          -3.4880   -1.2460    0.0000 C.ar    1  LIG1        0.0080
      8 C          -4.3500   -1.7460    0.0000 C.ar    1  LIG1        0.0006
      9 C          -4.3500   -2.7500    0.0000 C.ar    1  LIG1        0.0016
     10 C          -3.4880   -3.2500    0.0000 C.ar    1  LIG1        0.0197
     11 O          -0.0290   -3.2500    0.0000 O.2     1  LIG1       -0.2646
     12 C          -0.0210   -1.2500    0.0000 C.2     1  LIG1        0.0708
     13 C          -0.0210   -0.2540    0.0000 C.2     1  LIG1        0.2656
     14 O          -0.8830    0.2500    0.0000 O.2     1  LIG1       -0.2683
     15 N           0.8420    0.2460    0.0000 N.am    1  LIG1       -0.2014
     16 C           0.8500    1.2420    0.0000 C.3     1  LIG1        0.1216
     17 C           1.7290    1.7420    0.0000 C.3     1  LIG1        0.0861
     18 C           2.5960    1.2500    0.0000 C.3     1  LIG1        0.1404
     19 N           3.4420    1.7710    0.0000 N.4     1  LIG1        0.3773
     20 C           3.4380    2.7710    0.0000 C.3     1  LIG1        0.1388
     21 C           2.5670    3.2540    0.0000 C.3     1  LIG1        0.0688
     22 C           4.3330    1.2790    0.0000 C.3     1  LIG1        0.1388
     23 C           4.3460    0.2920    0.0000 C.3     1  LIG1        0.0688
@<TRIPOS>BOND
     1     1     2   ar
     2     1     6   ar
     3     1    12    2
     4     2     3   ar
     5     2    11    2
     6     3     4   ar
     7     4     5   ar
     8     4    10   ar
     9     5     6   ar
    10     5     7   ar
    11     7     8   ar
    12     8     9   ar
    13     9    10   ar
    14    12    13    1
    15    13    14    2
    16    13    15   am
    17    15    16    1
    18    16    17    1
    19    17    18    1
    20    18    19    1
    21    19    20    1
    22    19    22    1
    23    20    21    1
    24    22    23    1
