@<TRIPOS>MOLECULE
27951_ChemDiv_5591-2982
 29 32 0 0 0
SMALL
GASTEIGER
Energy = 0

@<TRIPOS>ATOM
      1 S          -0.9500   -0.3000    0.0000 S.O2    1  LIG1        0.0823
      2 N          -0.4540    0.5670    0.0000 N.am    1  LIG1       -0.1376
      3 C           0.5460    0.5670    0.0000 C.ar    1  LIG1        0.0767
      4 C           1.0420    1.4290    0.0000 C.ar    1  LIG1        0.0194
      5 C           2.0500    1.4290    0.0000 C.ar    1  LIG1        0.0345
      6 C           2.7210    2.1790    0.0000 C.ar    1  LIG1        0.0111
      7 C           3.6290    1.7710    0.0000 C.ar    1  LIG1        0.1188
      8 O           3.5210    0.7790    0.0000 O.2     1  LIG1       -0.4581
      9 C           2.5500    0.5670    0.0000 C.ar    1  LIG1        0.1446
     10 C           2.0500   -0.3000    0.0000 C.ar    1  LIG1        0.0388
     11 C           1.0420   -0.3000    0.0000 C.ar    1  LIG1        0.0198
     12 C           4.4420    2.3500    0.0000 C.3     1  LIG1        0.0642
     13 C           4.3460    3.3460    0.0000 C.3     1  LIG1        0.0083
     14 C           3.4290    3.7670    0.0000 C.3     1  LIG1        0.0052
     15 C           2.6250    3.1750    0.0000 C.3     1  LIG1        0.0292
     16 C          -0.9500    1.4290    0.0000 C.2     1  LIG1        0.2485
     17 O          -1.9500    1.4290    0.0000 O.2     1  LIG1       -0.2729
     18 C          -0.4540    2.3000    0.0000 C.3     1  LIG1        0.0968
     19 C          -1.4500   -1.1710    0.0000 C.ar    1  LIG1        0.1260
     20 C          -2.4540   -1.1710    0.0000 C.ar    1  LIG1        0.0233
     21 C          -2.9500   -2.0330    0.0000 C.ar    1  LIG1        0.0383
     22 C          -2.4540   -2.9000    0.0000 C.ar    1  LIG1        0.1386
     23 C          -1.4500   -2.9000    0.0000 C.ar    1  LIG1        0.0383
     24 C          -0.9500   -2.0330    0.0000 C.ar    1  LIG1        0.0233
     25 O          -2.9500   -3.7630    0.0000 O.3     1  LIG1       -0.4755
     26 C          -3.9500   -3.7630    0.0000 C.3     1  LIG1        0.2055
     27 C          -4.4460   -2.9000    0.0000 C.3     1  LIG1        0.0512
     28 O          -1.8170    0.2040    0.0000 O.2     1  LIG1       -0.1493
     29 O          -0.0750   -0.8000    0.0000 O.2     1  LIG1       -0.1493
@<TRIPOS>BOND
     1     1     2    1
     2     1    19    1
     3     1    28    2
     4     1    29    2
     5     2     3    1
     6     2    16   am
     7     3     4   ar
     8     3    11   ar
     9     4     5   ar
    10     5     6   ar
    11     5     9   ar
    12     6     7   ar
    13     6    15    1
    14     7     8   ar
    15     7    12    1
    16     8     9   ar
    17     9    10   ar
    18    10    11   ar
    19    12    13    1
    20    13    14    1
    21    14    15    1
    22    16    17    2
    23    16    18    1
    24    19    20   ar
    25    19    24   ar
    26    20    21   ar
    27    21    22   ar
    28    22    23   ar
    29    22    25    1
    30    23    24   ar
    31    25    26    1
    32    26    27    1
