@<TRIPOS>MOLECULE
27955_ChemDiv_6173-0271
 29 31 0 0 0
SMALL
GASTEIGER
Energy = 0

@<TRIPOS>ATOM
      1 N          -0.1460    3.9080    0.0000 N.am    1  LIG1       -0.1780
      2 C           0.8460    3.3290    0.0000 C.2     1  LIG1        0.2561
      3 C           0.8460    2.1920    0.0000 C.3     1  LIG1        0.1392
      4 S          -0.1460    1.6170    0.0000 S.3     1  LIG1       -0.1034
      5 C          -1.1330    2.1830    0.0000 C.ar    1  LIG1        0.0410
      6 C          -1.1330    3.3210    0.0000 C.ar    1  LIG1        0.0790
      7 C          -2.1170    3.8920    0.0000 C.ar    1  LIG1        0.0171
      8 C          -3.1080    3.3210    0.0000 C.ar    1  LIG1        0.0014
      9 C          -3.1080    2.1750    0.0000 C.ar    1  LIG1        0.0006
     10 C          -2.1170    1.6040    0.0000 C.ar    1  LIG1        0.0075
     11 C           1.8330    1.6170    0.0000 C.3     1  LIG1        0.1075
     12 C           1.8330    0.4790    0.0000 C.2     1  LIG1        0.2469
     13 N           0.8500   -0.0830    0.0000 N.am    1  LIG1       -0.1792
     14 C           0.8580   -0.9420    0.0000 C.ar    1  LIG1        0.0738
     15 C           0.1330   -1.3710    0.0000 C.ar    1  LIG1        0.0230
     16 C           0.1500   -2.2170    0.0000 C.ar    1  LIG1        0.0771
     17 C          -0.5750   -2.6540    0.0000 C.2     1  LIG1        0.3414
     18 O          -0.5580   -3.5080    0.0000 O.2     1  LIG1       -0.2449
     19 O          -1.3170   -2.2500    0.0000 O.3     1  LIG1       -0.4413
     20 C          -2.0380   -2.6880    0.0000 C.3     1  LIG1        0.2560
     21 C           0.8960   -2.6330    0.0000 C.ar    1  LIG1        0.0130
     22 C           1.6250   -2.1880    0.0000 C.ar    1  LIG1        0.0771
     23 C           2.3790   -2.6080    0.0000 C.2     1  LIG1        0.3414
     24 O           3.1040   -2.1670    0.0000 O.2     1  LIG1       -0.2449
     25 O           2.3920   -3.4630    0.0000 O.3     1  LIG1       -0.4413
     26 C           1.6630   -3.9040    0.0000 C.3     1  LIG1        0.2560
     27 C           1.6080   -1.3460    0.0000 C.ar    1  LIG1        0.0230
     28 O           2.8250   -0.0830    0.0000 O.2     1  LIG1       -0.2729
     29 O           1.8170    3.8960    0.0000 O.2     1  LIG1       -0.2720
@<TRIPOS>BOND
     1     1     2   am
     2     1     6    1
     3     2     3    1
     4     2    29    2
     5     3     4    1
     6     3    11    1
     7     4     5    1
     8     5     6   ar
     9     5    10   ar
    10     6     7   ar
    11     7     8   ar
    12     8     9   ar
    13     9    10   ar
    14    11    12    1
    15    12    13   am
    16    12    28    2
    17    13    14    1
    18    14    15   ar
    19    14    27   ar
    20    15    16   ar
    21    16    17    1
    22    16    21   ar
    23    17    18    2
    24    17    19    1
    25    19    20    1
    26    21    22   ar
    27    22    23    1
    28    22    27   ar
    29    23    24    2
    30    23    25    1
    31    25    26    1
