@<TRIPOS>MOLECULE
27957_ChemDiv_8012-0971
 12 13 0 0 0
SMALL
GASTEIGER
Energy = 0

@<TRIPOS>ATOM
      1 N           0.8710    0.9920    0.0000 N.am    1  LIG1       -0.1779
      2 C          -0.0040    0.4960    0.0000 C.ar    1  LIG1        0.0804
      3 C          -0.0040   -0.4920    0.0000 C.ar    1  LIG1        0.0411
      4 S           0.8710   -0.9880    0.0000 S.3     1  LIG1       -0.1025
      5 C           1.7460   -0.4920    0.0000 C.3     1  LIG1        0.1491
      6 C           1.7460    0.4960    0.0000 C.2     1  LIG1        0.2569
      7 O           2.6130    0.9830    0.0000 O.2     1  LIG1       -0.2720
      8 C          -0.8750   -0.9880    0.0000 C.ar    1  LIG1        0.0088
      9 C          -1.7500   -0.4920    0.0000 C.ar    1  LIG1        0.0186
     10 C          -1.7500    0.4960    0.0000 C.ar    1  LIG1        0.0904
     11 C          -0.8750    0.9920    0.0000 C.ar    1  LIG1        0.0351
     12 N          -2.6170    0.9830    0.0000 N.pl3   1  LIG1       -0.1280
@<TRIPOS>BOND
     1     1     2    1
     2     1     6   am
     3     2     3   ar
     4     2    11   ar
     5     3     4    1
     6     3     8   ar
     7     4     5    1
     8     5     6    1
     9     6     7    2
    10     8     9   ar
    11     9    10   ar
    12    10    11   ar
    13    10    12    1
