@<TRIPOS>MOLECULE
27950_ChemDiv_2422-1273
 17 19 0 0 0
SMALL
GASTEIGER
Energy = 0

@<TRIPOS>ATOM
      1 N           0.9670    0.3080    0.0000 N.ar    1  LIG1       -0.1649
      2 C           1.5500   -0.5210    0.0000 C.ar    1  LIG1        0.2345
      3 S           0.9670   -1.3080    0.0000 S.2     1  LIG1       -0.0182
      4 C           0.0380   -1.0250    0.0000 C.ar    1  LIG1        0.0937
      5 C           0.0380   -0.0130    0.0000 C.ar    1  LIG1        0.2322
      6 C          -0.8290    0.4880    0.0000 C.ar    1  LIG1        0.0694
      7 C          -1.6830   -0.0130    0.0000 C.ar    1  LIG1        0.0016
      8 C          -1.6830   -0.9790    0.0000 C.ar    1  LIG1       -0.0253
      9 C          -0.8290   -1.4880    0.0000 C.ar    1  LIG1       -0.0142
     10 C          -0.8290   -2.4960    0.0000 C.3     1  LIG1        0.0268
     11 C          -1.6830   -3.0000    0.0000 C.3     1  LIG1        0.0050
     12 C          -2.5580   -2.4960    0.0000 C.3     1  LIG1        0.0050
     13 C          -2.5580   -1.4880    0.0000 C.3     1  LIG1        0.0261
     14 C           2.5540   -0.5210    0.0000 C.3     1  LIG1        0.1159
     15 C           1.3250    1.2750    0.0000 C.3     1  LIG1        0.3582
     16 C           0.6540    2.0750    0.0000 C.3     1  LIG1        0.2668
     17 O           1.0130    3.0040    0.0000 O.3     1  LIG1       -0.2125
@<TRIPOS>BOND
     1     1     2   ar
     2     1     5   ar
     3     1    15    1
     4     2     3   ar
     5     2    14    1
     6     3     4   ar
     7     4     5   ar
     8     4     9   ar
     9     5     6   ar
    10     6     7   ar
    11     7     8   ar
    12     8     9   ar
    13     8    13    1
    14     9    10    1
    15    10    11    1
    16    11    12    1
    17    12    13    1
    18    15    16    1
    19    16    17    1
