@<TRIPOS>MOLECULE
27965_ChemDiv_E628-1056
 23 25 0 0 0
SMALL
GASTEIGER
Energy = 0

@<TRIPOS>ATOM
      1 N          -0.0130    0.7420    0.0000 N.am    1  LIG1       -0.2403
      2 C          -0.0130   -0.2580    0.0000 C.2     1  LIG1        0.3312
      3 N           0.8580   -0.7580    0.0000 N.am    1  LIG1       -0.1622
      4 C           0.8580   -1.7540    0.0000 C.ar    1  LIG1        0.0709
      5 C           1.7170   -2.2540    0.0000 C.ar    1  LIG1       -0.0068
      6 C           2.5960   -1.7540    0.0000 C.3     1  LIG1        0.0277
      7 C           2.5960   -0.7380    0.0000 C.3     1  LIG1        0.0051
      8 C           1.6960   -3.2540    0.0000 C.ar    1  LIG1       -0.0030
      9 C           0.8460   -3.7540    0.0000 C.ar    1  LIG1       -0.0002
     10 C          -0.0130   -3.2540    0.0000 C.ar    1  LIG1        0.0013
     11 C          -0.0130   -2.2540    0.0000 C.ar    1  LIG1        0.0163
     12 O          -0.8790   -0.7580    0.0000 O.2     1  LIG1       -0.2501
     13 C          -0.8790    1.2420    0.0000 C.ar    1  LIG1        0.0610
     14 C          -0.8790    2.2380    0.0000 C.ar    1  LIG1        0.0390
     15 S          -0.0130    2.7380    0.0000 S.3     1  LIG1       -0.1115
     16 C           0.8580    2.2380    0.0000 C.3     1  LIG1        0.0722
     17 C           0.8580    1.2420    0.0000 C.3     1  LIG1        0.1109
     18 C           1.7250    2.7380    0.0000 C.3     1  LIG1        0.0129
     19 C           1.7460    3.7580    0.0000 C.3     1  LIG1        0.0010
     20 C          -1.7290    2.7380    0.0000 C.ar    1  LIG1        0.0074
     21 C          -2.6000    2.2380    0.0000 C.ar    1  LIG1        0.0006
     22 C          -2.6000    1.2420    0.0000 C.ar    1  LIG1        0.0013
     23 C          -1.7290    0.7420    0.0000 C.ar    1  LIG1        0.0154
@<TRIPOS>BOND
     1     1     2   am
     2     1    13    1
     3     1    17    1
     4     2     3   am
     5     2    12    2
     6     3     4    1
     7     4     5   ar
     8     4    11   ar
     9     5     6    1
    10     5     8   ar
    11     6     7    1
    12     8     9   ar
    13     9    10   ar
    14    10    11   ar
    15    13    14   ar
    16    13    23   ar
    17    14    15    1
    18    14    20   ar
    19    15    16    1
    20    16    17    1
    21    16    18    1
    22    18    19    1
    23    20    21   ar
    24    21    22   ar
    25    22    23   ar
