@<TRIPOS>MOLECULE
27967_ChemDiv_K783-5171
 15 16 0 0 0
SMALL
GASTEIGER
Energy = 0

@<TRIPOS>ATOM
      1 C           0.8790    0.2380    0.0000 C.ar    1  LIG1        0.0884
      2 C           0.8790    1.2500    0.0000 C.ar    1  LIG1        0.2852
      3 N           0.0040    1.7540    0.0000 N.ar    1  LIG1       -0.2069
      4 C          -0.8630    1.2500    0.0000 C.ar    1  LIG1        0.0905
      5 C          -0.8710    0.2380    0.0000 C.ar    1  LIG1        0.0473
      6 S           0.0000   -0.2580    0.0000 S.2     1  LIG1       -0.0806
      7 C          -1.7330   -0.2540    0.0000 C.ar    1  LIG1        0.0080
      8 C          -2.5960    0.2460    0.0000 C.ar    1  LIG1        0.0006
      9 C          -2.5960    1.2420    0.0000 C.ar    1  LIG1        0.0016
     10 C          -1.7330    1.7500    0.0000 C.ar    1  LIG1        0.0197
     11 O           1.7380    1.7500    0.0000 O.2     1  LIG1       -0.2646
     12 C           1.7380   -0.2580    0.0000 C.2     1  LIG1        0.0264
     13 C           1.7380   -1.2540    0.0000 C.2     1  LIG1        0.0736
     14 O           2.5920   -1.7500    0.0000 O.co2   1  LIG1       -0.5446
     15 O           0.8830   -1.7420    0.0000 O.co2   1  LIG1       -0.5446
@<TRIPOS>BOND
     1     1     2   ar
     2     1     6   ar
     3     1    12    2
     4     2     3   ar
     5     2    11    2
     6     3     4   ar
     7     4     5   ar
     8     4    10   ar
     9     5     6   ar
    10     5     7   ar
    11     7     8   ar
    12     8     9   ar
    13     9    10   ar
    14    12    13    1
    15    13    14   ar
    16    13    15   ar
