@<TRIPOS>MOLECULE
27961_ChemDiv_C791-0252
 26 28 0 0 0
SMALL
GASTEIGER
Energy = 0

@<TRIPOS>ATOM
      1 N          -4.4750   -0.4920    0.0000 N.am    1  LIG1       -0.2556
      2 C          -3.6080    0.0080    0.0000 C.ar    1  LIG1        0.0608
      3 C          -3.6080    1.0080    0.0000 C.ar    1  LIG1        0.0394
      4 S          -4.4750    1.5130    0.0000 S.3     1  LIG1       -0.1026
      5 C          -5.3330    1.0080    0.0000 C.3     1  LIG1        0.1475
      6 C          -5.3330    0.0040    0.0000 C.2     1  LIG1        0.2407
      7 O          -6.2000   -0.4960    0.0000 O.2     1  LIG1       -0.2736
      8 C          -2.7500    1.5080    0.0000 C.ar    1  LIG1        0.0087
      9 C          -1.8830    1.0210    0.0000 C.ar    1  LIG1        0.0172
     10 C          -1.8750    0.0080    0.0000 C.ar    1  LIG1        0.0763
     11 C          -2.7420   -0.4920    0.0000 C.ar    1  LIG1        0.0320
     12 N          -1.0080   -0.4920    0.0000 N.am    1  LIG1       -0.1606
     13 C          -0.0460   -0.2250    0.0000 C.2     1  LIG1        0.3477
     14 N           0.6710   -0.9210    0.0000 N.am    1  LIG1       -0.1607
     15 C           1.6380   -0.6500    0.0000 C.ar    1  LIG1        0.0751
     16 C           2.3420   -1.3500    0.0000 C.ar    1  LIG1        0.0180
     17 C           3.3080   -1.0920    0.0000 C.ar    1  LIG1        0.0179
     18 C           3.5580   -0.1170    0.0000 C.ar    1  LIG1        0.0734
     19 N           4.5250    0.1460    0.0000 N.am    1  LIG1       -0.1792
     20 C           5.2380   -0.5420    0.0000 C.2     1  LIG1        0.2461
     21 O           4.9880   -1.5080    0.0000 O.2     1  LIG1       -0.2730
     22 C           6.2000   -0.2830    0.0000 C.3     1  LIG1        0.0968
     23 C           2.8380    0.5830    0.0000 C.ar    1  LIG1        0.0179
     24 C           1.8790    0.3130    0.0000 C.ar    1  LIG1        0.0180
     25 O           0.2080    0.7500    0.0000 O.2     1  LIG1       -0.2484
     26 C          -4.4670   -1.4960    0.0000 C.3     1  LIG1        0.1201
@<TRIPOS>BOND
     1     1     2    1
     2     1     6   am
     3     1    26    1
     4     2     3   ar
     5     2    11   ar
     6     3     4    1
     7     3     8   ar
     8     4     5    1
     9     5     6    1
    10     6     7    2
    11     8     9   ar
    12     9    10   ar
    13    10    11   ar
    14    10    12    1
    15    12    13   am
    16    13    14   am
    17    13    25    2
    18    14    15    1
    19    15    16   ar
    20    15    24   ar
    21    16    17   ar
    22    17    18   ar
    23    18    19    1
    24    18    23   ar
    25    19    20   am
    26    20    21    2
    27    20    22    1
    28    23    24   ar
