@<TRIPOS>MOLECULE
27969_ChemDiv_5591-3019
 30 34 0 0 0
SMALL
GASTEIGER
Energy = 0

@<TRIPOS>ATOM
      1 S          -1.6920    0.1460    0.0000 S.O2    1  LIG1        0.0823
      2 N          -1.1920    1.0080    0.0000 N.am    1  LIG1       -0.1376
      3 C          -0.1960    1.0080    0.0000 C.ar    1  LIG1        0.0767
      4 C           0.3040    1.8710    0.0000 C.ar    1  LIG1        0.0194
      5 C           1.3000    1.8710    0.0000 C.ar    1  LIG1        0.0345
      6 C           1.9790    2.6130    0.0000 C.ar    1  LIG1        0.0111
      7 C           2.8830    2.2080    0.0000 C.ar    1  LIG1        0.1188
      8 O           2.7830    1.2210    0.0000 O.2     1  LIG1       -0.4581
      9 C           1.8000    1.0080    0.0000 C.ar    1  LIG1        0.1446
     10 C           1.3000    0.1460    0.0000 C.ar    1  LIG1        0.0388
     11 C           0.3040    0.1460    0.0000 C.ar    1  LIG1        0.0198
     12 C           3.7000    2.7920    0.0000 C.3     1  LIG1        0.0642
     13 C           3.6000    3.7880    0.0000 C.3     1  LIG1        0.0083
     14 C           2.6920    4.1920    0.0000 C.3     1  LIG1        0.0052
     15 C           1.8750    3.6130    0.0000 C.3     1  LIG1        0.0292
     16 C          -1.6920    1.8710    0.0000 C.2     1  LIG1        0.2485
     17 O          -2.6960    1.8710    0.0000 O.2     1  LIG1       -0.2729
     18 C          -1.1920    2.7380    0.0000 C.3     1  LIG1        0.0968
     19 C          -2.1960   -0.7290    0.0000 C.ar    1  LIG1        0.1258
     20 C          -1.6960   -1.5920    0.0000 C.ar    1  LIG1        0.0202
     21 C          -2.1960   -2.4630    0.0000 C.ar    1  LIG1        0.0013
     22 C          -3.1960   -2.4630    0.0000 C.ar    1  LIG1        0.0001
     23 C          -3.7040   -1.5920    0.0000 C.ar    1  LIG1        0.0014
     24 C          -3.2040   -0.7290    0.0000 C.ar    1  LIG1        0.0202
     25 C          -3.6920   -3.3290    0.0000 C.ar    1  LIG1        0.0000
     26 C          -3.1960   -4.1920    0.0000 C.ar    1  LIG1        0.0000
     27 C          -2.1920   -4.1880    0.0000 C.ar    1  LIG1        0.0000
     28 C          -1.6960   -3.3170    0.0000 C.ar    1  LIG1        0.0000
     29 O          -2.5710    0.6460    0.0000 O.2     1  LIG1       -0.1493
     30 O          -0.8210   -0.3630    0.0000 O.2     1  LIG1       -0.1493
@<TRIPOS>BOND
     1     1     2    1
     2     1    19    1
     3     1    29    2
     4     1    30    2
     5     2     3    1
     6     2    16   am
     7     3     4   ar
     8     3    11   ar
     9     4     5   ar
    10     5     6   ar
    11     5     9   ar
    12     6     7   ar
    13     6    15    1
    14     7     8   ar
    15     7    12    1
    16     8     9   ar
    17     9    10   ar
    18    10    11   ar
    19    12    13    1
    20    13    14    1
    21    14    15    1
    22    16    17    2
    23    16    18    1
    24    19    20   ar
    25    19    24   ar
    26    20    21   ar
    27    21    22   ar
    28    21    28   ar
    29    22    23   ar
    30    22    25   ar
    31    23    24   ar
    32    25    26   ar
    33    26    27   ar
    34    27    28   ar
