@<TRIPOS>MOLECULE
27975_ChemDiv_5591-3456
 30 34 0 0 0
SMALL
GASTEIGER
Energy = 0

@<TRIPOS>ATOM
      1 S          -1.5630   -0.3420    0.0000 S.O2    1  LIG1       -0.0581
      2 N          -1.0790    0.5420    0.0000 N.pl3   1  LIG1       -0.5358
      3 C          -0.1040    0.5290    0.0000 C.ar    1  LIG1       -0.1121
      4 C           0.3710    1.4130    0.0000 C.ar    1  LIG1       -0.0206
      5 C           1.3460    1.4130    0.0000 C.ar    1  LIG1        0.0381
      6 C           1.9880    2.1790    0.0000 C.ar    1  LIG1        0.0678
      7 C           2.8580    1.7670    0.0000 C.ar    1  LIG1        0.1255
      8 O           2.7710    0.7500    0.0000 O.2     1  LIG1       -0.4577
      9 C           1.8250    0.5420    0.0000 C.ar    1  LIG1        0.1447
     10 C           1.3460   -0.3290    0.0000 C.ar    1  LIG1        0.0328
     11 C           0.3710   -0.3290    0.0000 C.ar    1  LIG1       -0.0192
     12 C          -0.1130   -1.1750    0.0000 C.ar    1  LIG1       -0.0017
     13 C           0.3710   -2.0080    0.0000 C.ar    1  LIG1       -0.0001
     14 C           1.3460   -2.0080    0.0000 C.ar    1  LIG1        0.0001
     15 C           1.8380   -1.1750    0.0000 C.ar    1  LIG1        0.0030
     16 C           3.6500    2.3540    0.0000 C.3     1  LIG1        0.0651
     17 C           3.5580    3.3630    0.0000 C.3     1  LIG1        0.0161
     18 C           2.6750    3.7750    0.0000 C.3     1  LIG1        0.0697
     19 C           1.9040    3.1830    0.0000 C.2     1  LIG1        0.1758
     20 O           1.0130    3.5750    0.0000 O.2     1  LIG1       -0.2912
     21 C          -2.0630   -1.2210    0.0000 C.ar    1  LIG1        0.0850
     22 C          -3.0290   -1.2210    0.0000 C.ar    1  LIG1       -0.0062
     23 C          -3.6540   -2.4380    0.0000 C.ar    1  LIG1       -0.0034
     24 C          -3.0080   -3.1920    0.0000 C.ar    1  LIG1       -0.0045
     25 C          -2.0630   -2.9790    0.0000 C.ar    1  LIG1       -0.0206
     26 C          -1.5790   -2.1080    0.0000 C.ar    1  LIG1        0.0123
     27 C          -1.4750   -3.7710    0.0000 C.3     1  LIG1        0.0311
     28 C          -3.5920   -0.2880    0.0000 C.3     1  LIG1        0.0323
     29 O          -2.4080    0.1750    0.0000 O.2     1  LIG1       -0.1842
     30 O          -0.7290   -0.8500    0.0000 O.2     1  LIG1       -0.1842
@<TRIPOS>BOND
     1     1     2    1
     2     1    21    1
     3     1    29    2
     4     1    30    2
     5     2     3    1
     6     3     4   ar
     7     3    11   ar
     8     4     5   ar
     9     5     6   ar
    10     5     9   ar
    11     6     7   ar
    12     6    19    1
    13     7     8   ar
    14     7    16    1
    15     8     9   ar
    16     9    10   ar
    17    10    11   ar
    18    10    15   ar
    19    11    12   ar
    20    12    13   ar
    21    13    14   ar
    22    14    15   ar
    23    16    17    1
    24    17    18    1
    25    18    19    1
    26    19    20    2
    27    21    22   ar
    28    21    26   ar
    29    22    23   ar
    30    22    28    1
    31    23    24   ar
    32    24    25   ar
    33    25    26   ar
    34    25    27    1
