@<TRIPOS>MOLECULE
27973_ChemDiv_5591-3224
 26 29 0 0 0
SMALL
GASTEIGER
Energy = 0

@<TRIPOS>ATOM
      1 S           0.0000   -2.1540    0.0000 S.O2    1  LIG1       -0.0578
      2 N           0.9540   -2.5040    0.0000 N.pl3   1  LIG1       -0.5358
      3 C           1.7380   -1.8750    0.0000 C.ar    1  LIG1       -0.1121
      4 C           1.5750   -0.8750    0.0000 C.ar    1  LIG1       -0.0210
      5 C           2.3500   -0.2420    0.0000 C.ar    1  LIG1        0.0314
      6 C           2.4040    0.7460    0.0000 C.ar    1  LIG1        0.0110
      7 C           3.3710    1.0040    0.0000 C.ar    1  LIG1        0.1188
      8 O           3.9170    0.1670    0.0000 O.2     1  LIG1       -0.4581
      9 C           3.2830   -0.6040    0.0000 C.ar    1  LIG1        0.1444
     10 C           3.4460   -1.5830    0.0000 C.ar    1  LIG1        0.0356
     11 C           2.6750   -2.2250    0.0000 C.ar    1  LIG1       -0.0207
     12 C           3.6290    1.9710    0.0000 C.3     1  LIG1        0.0642
     13 C           2.9210    2.6750    0.0000 C.3     1  LIG1        0.0083
     14 C           1.9540    2.4130    0.0000 C.3     1  LIG1        0.0049
     15 C           1.6960    1.4580    0.0000 C.3     1  LIG1        0.0292
     16 C           1.2420    3.0830    0.0000 C.3     1  LIG1        0.0004
     17 C          -0.9250   -1.7960    0.0000 C.ar    1  LIG1        0.0895
     18 C          -1.1000   -0.8170    0.0000 C.ar    1  LIG1        0.0200
     19 C          -2.0420   -0.4460    0.0000 C.ar    1  LIG1        0.0382
     20 C          -2.8040   -1.0920    0.0000 C.ar    1  LIG1        0.1388
     21 C          -2.6380   -2.0790    0.0000 C.ar    1  LIG1        0.0382
     22 C          -1.7000   -2.4290    0.0000 C.ar    1  LIG1        0.0200
     23 O          -3.7540   -0.7330    0.0000 O.3     1  LIG1       -0.4714
     24 C          -3.9210    0.2460    0.0000 C.3     1  LIG1        0.2525
     25 O           0.3710   -1.2170    0.0000 O.2     1  LIG1       -0.1842
     26 O          -0.3460   -3.0790    0.0000 O.2     1  LIG1       -0.1842
@<TRIPOS>BOND
     1     1     2    1
     2     1    17    1
     3     1    25    2
     4     1    26    2
     5     2     3    1
     6     3     4   ar
     7     3    11   ar
     8     4     5   ar
     9     5     6   ar
    10     5     9   ar
    11     6     7   ar
    12     6    15    1
    13     7     8   ar
    14     7    12    1
    15     8     9   ar
    16     9    10   ar
    17    10    11   ar
    18    12    13    1
    19    13    14    1
    20    14    15    1
    21    14    16    1
    22    17    18   ar
    23    17    22   ar
    24    18    19   ar
    25    19    20   ar
    26    20    21   ar
    27    20    23    1
    28    21    22   ar
    29    23    24    1
