@<TRIPOS>MOLECULE
27971_ChemDiv_5591-3204
 34 38 0 0 0
SMALL
GASTEIGER
Energy = 0

@<TRIPOS>ATOM
      1 S          -1.2170    1.1540    0.0000 S.O2    1  LIG1        0.0825
      2 N          -2.1710    0.8880    0.0000 N.am    1  LIG1       -0.1341
      3 C          -2.8670    1.6130    0.0000 C.2     1  LIG1        0.2715
      4 O          -3.8170    1.3500    0.0000 O.2     1  LIG1       -0.2680
      5 C          -2.6170    2.5830    0.0000 C.ar    1  LIG1        0.0585
      6 C          -3.3040    3.3040    0.0000 C.ar    1  LIG1        0.0253
      7 C          -3.0580    4.2710    0.0000 C.ar    1  LIG1        0.0990
      8 N          -2.1040    4.5330    0.0000 N.ar    1  LIG1       -0.2423
      9 C          -1.4170    3.8210    0.0000 C.ar    1  LIG1        0.0990
     10 C          -1.6790    2.8330    0.0000 C.ar    1  LIG1        0.0253
     11 C          -2.4330   -0.0960    0.0000 C.ar    1  LIG1        0.0770
     12 C          -1.7460   -0.8210    0.0000 C.ar    1  LIG1        0.0194
     13 C          -1.9960   -1.8040    0.0000 C.ar    1  LIG1        0.0345
     14 C          -1.4710   -2.6580    0.0000 C.ar    1  LIG1        0.0111
     15 C          -2.0960   -3.4500    0.0000 C.ar    1  LIG1        0.1188
     16 O          -3.0000   -3.0880    0.0000 O.2     1  LIG1       -0.4581
     17 C          -2.9460   -2.0670    0.0000 C.ar    1  LIG1        0.1446
     18 C          -3.6380   -1.3460    0.0000 C.ar    1  LIG1        0.0388
     19 C          -3.3880   -0.3750    0.0000 C.ar    1  LIG1        0.0198
     20 C          -1.7290   -4.3880    0.0000 C.3     1  LIG1        0.0642
     21 C          -0.7420   -4.5330    0.0000 C.3     1  LIG1        0.0083
     22 C          -0.1170   -3.7460    0.0000 C.3     1  LIG1        0.0052
     23 C          -0.4790   -2.8080    0.0000 C.3     1  LIG1        0.0292
     24 C          -0.2670    1.4170    0.0000 C.ar    1  LIG1        0.1261
     25 C          -0.0080    2.4000    0.0000 C.ar    1  LIG1        0.0233
     26 C           0.9330    2.6540    0.0000 C.ar    1  LIG1        0.0383
     27 C           1.6250    1.9250    0.0000 C.ar    1  LIG1        0.1386
     28 C           1.3630    0.9540    0.0000 C.ar    1  LIG1        0.0383
     29 C           0.4250    0.6920    0.0000 C.ar    1  LIG1        0.0233
     30 O           2.5960    2.1880    0.0000 O.3     1  LIG1       -0.4755
     31 C           2.8580    3.1750    0.0000 C.3     1  LIG1        0.2055
     32 C           3.8130    3.4210    0.0000 C.3     1  LIG1        0.0512
     33 O          -1.4710    2.1380    0.0000 O.2     1  LIG1       -0.1493
     34 O          -0.9710    0.1670    0.0000 O.2     1  LIG1       -0.1493
@<TRIPOS>BOND
     1     1     2    1
     2     1    24    1
     3     1    33    2
     4     1    34    2
     5     2     3   am
     6     2    11    1
     7     3     4    2
     8     3     5    1
     9     5     6   ar
    10     5    10   ar
    11     6     7   ar
    12     7     8   ar
    13     8     9   ar
    14     9    10   ar
    15    11    12   ar
    16    11    19   ar
    17    12    13   ar
    18    13    14   ar
    19    13    17   ar
    20    14    15   ar
    21    14    23    1
    22    15    16   ar
    23    15    20    1
    24    16    17   ar
    25    17    18   ar
    26    18    19   ar
    27    20    21    1
    28    21    22    1
    29    22    23    1
    30    24    25   ar
    31    24    29   ar
    32    25    26   ar
    33    26    27   ar
    34    27    28   ar
    35    27    30    1
    36    28    29   ar
    37    30    31    1
    38    31    32    1
