@<TRIPOS>MOLECULE
27983_ChemDiv_7202-0532
 28 31 0 0 0
SMALL
GASTEIGER
Energy = 0

@<TRIPOS>ATOM
      1 S          -0.3920   -1.4580    0.0000 S.O2    1  LIG1       -0.0548
      2 C          -1.3330   -1.1080    0.0000 C.ar    1  LIG1        0.1261
      3 C          -1.4960   -0.1210    0.0000 C.ar    1  LIG1        0.0569
      4 C          -2.4210    0.2250    0.0000 C.ar    1  LIG1        0.1402
      5 C          -3.2080   -0.4080    0.0000 C.ar    1  LIG1        0.0401
      6 C          -3.0290   -1.3960    0.0000 C.ar    1  LIG1        0.0413
      7 C          -2.1040   -1.7420    0.0000 C.ar    1  LIG1        0.1545
      8 O          -1.9420   -2.7330    0.0000 O.3     1  LIG1       -0.4702
      9 C          -2.7130   -3.3630    0.0000 C.3     1  LIG1        0.2525
     10 O          -2.5750    1.2250    0.0000 O.3     1  LIG1       -0.4714
     11 C          -3.5040    1.5960    0.0000 C.3     1  LIG1        0.2525
     12 N           0.5460   -1.8080    0.0000 N.pl3   1  LIG1       -0.5357
     13 C           1.3290   -1.1750    0.0000 C.ar    1  LIG1       -0.1121
     14 C           1.1670   -0.1880    0.0000 C.ar    1  LIG1       -0.0206
     15 C           1.9380    0.4500    0.0000 C.ar    1  LIG1        0.0381
     16 C           2.0000    1.4460    0.0000 C.ar    1  LIG1        0.0678
     17 C           2.9630    1.7040    0.0000 C.ar    1  LIG1        0.1255
     18 O           3.5000    0.8540    0.0000 O.2     1  LIG1       -0.4577
     19 C           2.8750    0.0920    0.0000 C.ar    1  LIG1        0.1448
     20 C           3.0380   -0.9000    0.0000 C.ar    1  LIG1        0.0356
     21 C           2.2670   -1.5330    0.0000 C.ar    1  LIG1       -0.0207
     22 C           3.2250    2.6630    0.0000 C.3     1  LIG1        0.0651
     23 C           2.5250    3.3670    0.0000 C.3     1  LIG1        0.0161
     24 C           1.5460    3.1000    0.0000 C.3     1  LIG1        0.0697
     25 C           1.2880    2.1580    0.0000 C.2     1  LIG1        0.1758
     26 O           0.3210    1.9250    0.0000 O.2     1  LIG1       -0.2912
     27 O          -0.0380   -0.5210    0.0000 O.2     1  LIG1       -0.1841
     28 O          -0.7420   -2.3960    0.0000 O.2     1  LIG1       -0.1841
@<TRIPOS>BOND
     1     1     2    1
     2     1    12    1
     3     1    27    2
     4     1    28    2
     5     2     3   ar
     6     2     7   ar
     7     3     4   ar
     8     4     5   ar
     9     4    10    1
    10     5     6   ar
    11     6     7   ar
    12     7     8    1
    13     8     9    1
    14    10    11    1
    15    12    13    1
    16    13    14   ar
    17    13    21   ar
    18    14    15   ar
    19    15    16   ar
    20    15    19   ar
    21    16    17   ar
    22    16    25    1
    23    17    18   ar
    24    17    22    1
    25    18    19   ar
    26    19    20   ar
    27    20    21   ar
    28    22    23    1
    29    23    24    1
    30    24    25    1
    31    25    26    2
