@<TRIPOS>MOLECULE
27987_ChemDiv_2294-1105
 14 15 0 0 0
SMALL
GASTEIGER
Energy = 0

@<TRIPOS>ATOM
      1 N          -1.7210   -0.2380    0.0000 N.am    1  LIG1       -0.1245
      2 C          -0.7630   -0.4710    0.0000 C.2     1  LIG1        0.2709
      3 C          -0.2580    0.3960    0.0000 C.3     1  LIG1        0.1691
      4 N          -0.9380    1.1540    0.0000 N.am    1  LIG1       -0.1772
      5 C          -1.8500    0.7460    0.0000 C.2     1  LIG1        0.3465
      6 O          -2.7330    1.2330    0.0000 O.2     1  LIG1       -0.2487
      7 C           0.7290    0.3960    0.0000 C.ar    1  LIG1        0.0070
      8 C           1.2330    1.2540    0.0000 C.ar    1  LIG1        0.0185
      9 C           2.2250    1.2540    0.0000 C.ar    1  LIG1        0.0986
     10 N           2.7290    0.3960    0.0000 N.ar    1  LIG1       -0.2423
     11 C           2.2250   -0.4710    0.0000 C.ar    1  LIG1        0.0986
     12 C           1.2330   -0.4710    0.0000 C.ar    1  LIG1        0.0185
     13 C          -0.2580    1.4080    0.0000 C.3     1  LIG1        0.0358
     14 O          -0.3630   -1.4040    0.0000 O.2     1  LIG1       -0.2707
@<TRIPOS>BOND
     1     1     2   am
     2     1     5   am
     3     2     3    1
     4     2    14    2
     5     3     4    1
     6     3     7    1
     7     3    13    1
     8     4     5   am
     9     5     6    2
    10     7     8   ar
    11     7    12   ar
    12     8     9   ar
    13     9    10   ar
    14    10    11   ar
    15    11    12   ar
