@<TRIPOS>MOLECULE
27997_ChemDiv_3210-0035
 26 29 0 0 0
SMALL
GASTEIGER
Energy = 0

@<TRIPOS>ATOM
      1 C          -0.0040    0.5330    0.0000 C.3     1  LIG1        0.1804
      2 C          -0.0040   -0.4380    0.0000 C.3     1  LIG1        0.1804
      3 N          -0.9670   -0.7540    0.0000 N.am    1  LIG1       -0.2437
      4 C          -1.5250    0.0880    0.0000 C.2     1  LIG1        0.3100
      5 N          -0.9670    0.8460    0.0000 N.am    1  LIG1       -0.2437
      6 C          -1.3130    1.7630    0.0000 C.3     1  LIG1        0.1183
      7 O          -2.5210    0.0880    0.0000 O.2     1  LIG1       -0.2522
      8 C          -1.2670   -1.6790    0.0000 C.3     1  LIG1        0.1183
      9 N           0.9630   -0.7380    0.0000 N.am    1  LIG1       -0.2437
     10 C           1.5290    0.0710    0.0000 C.2     1  LIG1        0.3100
     11 N           0.9000    0.8790    0.0000 N.am    1  LIG1       -0.2437
     12 C           1.1540    1.8790    0.0000 C.3     1  LIG1        0.1183
     13 O           2.5170    0.0710    0.0000 O.2     1  LIG1       -0.2522
     14 C           1.2830   -1.6630    0.0000 C.3     1  LIG1        0.1183
     15 C          -0.0040   -1.6540    0.0000 C.ar    1  LIG1        0.0150
     16 C           0.9000   -2.0790    0.0000 C.ar    1  LIG1       -0.0010
     17 C           0.9000   -3.0750    0.0000 C.ar    1  LIG1       -0.0002
     18 C           0.0630   -3.5960    0.0000 C.ar    1  LIG1       -0.0000
     19 C          -0.8080   -3.0750    0.0000 C.ar    1  LIG1       -0.0002
     20 C          -0.8080   -2.0790    0.0000 C.ar    1  LIG1       -0.0010
     21 C          -0.0040    1.5880    0.0000 C.ar    1  LIG1        0.0150
     22 C           0.8170    2.0790    0.0000 C.ar    1  LIG1       -0.0010
     23 C           0.8170    3.0920    0.0000 C.ar    1  LIG1       -0.0002
     24 C          -0.0040    3.6000    0.0000 C.ar    1  LIG1       -0.0000
     25 C          -0.8710    3.0920    0.0000 C.ar    1  LIG1       -0.0002
     26 C          -0.8710    2.0790    0.0000 C.ar    1  LIG1       -0.0010
@<TRIPOS>BOND
     1     1     2    1
     2     1     5    1
     3     1    11    1
     4     1    21    1
     5     2     3    1
     6     2     9    1
     7     2    15    1
     8     3     4   am
     9     3     8    1
    10     4     5   am
    11     4     7    2
    12     5     6    1
    13     9    10   am
    14     9    14    1
    15    10    11   am
    16    10    13    2
    17    11    12    1
    18    15    16   ar
    19    15    20   ar
    20    16    17   ar
    21    17    18   ar
    22    18    19   ar
    23    19    20   ar
    24    21    22   ar
    25    21    26   ar
    26    22    23   ar
    27    23    24   ar
    28    24    25   ar
    29    25    26   ar
