@<TRIPOS>MOLECULE
27999_ChemDiv_3472-4335
 31 34 0 0 0
SMALL
GASTEIGER
Energy = 0

@<TRIPOS>ATOM
      1 N          -0.0080    1.4250    0.0000 N.am    1  LIG1       -0.1617
      2 C          -0.8540    0.8210    0.0000 C.2     1  LIG1        0.3218
      3 N          -0.5080   -0.1290    0.0000 N.am    1  LIG1       -0.2069
      4 C           0.4500   -0.1290    0.0000 C.3     1  LIG1        0.1550
      5 C           0.8000    0.8210    0.0000 C.2     1  LIG1        0.2570
      6 O           1.8290    1.1210    0.0000 O.2     1  LIG1       -0.2722
      7 C           1.0130   -0.9540    0.0000 C.ar    1  LIG1        0.0026
      8 C           0.5580   -1.8630    0.0000 C.ar    1  LIG1        0.0008
      9 C           1.1000   -2.7040    0.0000 C.ar    1  LIG1        0.0366
     10 C           2.0960   -2.6750    0.0000 C.ar    1  LIG1        0.1385
     11 C           2.5500   -1.7330    0.0000 C.ar    1  LIG1        0.0366
     12 C           2.0000   -0.9080    0.0000 C.ar    1  LIG1        0.0008
     13 O           2.6380   -3.4830    0.0000 O.3     1  LIG1       -0.4755
     14 C           2.1830   -4.4040    0.0000 C.3     1  LIG1        0.2055
     15 C           1.2250   -4.4920    0.0000 C.3     1  LIG1        0.0512
     16 C           1.1460   -0.0250    0.0000 C.3     1  LIG1        0.0341
     17 C          -1.0630   -0.9540    0.0000 C.3     1  LIG1        0.2469
     18 N          -0.6170   -1.8630    0.0000 N.4     1  LIG1        0.3975
     19 C          -1.1330   -2.7630    0.0000 C.3     1  LIG1        0.1738
     20 C          -0.6790   -3.6290    0.0000 C.3     1  LIG1        0.2048
     21 O           0.3210   -3.6540    0.0000 O.3     1  LIG1       -0.3411
     22 C           0.8540   -2.8130    0.0000 C.3     1  LIG1        0.2048
     23 C           0.3670   -1.8960    0.0000 C.3     1  LIG1        0.1738
     24 O          -1.8250    1.1210    0.0000 O.2     1  LIG1       -0.2516
     25 C           0.0130    2.4290    0.0000 C.3     1  LIG1        0.2527
     26 N          -0.8540    2.9460    0.0000 N.4     1  LIG1        0.3978
     27 C          -1.7170    2.4500    0.0000 C.3     1  LIG1        0.1738
     28 C          -2.6170    2.9460    0.0000 C.3     1  LIG1        0.2048
     29 O          -2.6420    3.9540    0.0000 O.3     1  LIG1       -0.3411
     30 C          -1.7540    4.4920    0.0000 C.3     1  LIG1        0.2048
     31 C          -0.8750    3.9830    0.0000 C.3     1  LIG1        0.1738
@<TRIPOS>BOND
     1     1     2   am
     2     1     5   am
     3     1    25    1
     4     2     3   am
     5     2    24    2
     6     3     4    1
     7     3    17    1
     8     4     5    1
     9     4     7    1
    10     4    16    1
    11     5     6    2
    12     7     8   ar
    13     7    12   ar
    14     8     9   ar
    15     9    10   ar
    16    10    11   ar
    17    10    13    1
    18    11    12   ar
    19    13    14    1
    20    14    15    1
    21    17    18    1
    22    18    19    1
    23    18    23    1
    24    19    20    1
    25    20    21    1
    26    21    22    1
    27    22    23    1
    28    25    26    1
    29    26    27    1
    30    26    31    1
    31    27    28    1
    32    28    29    1
    33    29    30    1
    34    30    31    1
