@<TRIPOS>MOLECULE
27995_ChemDiv_2753-0174
 29 31 0 0 0
SMALL
GASTEIGER
Energy = 0

@<TRIPOS>ATOM
      1 N           2.9710   -1.6040    0.0000 N.am    1  LIG1       -0.1606
      2 C           2.9330   -2.5750    0.0000 C.2     1  LIG1        0.3339
      3 N           1.9920   -2.8290    0.0000 N.am    1  LIG1       -0.1783
      4 C           1.4210   -2.0210    0.0000 C.3     1  LIG1        0.1676
      5 C           2.0540   -1.2540    0.0000 C.2     1  LIG1        0.2585
      6 O           1.7920   -0.2790    0.0000 O.2     1  LIG1       -0.2721
      7 C           0.4210   -2.0210    0.0000 C.ar    1  LIG1        0.0040
      8 C          -0.0830   -1.1380    0.0000 C.ar    1  LIG1        0.0009
      9 C          -1.0790   -1.1380    0.0000 C.ar    1  LIG1        0.0366
     10 C          -1.5880   -1.9960    0.0000 C.ar    1  LIG1        0.1385
     11 C          -1.1040   -2.8750    0.0000 C.ar    1  LIG1        0.0366
     12 C          -0.0880   -2.8750    0.0000 C.ar    1  LIG1        0.0009
     13 O          -2.5880   -1.9960    0.0000 O.3     1  LIG1       -0.4755
     14 C          -3.0830   -1.1460    0.0000 C.3     1  LIG1        0.2054
     15 C          -4.0830   -1.1460    0.0000 C.3     1  LIG1        0.0473
     16 C          -4.5790   -0.2790    0.0000 C.3     1  LIG1        0.0038
     17 C          -4.0830    0.5830    0.0000 C.3     1  LIG1        0.0001
     18 C          -4.5790    1.4500    0.0000 C.3     1  LIG1        0.0000
     19 C          -4.0830    2.3290    0.0000 C.3     1  LIG1        0.0000
     20 C          -4.5790    3.2000    0.0000 C.3     1  LIG1        0.0000
     21 C           0.9000   -1.0000    0.0000 C.3     1  LIG1        0.0357
     22 O           3.7330   -3.1960    0.0000 O.2     1  LIG1       -0.2502
     23 C           3.8000   -1.0540    0.0000 C.3     1  LIG1        0.2528
     24 N           3.7420   -0.0630    0.0000 N.4     1  LIG1        0.3978
     25 C           2.8750    0.3670    0.0000 C.3     1  LIG1        0.1738
     26 C           2.8080    1.3830    0.0000 C.3     1  LIG1        0.2048
     27 O           3.6170    1.9170    0.0000 O.3     1  LIG1       -0.3411
     28 C           4.5080    1.4790    0.0000 C.3     1  LIG1        0.2048
     29 C           4.5750    0.4920    0.0000 C.3     1  LIG1        0.1738
@<TRIPOS>BOND
     1     1     2   am
     2     1     5   am
     3     1    23    1
     4     2     3   am
     5     2    22    2
     6     3     4    1
     7     4     5    1
     8     4     7    1
     9     4    21    1
    10     5     6    2
    11     7     8   ar
    12     7    12   ar
    13     8     9   ar
    14     9    10   ar
    15    10    11   ar
    16    10    13    1
    17    11    12   ar
    18    13    14    1
    19    14    15    1
    20    15    16    1
    21    16    17    1
    22    17    18    1
    23    18    19    1
    24    19    20    1
    25    23    24    1
    26    24    25    1
    27    24    29    1
    28    25    26    1
    29    26    27    1
    30    27    28    1
    31    28    29    1
