@<TRIPOS>MOLECULE
27993_ChemDiv_2753-0168
 25 27 0 0 0
SMALL
GASTEIGER
Energy = 0

@<TRIPOS>ATOM
      1 C           3.9580   -0.1540    0.0000 C.2     1  LIG1        0.2749
      2 N           4.2670   -1.1210    0.0000 N.am    1  LIG1       -0.1242
      3 C           3.4210   -1.7330    0.0000 C.2     1  LIG1        0.3468
      4 N           2.6000   -1.1500    0.0000 N.am    1  LIG1       -0.1729
      5 C           2.9170   -0.1540    0.0000 C.3     1  LIG1        0.1876
      6 C           1.9170   -0.1290    0.0000 C.ar    1  LIG1        0.0080
      7 C           1.4330    0.7380    0.0000 C.ar    1  LIG1        0.0012
      8 C           0.4380    0.7580    0.0000 C.ar    1  LIG1        0.0367
      9 C          -0.0880   -0.0880    0.0000 C.ar    1  LIG1        0.1385
     10 C           0.3960   -0.9420    0.0000 C.ar    1  LIG1        0.0367
     11 C           1.3960   -0.9750    0.0000 C.ar    1  LIG1        0.0012
     12 O          -1.0830   -0.0880    0.0000 O.3     1  LIG1       -0.4755
     13 C          -1.5670   -0.9420    0.0000 C.3     1  LIG1        0.2054
     14 C          -2.5500   -0.9420    0.0000 C.3     1  LIG1        0.0473
     15 C          -3.0630   -0.0880    0.0000 C.3     1  LIG1        0.0038
     16 C          -4.0580   -0.1040    0.0000 C.3     1  LIG1        0.0001
     17 C          -4.5630    0.7750    0.0000 C.3     1  LIG1        0.0000
     18 C           3.1790    0.7960    0.0000 C.ar    1  LIG1        0.0078
     19 C           2.4880    1.5170    0.0000 C.ar    1  LIG1       -0.0019
     20 C           2.7580    2.4710    0.0000 C.ar    1  LIG1       -0.0002
     21 C           3.7170    2.7170    0.0000 C.ar    1  LIG1       -0.0000
     22 C           4.4130    1.9880    0.0000 C.ar    1  LIG1       -0.0002
     23 C           4.1420    1.0500    0.0000 C.ar    1  LIG1       -0.0019
     24 O           3.4210   -2.7130    0.0000 O.2     1  LIG1       -0.2487
     25 O           4.5580    0.6420    0.0000 O.2     1  LIG1       -0.2704
@<TRIPOS>BOND
     1     1     2   am
     2     1     5    1
     3     1    25    2
     4     2     3   am
     5     3     4   am
     6     3    24    2
     7     4     5    1
     8     5     6    1
     9     5    18    1
    10     6     7   ar
    11     6    11   ar
    12     7     8   ar
    13     8     9   ar
    14     9    10   ar
    15     9    12    1
    16    10    11   ar
    17    12    13    1
    18    13    14    1
    19    14    15    1
    20    15    16    1
    21    16    17    1
    22    18    19   ar
    23    18    23   ar
    24    19    20   ar
    25    20    21   ar
    26    21    22   ar
    27    22    23   ar
