@<TRIPOS>MOLECULE
28003_ChemDiv_7202-2695
 30 34 0 0 0
SMALL
GASTEIGER
Energy = 0

@<TRIPOS>ATOM
      1 S          -1.7130    0.6290    0.0000 S.O2    1  LIG1        0.0837
      2 N          -0.7460    0.8830    0.0000 N.am    1  LIG1       -0.1375
      3 C          -0.0380    0.1880    0.0000 C.ar    1  LIG1        0.0767
      4 C           0.9250    0.4460    0.0000 C.ar    1  LIG1        0.0194
      5 C           1.6330   -0.2500    0.0000 C.ar    1  LIG1        0.0345
      6 C           2.6330   -0.2080    0.0000 C.ar    1  LIG1        0.0111
      7 C           2.9830   -1.1420    0.0000 C.ar    1  LIG1        0.1188
      8 O           2.2080   -1.7710    0.0000 O.2     1  LIG1       -0.4581
      9 C           1.3750   -1.2250    0.0000 C.ar    1  LIG1        0.1446
     10 C           0.4130   -1.4830    0.0000 C.ar    1  LIG1        0.0388
     11 C          -0.2920   -0.7710    0.0000 C.ar    1  LIG1        0.0198
     12 C           3.9750   -1.3130    0.0000 C.3     1  LIG1        0.0642
     13 C           4.6170   -0.5380    0.0000 C.3     1  LIG1        0.0083
     14 C           4.2540    0.3960    0.0000 C.3     1  LIG1        0.0052
     15 C           3.2670    0.5670    0.0000 C.3     1  LIG1        0.0292
     16 C          -0.4920    1.8380    0.0000 C.2     1  LIG1        0.2485
     17 O          -1.2080    2.5420    0.0000 O.2     1  LIG1       -0.2729
     18 C           0.4750    2.1040    0.0000 C.3     1  LIG1        0.0968
     19 C          -2.6750    0.3580    0.0000 C.ar    1  LIG1        0.1433
     20 C          -2.9380   -0.6040    0.0000 C.ar    1  LIG1        0.1001
     21 N          -2.2330   -1.3210    0.0000 N.ar    1  LIG1       -0.2425
     22 C          -2.4920   -2.2750    0.0000 C.ar    1  LIG1        0.0989
     23 C          -3.4630   -2.5380    0.0000 C.ar    1  LIG1        0.0207
     24 C          -4.1710   -1.8290    0.0000 C.ar    1  LIG1        0.0031
     25 C          -3.9040   -0.8580    0.0000 C.ar    1  LIG1        0.0190
     26 C          -4.6210   -0.1500    0.0000 C.ar    1  LIG1        0.0016
     27 C          -4.3580    0.8000    0.0000 C.ar    1  LIG1        0.0015
     28 C          -3.3790    1.0670    0.0000 C.ar    1  LIG1        0.0218
     29 O          -1.9790    1.5920    0.0000 O.2     1  LIG1       -0.1493
     30 O          -1.4500   -0.3460    0.0000 O.2     1  LIG1       -0.1493
@<TRIPOS>BOND
     1     1     2    1
     2     1    19    1
     3     1    29    2
     4     1    30    2
     5     2     3    1
     6     2    16   am
     7     3     4   ar
     8     3    11   ar
     9     4     5   ar
    10     5     6   ar
    11     5     9   ar
    12     6     7   ar
    13     6    15    1
    14     7     8   ar
    15     7    12    1
    16     8     9   ar
    17     9    10   ar
    18    10    11   ar
    19    12    13    1
    20    13    14    1
    21    14    15    1
    22    16    17    2
    23    16    18    1
    24    19    20   ar
    25    19    28   ar
    26    20    21   ar
    27    20    25   ar
    28    21    22   ar
    29    22    23   ar
    30    23    24   ar
    31    24    25   ar
    32    25    26   ar
    33    26    27   ar
    34    27    28   ar
