@<TRIPOS>MOLECULE
28009_ChemDiv_7287-0146
 27 30 0 0 0
SMALL
GASTEIGER
Energy = 0

@<TRIPOS>ATOM
      1 S          -0.0630   -2.1380    0.0000 S.O2    1  LIG1       -0.0581
      2 C          -1.0040   -1.7920    0.0000 C.ar    1  LIG1        0.0855
      3 C          -1.7790   -2.4290    0.0000 C.ar    1  LIG1       -0.0039
      4 C          -2.7130   -2.0830    0.0000 C.ar    1  LIG1        0.0266
      5 C          -2.8790   -1.0960    0.0000 C.ar    1  LIG1        0.1399
      6 C          -2.1040   -0.4630    0.0000 C.ar    1  LIG1        0.0309
      7 C          -1.1750   -0.8080    0.0000 C.ar    1  LIG1        0.0189
      8 F          -3.8330   -0.7580    0.0000 F       1  LIG1       -0.2042
      9 C          -1.6210   -3.4130    0.0000 C.3     1  LIG1        0.0324
     10 N           0.8790   -2.4960    0.0000 N.pl3   1  LIG1       -0.5358
     11 C           1.6500   -1.8670    0.0000 C.ar    1  LIG1       -0.1121
     12 C           1.4880   -0.8710    0.0000 C.ar    1  LIG1       -0.0210
     13 C           2.2710   -0.2290    0.0000 C.ar    1  LIG1        0.0314
     14 C           2.3170    0.7710    0.0000 C.ar    1  LIG1        0.0107
     15 C           3.2830    1.0170    0.0000 C.ar    1  LIG1        0.1188
     16 O           3.8290    0.1750    0.0000 O.2     1  LIG1       -0.4581
     17 C           3.1920   -0.5960    0.0000 C.ar    1  LIG1        0.1444
     18 C           3.3630   -1.5750    0.0000 C.ar    1  LIG1        0.0356
     19 C           2.5880   -2.2170    0.0000 C.ar    1  LIG1       -0.0207
     20 C           3.5420    1.9750    0.0000 C.3     1  LIG1        0.0639
     21 C           2.8460    2.6880    0.0000 C.3     1  LIG1        0.0043
     22 C           1.8750    2.4210    0.0000 C.3     1  LIG1       -0.0145
     23 C           1.6170    1.4670    0.0000 C.3     1  LIG1        0.0253
     24 C           0.8790    2.5080    0.0000 C.3     1  LIG1       -0.0039
     25 O           0.2880   -1.2040    0.0000 O.2     1  LIG1       -0.1842
     26 O          -0.4210   -3.0790    0.0000 O.2     1  LIG1       -0.1842
     27 H           1.7790    3.4170    0.0000 H       1  LIG1        0.0322
@<TRIPOS>BOND
     1     1     2    1
     2     1    10    1
     3     1    25    2
     4     1    26    2
     5     2     3   ar
     6     2     7   ar
     7     3     4   ar
     8     3     9    1
     9     4     5   ar
    10     5     6   ar
    11     5     8    1
    12     6     7   ar
    13    10    11    1
    14    11    12   ar
    15    11    19   ar
    16    12    13   ar
    17    13    14   ar
    18    13    17   ar
    19    14    15   ar
    20    14    23    1
    21    15    16   ar
    22    15    20    1
    23    16    17   ar
    24    17    18   ar
    25    18    19   ar
    26    20    21    1
    27    21    22    1
    28    22    23    1
    29    22    24    1
    30    22    27    1
