@<TRIPOS>MOLECULE
28007_ChemDiv_7202-2993
 26 29 0 0 0
SMALL
GASTEIGER
Energy = 0

@<TRIPOS>ATOM
      1 S           0.5460   -2.1130    0.0000 S.O2    1  LIG1       -0.0578
      2 N           1.5250   -2.3250    0.0000 N.pl3   1  LIG1       -0.5358
      3 C           2.1830   -1.5830    0.0000 C.ar    1  LIG1       -0.1121
      4 C           1.8830   -0.6330    0.0000 C.ar    1  LIG1       -0.0210
      5 C           2.5540    0.1130    0.0000 C.ar    1  LIG1        0.0314
      6 C           2.4420    1.1080    0.0000 C.ar    1  LIG1        0.0110
      7 C           3.3540    1.5080    0.0000 C.ar    1  LIG1        0.1188
      8 O           4.0330    0.7630    0.0000 O.2     1  LIG1       -0.4581
      9 C           3.5330   -0.1000    0.0000 C.ar    1  LIG1        0.1444
     10 C           3.8330   -1.0540    0.0000 C.ar    1  LIG1        0.0356
     11 C           3.1750   -1.7960    0.0000 C.ar    1  LIG1       -0.0207
     12 C           3.4540    2.5000    0.0000 C.3     1  LIG1        0.0642
     13 C           2.6420    3.0920    0.0000 C.3     1  LIG1        0.0083
     14 C           1.7460    2.6880    0.0000 C.3     1  LIG1        0.0052
     15 C           1.6380    1.7000    0.0000 C.3     1  LIG1        0.0292
     16 C          -0.4290   -1.9040    0.0000 C.ar    1  LIG1        0.0893
     17 C          -1.1040   -2.6380    0.0000 C.ar    1  LIG1        0.0169
     18 C          -2.0750   -2.4250    0.0000 C.ar    1  LIG1        0.0024
     19 C          -2.3880   -1.4790    0.0000 C.ar    1  LIG1        0.0141
     20 C          -3.3710   -1.2790    0.0000 C.2     1  LIG1        0.0729
     21 O          -3.7000   -0.3250    0.0000 O.co2   1  LIG1       -0.5446
     22 O          -4.0370   -2.0250    0.0000 O.co2   1  LIG1       -0.5446
     23 C          -1.7170   -0.7380    0.0000 C.ar    1  LIG1        0.0024
     24 C          -0.7380   -0.9460    0.0000 C.ar    1  LIG1        0.0169
     25 O           0.3330   -3.0880    0.0000 O.2     1  LIG1       -0.1842
     26 O           0.7580   -1.1250    0.0000 O.2     1  LIG1       -0.1842
@<TRIPOS>BOND
     1     1     2    1
     2     1    16    1
     3     1    25    2
     4     1    26    2
     5     2     3    1
     6     3     4   ar
     7     3    11   ar
     8     4     5   ar
     9     5     6   ar
    10     5     9   ar
    11     6     7   ar
    12     6    15    1
    13     7     8   ar
    14     7    12    1
    15     8     9   ar
    16     9    10   ar
    17    10    11   ar
    18    12    13    1
    19    13    14    1
    20    14    15    1
    21    16    17   ar
    22    16    24   ar
    23    17    18   ar
    24    18    19   ar
    25    19    20    1
    26    19    23   ar
    27    20    21   ar
    28    20    22   ar
    29    23    24   ar
