@<TRIPOS>MOLECULE
28005_ChemDiv_7202-2984
 27 30 0 0 0
SMALL
GASTEIGER
Energy = 0

@<TRIPOS>ATOM
      1 S          -1.2290    1.3960    0.0000 S.O2    1  LIG1       -0.0578
      2 N          -2.1330    0.9670    0.0000 N.pl3   1  LIG1       -0.5358
      3 C          -2.2290   -0.0250    0.0000 C.ar    1  LIG1       -0.1121
      4 C          -1.4130   -0.6000    0.0000 C.ar    1  LIG1       -0.0206
      5 C          -1.5170   -1.6000    0.0000 C.ar    1  LIG1        0.0381
      6 C          -0.8420   -2.3500    0.0000 C.ar    1  LIG1        0.0678
      7 C          -1.3380   -3.2130    0.0000 C.ar    1  LIG1        0.1255
      8 O          -2.3170   -3.0000    0.0000 O.2     1  LIG1       -0.4577
      9 C          -2.4080   -2.0130    0.0000 C.ar    1  LIG1        0.1448
     10 C          -3.2290   -1.4210    0.0000 C.ar    1  LIG1        0.0356
     11 C          -3.1330   -0.4210    0.0000 C.ar    1  LIG1       -0.0207
     12 C          -0.8420   -4.0790    0.0000 C.3     1  LIG1        0.0651
     13 C           0.1580   -4.0790    0.0000 C.3     1  LIG1        0.0161
     14 C           0.6580   -3.2130    0.0000 C.3     1  LIG1        0.0697
     15 C           0.1580   -2.3500    0.0000 C.2     1  LIG1        0.1758
     16 O           0.6750   -1.4790    0.0000 O.2     1  LIG1       -0.2912
     17 C          -0.3250    1.8170    0.0000 C.ar    1  LIG1        0.0893
     18 C          -0.2330    2.8080    0.0000 C.ar    1  LIG1        0.0169
     19 C           0.6750    3.2330    0.0000 C.ar    1  LIG1        0.0024
     20 C           1.4880    2.6630    0.0000 C.ar    1  LIG1        0.0141
     21 C           2.4040    3.0830    0.0000 C.2     1  LIG1        0.0729
     22 O           3.2250    2.5080    0.0000 O.co2   1  LIG1       -0.5446
     23 O           2.4920    4.0790    0.0000 O.co2   1  LIG1       -0.5446
     24 C           1.3960    1.6630    0.0000 C.ar    1  LIG1        0.0024
     25 C           0.4920    1.2420    0.0000 C.ar    1  LIG1        0.0169
     26 O          -1.6500    2.3130    0.0000 O.2     1  LIG1       -0.1842
     27 O          -0.8080    0.4830    0.0000 O.2     1  LIG1       -0.1842
@<TRIPOS>BOND
     1     1     2    1
     2     1    17    1
     3     1    26    2
     4     1    27    2
     5     2     3    1
     6     3     4   ar
     7     3    11   ar
     8     4     5   ar
     9     5     6   ar
    10     5     9   ar
    11     6     7   ar
    12     6    15    1
    13     7     8   ar
    14     7    12    1
    15     8     9   ar
    16     9    10   ar
    17    10    11   ar
    18    12    13    1
    19    13    14    1
    20    14    15    1
    21    15    16    2
    22    17    18   ar
    23    17    25   ar
    24    18    19   ar
    25    19    20   ar
    26    20    21    1
    27    20    24   ar
    28    21    22   ar
    29    21    23   ar
    30    24    25   ar
