@<TRIPOS>MOLECULE
28001_ChemDiv_7202-2506
 29 33 0 0 0
SMALL
GASTEIGER
Energy = 0

@<TRIPOS>ATOM
      1 S           1.3290   -0.7580    0.0000 S.O2    1  LIG1       -0.0563
      2 C           0.5630   -1.4130    0.0000 C.ar    1  LIG1        0.1068
      3 C           0.7380   -2.3960    0.0000 C.ar    1  LIG1        0.0969
      4 N           1.6750   -2.7420    0.0000 N.ar    1  LIG1       -0.2426
      5 C           1.8540   -3.7170    0.0000 C.ar    1  LIG1        0.0989
      6 C           1.0790   -4.3710    0.0000 C.ar    1  LIG1        0.0207
      7 C           0.1460   -4.0330    0.0000 C.ar    1  LIG1        0.0031
      8 C          -0.0290   -3.0420    0.0000 C.ar    1  LIG1        0.0189
      9 C          -0.9710   -2.6960    0.0000 C.ar    1  LIG1        0.0016
     10 C          -1.1500   -1.7210    0.0000 C.ar    1  LIG1        0.0014
     11 C          -0.3750   -1.0750    0.0000 C.ar    1  LIG1        0.0184
     12 N           2.0880   -0.1080    0.0000 N.pl3   1  LIG1       -0.5358
     13 C           1.9040    0.8750    0.0000 C.ar    1  LIG1       -0.1121
     14 C           0.9670    1.2040    0.0000 C.ar    1  LIG1       -0.0210
     15 C           0.7830    2.1880    0.0000 C.ar    1  LIG1        0.0314
     16 C          -0.0670    2.7170    0.0000 C.ar    1  LIG1        0.0107
     17 C           0.1710    3.6880    0.0000 C.ar    1  LIG1        0.1188
     18 O           1.1630    3.7540    0.0000 O.2     1  LIG1       -0.4581
     19 C           1.5380    2.8420    0.0000 C.ar    1  LIG1        0.1444
     20 C           2.4830    2.5040    0.0000 C.ar    1  LIG1        0.0356
     21 C           2.6670    1.5210    0.0000 C.ar    1  LIG1       -0.0207
     22 C          -0.5580    4.3710    0.0000 C.3     1  LIG1        0.0639
     23 C          -1.5040    4.0960    0.0000 C.3     1  LIG1        0.0043
     24 C          -1.7540    3.1170    0.0000 C.3     1  LIG1       -0.0145
     25 C          -1.0250    2.4330    0.0000 C.3     1  LIG1        0.0253
     26 C          -2.3040    2.2880    0.0000 C.3     1  LIG1       -0.0039
     27 O           0.6750    0.0000    0.0000 O.2     1  LIG1       -0.1841
     28 O           1.9830   -1.5290    0.0000 O.2     1  LIG1       -0.1841
     29 H          -2.6710    3.5250    0.0000 H       1  LIG1        0.0322
@<TRIPOS>BOND
     1     1     2    1
     2     1    12    1
     3     1    27    2
     4     1    28    2
     5     2     3   ar
     6     2    11   ar
     7     3     4   ar
     8     3     8   ar
     9     4     5   ar
    10     5     6   ar
    11     6     7   ar
    12     7     8   ar
    13     8     9   ar
    14     9    10   ar
    15    10    11   ar
    16    12    13    1
    17    13    14   ar
    18    13    21   ar
    19    14    15   ar
    20    15    16   ar
    21    15    19   ar
    22    16    17   ar
    23    16    25    1
    24    17    18   ar
    25    17    22    1
    26    18    19   ar
    27    19    20   ar
    28    20    21   ar
    29    22    23    1
    30    23    24    1
    31    24    25    1
    32    24    26    1
    33    24    29    1
