@<TRIPOS>MOLECULE
28011_ChemDiv_8013-2082
 28 31 0 0 0
SMALL
GASTEIGER
Energy = 0

@<TRIPOS>ATOM
      1 S          -1.7040   -0.2830    0.0000 S.O2    1  LIG1        0.0820
      2 N          -1.2130    0.5830    0.0000 N.am    1  LIG1       -0.1376
      3 C          -0.2130    0.5830    0.0000 C.ar    1  LIG1        0.0767
      4 C           0.2960    1.4380    0.0000 C.ar    1  LIG1        0.0194
      5 C           1.2880    1.4380    0.0000 C.ar    1  LIG1        0.0345
      6 C           1.9670    2.1790    0.0000 C.ar    1  LIG1        0.0111
      7 C           2.8830    1.7790    0.0000 C.ar    1  LIG1        0.1188
      8 O           2.7710    0.7960    0.0000 O.2     1  LIG1       -0.4581
      9 C           1.8040    0.5830    0.0000 C.ar    1  LIG1        0.1446
     10 C           1.3040   -0.2830    0.0000 C.ar    1  LIG1        0.0388
     11 C           0.2960   -0.2830    0.0000 C.ar    1  LIG1        0.0198
     12 C           3.7000    2.3670    0.0000 C.3     1  LIG1        0.0642
     13 C           3.6000    3.3630    0.0000 C.3     1  LIG1        0.0083
     14 C           2.6880    3.7710    0.0000 C.3     1  LIG1        0.0052
     15 C           1.8750    3.1830    0.0000 C.3     1  LIG1        0.0292
     16 C          -1.7210    1.4380    0.0000 C.2     1  LIG1        0.2485
     17 O          -2.7130    1.4380    0.0000 O.2     1  LIG1       -0.2729
     18 C          -1.2130    2.3040    0.0000 C.3     1  LIG1        0.0968
     19 C          -2.2170   -1.1540    0.0000 C.ar    1  LIG1        0.1219
     20 C          -3.2210   -1.1540    0.0000 C.ar    1  LIG1       -0.0033
     21 C          -3.7040   -2.0290    0.0000 C.ar    1  LIG1       -0.0072
     22 C          -3.2210   -2.8920    0.0000 C.ar    1  LIG1       -0.0221
     23 C          -2.2170   -2.8920    0.0000 C.ar    1  LIG1       -0.0029
     24 C          -1.7210   -2.0290    0.0000 C.ar    1  LIG1        0.0196
     25 C          -3.7040   -3.7670    0.0000 C.3     1  LIG1        0.0310
     26 C          -3.7040   -0.2880    0.0000 C.3     1  LIG1        0.0324
     27 O          -2.5920    0.2170    0.0000 O.2     1  LIG1       -0.1494
     28 O          -0.8330   -0.7920    0.0000 O.2     1  LIG1       -0.1494
@<TRIPOS>BOND
     1     1     2    1
     2     1    19    1
     3     1    27    2
     4     1    28    2
     5     2     3    1
     6     2    16   am
     7     3     4   ar
     8     3    11   ar
     9     4     5   ar
    10     5     6   ar
    11     5     9   ar
    12     6     7   ar
    13     6    15    1
    14     7     8   ar
    15     7    12    1
    16     8     9   ar
    17     9    10   ar
    18    10    11   ar
    19    12    13    1
    20    13    14    1
    21    14    15    1
    22    16    17    2
    23    16    18    1
    24    19    20   ar
    25    19    24   ar
    26    20    21   ar
    27    20    26    1
    28    21    22   ar
    29    22    23   ar
    30    22    25    1
    31    23    24   ar
