@<TRIPOS>MOLECULE
28015_ChemDiv_8016-2989
 27 30 0 0 0
SMALL
GASTEIGER
Energy = 0

@<TRIPOS>ATOM
      1 S           2.0420    0.9960    0.0000 S.O2    1  LIG1       -0.0548
      2 C           2.9040    0.4960    0.0000 C.ar    1  LIG1        0.1261
      3 C           2.9040   -0.4920    0.0000 C.ar    1  LIG1        0.0569
      4 C           3.7750   -0.9920    0.0000 C.ar    1  LIG1        0.1402
      5 C           4.6420   -0.4920    0.0000 C.ar    1  LIG1        0.0401
      6 C           4.6420    0.4960    0.0000 C.ar    1  LIG1        0.0413
      7 C           3.7750    0.9960    0.0000 C.ar    1  LIG1        0.1545
      8 O           3.7750    1.9960    0.0000 O.3     1  LIG1       -0.4702
      9 C           4.6380    2.4960    0.0000 C.3     1  LIG1        0.2525
     10 O           3.7750   -1.9920    0.0000 O.3     1  LIG1       -0.4714
     11 C           4.6380   -2.4920    0.0000 C.3     1  LIG1        0.2525
     12 N           1.1790    1.4920    0.0000 N.pl3   1  LIG1       -0.5357
     13 C           0.3130    0.9960    0.0000 C.ar    1  LIG1       -0.1121
     14 C          -0.5580    1.4920    0.0000 C.ar    1  LIG1       -0.0210
     15 C          -1.4210    0.9790    0.0000 C.ar    1  LIG1        0.0314
     16 C          -3.0330    0.9670    0.0000 C.ar    1  LIG1        0.0110
     17 C          -3.0330    0.0290    0.0000 C.ar    1  LIG1        0.1188
     18 O          -2.2250   -0.4290    0.0000 O.2     1  LIG1       -0.4581
     19 C          -1.4210    0.0000    0.0000 C.ar    1  LIG1        0.1444
     20 C          -0.5580   -0.4920    0.0000 C.ar    1  LIG1        0.0356
     21 C           0.3130    0.0000    0.0000 C.ar    1  LIG1       -0.0207
     22 C          -3.8380   -0.4290    0.0000 C.3     1  LIG1        0.0642
     23 C          -4.6460    0.0290    0.0000 C.3     1  LIG1        0.0083
     24 C          -4.6460    0.9670    0.0000 C.3     1  LIG1        0.0052
     25 C          -3.8380    1.4290    0.0000 C.3     1  LIG1        0.0292
     26 O           1.5420    0.1290    0.0000 O.2     1  LIG1       -0.1841
     27 O           2.5420    1.8580    0.0000 O.2     1  LIG1       -0.1841
@<TRIPOS>BOND
     1     1     2    1
     2     1    12    1
     3     1    26    2
     4     1    27    2
     5     2     3   ar
     6     2     7   ar
     7     3     4   ar
     8     4     5   ar
     9     4    10    1
    10     5     6   ar
    11     6     7   ar
    12     7     8    1
    13     8     9    1
    14    10    11    1
    15    12    13    1
    16    13    14   ar
    17    13    21   ar
    18    14    15   ar
    19    15    16   ar
    20    15    19   ar
    21    16    17   ar
    22    16    25    1
    23    17    18   ar
    24    17    22    1
    25    18    19   ar
    26    19    20   ar
    27    20    21   ar
    28    22    23    1
    29    23    24    1
    30    24    25    1
