@<TRIPOS>MOLECULE
28013_ChemDiv_8015-0989
 29 32 0 0 0
SMALL
GASTEIGER
Energy = 0

@<TRIPOS>ATOM
      1 S          -0.5960    1.1710    0.0000 S.O2    1  LIG1       -0.0578
      2 N          -1.5920    1.1710    0.0000 N.pl3   1  LIG1       -0.5358
      3 C          -2.0960    0.3040    0.0000 C.ar    1  LIG1       -0.1121
      4 C          -3.0960    0.3040    0.0000 C.ar    1  LIG1       -0.0210
      5 C          -3.5960   -0.5580    0.0000 C.ar    1  LIG1        0.0314
      6 C          -4.5750   -0.7670    0.0000 C.ar    1  LIG1        0.0110
      7 C          -4.6790   -1.7630    0.0000 C.ar    1  LIG1        0.1188
      8 O          -3.7670   -2.1710    0.0000 O.2     1  LIG1       -0.4581
      9 C          -3.0960   -1.4250    0.0000 C.ar    1  LIG1        0.1444
     10 C          -2.0960   -1.4250    0.0000 C.ar    1  LIG1        0.0356
     11 C          -1.5920   -0.5580    0.0000 C.ar    1  LIG1       -0.0207
     12 C          -5.5960   -2.1710    0.0000 C.3     1  LIG1        0.0642
     13 C          -6.4040   -1.5790    0.0000 C.3     1  LIG1        0.0083
     14 C          -6.3000   -0.5830    0.0000 C.3     1  LIG1        0.0052
     15 C          -5.3880   -0.1790    0.0000 C.3     1  LIG1        0.0292
     16 C           0.4080    1.1710    0.0000 C.ar    1  LIG1        0.0893
     17 C           0.9080    0.3040    0.0000 C.ar    1  LIG1        0.0166
     18 C           1.9080    0.3040    0.0000 C.ar    1  LIG1       -0.0029
     19 C           2.4040    1.1710    0.0000 C.ar    1  LIG1       -0.0203
     20 C           1.9080    2.0420    0.0000 C.ar    1  LIG1       -0.0029
     21 C           0.9080    2.0330    0.0000 C.ar    1  LIG1        0.0166
     22 C           3.4080    1.1710    0.0000 C.3     1  LIG1        0.0498
     23 C           3.8960    0.3000    0.0000 C.3     1  LIG1        0.1198
     24 N           4.8880    0.2880    0.0000 N.am    1  LIG1       -0.2051
     25 C           5.3830   -0.5540    0.0000 C.2     1  LIG1        0.2419
     26 O           6.4040   -0.5580    0.0000 O.2     1  LIG1       -0.2733
     27 C           4.8880   -1.4170    0.0000 C.3     1  LIG1        0.0964
     28 O          -0.5960    2.1750    0.0000 O.2     1  LIG1       -0.1842
     29 O          -0.5960    0.1750    0.0000 O.2     1  LIG1       -0.1842
@<TRIPOS>BOND
     1     1     2    1
     2     1    16    1
     3     1    28    2
     4     1    29    2
     5     2     3    1
     6     3     4   ar
     7     3    11   ar
     8     4     5   ar
     9     5     6   ar
    10     5     9   ar
    11     6     7   ar
    12     6    15    1
    13     7     8   ar
    14     7    12    1
    15     8     9   ar
    16     9    10   ar
    17    10    11   ar
    18    12    13    1
    19    13    14    1
    20    14    15    1
    21    16    17   ar
    22    16    21   ar
    23    17    18   ar
    24    18    19   ar
    25    19    20   ar
    26    19    22    1
    27    20    21   ar
    28    22    23    1
    29    23    24    1
    30    24    25   am
    31    25    26    2
    32    25    27    1
