@<TRIPOS>MOLECULE
28017_ChemDiv_4177-0019
 25 28 0 0 0
SMALL
GASTEIGER
Energy = 0

@<TRIPOS>ATOM
      1 C          -0.0080   -0.5380    0.0000 C.3     1  LIG1        0.1968
      2 C          -0.0080    0.4830    0.0000 C.3     1  LIG1        0.1819
      3 N          -0.9790    0.7920    0.0000 N.am    1  LIG1       -0.2437
      4 C          -1.5670   -0.0540    0.0000 C.2     1  LIG1        0.3100
      5 N          -0.9460   -0.8130    0.0000 N.am    1  LIG1       -0.2425
      6 C          -1.2250   -1.7670    0.0000 C.3     1  LIG1        0.1184
      7 O          -2.5710   -0.0540    0.0000 O.2     1  LIG1       -0.2522
      8 C          -1.2750    1.7330    0.0000 C.3     1  LIG1        0.1183
      9 N           0.9170    0.8000    0.0000 N.am    1  LIG1       -0.2425
     10 C           1.5460   -0.0290    0.0000 C.2     1  LIG1        0.3264
     11 N           0.9670   -0.8420    0.0000 N.am    1  LIG1       -0.1653
     12 O           2.5670   -0.0290    0.0000 O.2     1  LIG1       -0.2507
     13 C           1.1750    1.7460    0.0000 C.3     1  LIG1        0.1184
     14 C          -0.0080    1.4420    0.0000 C.ar    1  LIG1        0.0151
     15 C          -0.8830    1.9630    0.0000 C.ar    1  LIG1       -0.0010
     16 C          -0.8830    2.9670    0.0000 C.ar    1  LIG1       -0.0002
     17 C          -0.0040    3.4710    0.0000 C.ar    1  LIG1       -0.0000
     18 C           0.8540    2.9670    0.0000 C.ar    1  LIG1       -0.0002
     19 C           0.8540    1.9630    0.0000 C.ar    1  LIG1       -0.0010
     20 C          -0.0080   -1.4380    0.0000 C.ar    1  LIG1        0.0165
     21 C           0.8670   -1.9500    0.0000 C.ar    1  LIG1       -0.0010
     22 C           0.8710   -2.9540    0.0000 C.ar    1  LIG1       -0.0002
     23 C           0.0040   -3.4670    0.0000 C.ar    1  LIG1       -0.0000
     24 C          -0.8710   -2.9540    0.0000 C.ar    1  LIG1       -0.0002
     25 C          -0.8710   -1.9500    0.0000 C.ar    1  LIG1       -0.0010
@<TRIPOS>BOND
     1     1     2    1
     2     1     5    1
     3     1    11    1
     4     1    20    1
     5     2     3    1
     6     2     9    1
     7     2    14    1
     8     3     4   am
     9     3     8    1
    10     4     5   am
    11     4     7    2
    12     5     6    1
    13     9    10   am
    14     9    13    1
    15    10    11   am
    16    10    12    2
    17    14    15   ar
    18    14    19   ar
    19    15    16   ar
    20    16    17   ar
    21    17    18   ar
    22    18    19   ar
    23    20    21   ar
    24    20    25   ar
    25    21    22   ar
    26    22    23   ar
    27    23    24   ar
    28    24    25   ar
