@<TRIPOS>MOLECULE
28028_ChemDiv_3970-1871
 28 31 0 0 0
SMALL
GASTEIGER
Energy = 0

@<TRIPOS>ATOM
      1 C           1.8460    1.2460    0.0000 C.2     1  LIG1        0.1109
      2 C           2.7080    1.7330    0.0000 C.2     1  LIG1        0.2771
      3 N           3.5830    1.2460    0.0000 N.am    1  LIG1       -0.1219
      4 C           3.5830    0.2330    0.0000 C.2     1  LIG1        0.3530
      5 N           2.7080   -0.2670    0.0000 N.am    1  LIG1       -0.1219
      6 C           1.8460    0.2330    0.0000 C.2     1  LIG1        0.2771
      7 O           0.9830   -0.2670    0.0000 O.2     1  LIG1       -0.2677
      8 O           4.4380   -0.2670    0.0000 O.2     1  LIG1       -0.2483
      9 O           2.7080    2.7290    0.0000 O.2     1  LIG1       -0.2677
     10 C           0.9830    1.7330    0.0000 C.2     1  LIG1        0.0104
     11 C           0.1290    1.2290    0.0000 C.ar    1  LIG1        0.0137
     12 C           0.0130    0.2330    0.0000 C.ar    1  LIG1        0.0186
     13 C          -0.9580    0.0330    0.0000 C.ar    1  LIG1        0.0637
     14 N          -1.4630    0.8880    0.0000 N.ar    1  LIG1       -0.3099
     15 C          -0.7790    1.6380    0.0000 C.ar    1  LIG1        0.0417
     16 C          -1.0040    2.6080    0.0000 C.3     1  LIG1        0.0504
     17 C          -2.4580    0.9880    0.0000 C.ar    1  LIG1        0.0637
     18 C          -2.8670    1.9130    0.0000 C.ar    1  LIG1        0.0175
     19 C          -3.8670    2.0040    0.0000 C.ar    1  LIG1        0.0015
     20 C          -4.4420    1.1880    0.0000 C.ar    1  LIG1        0.0001
     21 C          -4.0330    0.2790    0.0000 C.ar    1  LIG1        0.0015
     22 C          -3.0380    0.1750    0.0000 C.ar    1  LIG1        0.0175
     23 C          -1.3500   -0.8920    0.0000 C.ar    1  LIG1        0.0161
     24 C          -2.3500   -1.0000    0.0000 C.ar    1  LIG1        0.0014
     25 C          -2.7460   -1.9080    0.0000 C.ar    1  LIG1        0.0000
     26 C          -2.1710   -2.7250    0.0000 C.ar    1  LIG1        0.0000
     27 C          -1.1710   -2.6130    0.0000 C.ar    1  LIG1        0.0000
     28 C          -0.7580   -1.6960    0.0000 C.ar    1  LIG1        0.0014
@<TRIPOS>BOND
     1     1     2    1
     2     1     6    1
     3     1    10    2
     4     2     3   am
     5     2     9    2
     6     3     4   am
     7     4     5   am
     8     4     8    2
     9     5     6   am
    10     6     7    2
    11    10    11    1
    12    11    12   ar
    13    11    15   ar
    14    12    13   ar
    15    13    14   ar
    16    13    23    1
    17    14    15   ar
    18    14    17    1
    19    15    16    1
    20    17    18   ar
    21    17    22   ar
    22    18    19   ar
    23    19    20   ar
    24    20    21   ar
    25    21    22   ar
    26    23    24   ar
    27    23    28   ar
    28    24    25   ar
    29    25    26   ar
    30    26    27   ar
    31    27    28   ar
