@<TRIPOS>MOLECULE
28023_ChemDiv_8006-0838
 18 19 0 0 0
SMALL
GASTEIGER
Energy = 0

@<TRIPOS>ATOM
      1 N           2.6750    1.3670    0.0000 N.am    1  LIG1       -0.1245
      2 C           1.7290    1.0630    0.0000 C.2     1  LIG1        0.2733
      3 C           1.7460    0.0670    0.0000 C.3     1  LIG1        0.1970
      4 N           2.6920   -0.2380    0.0000 N.am    1  LIG1       -0.1746
      5 C           3.2670    0.5830    0.0000 C.2     1  LIG1        0.3466
      6 O           4.2670    0.5830    0.0000 O.2     1  LIG1       -0.2487
      7 C           0.7460    0.0670    0.0000 C.ar    1  LIG1        0.0065
      8 C           0.2460   -0.8080    0.0000 C.ar    1  LIG1        0.0010
      9 C          -0.7710   -0.8080    0.0000 C.ar    1  LIG1        0.0366
     10 C          -1.2750    0.0460    0.0000 C.ar    1  LIG1        0.1385
     11 O          -2.2710    0.0460    0.0000 O.3     1  LIG1       -0.4755
     12 C          -2.7670   -0.8080    0.0000 C.3     1  LIG1        0.2053
     13 C          -3.7710   -0.8080    0.0000 C.3     1  LIG1        0.0438
     14 C          -4.2710   -1.6670    0.0000 C.3     1  LIG1        0.0038
     15 C          -4.2710    0.0670    0.0000 C.3     1  LIG1        0.0038
     16 C          -0.7710    0.9080    0.0000 C.ar    1  LIG1        0.0366
     17 C           0.2460    0.9290    0.0000 C.ar    1  LIG1        0.0010
     18 O           0.9250    1.6710    0.0000 O.2     1  LIG1       -0.2706
@<TRIPOS>BOND
     1     1     2   am
     2     1     5   am
     3     2     3    1
     4     2    18    2
     5     3     4    1
     6     3     7    1
     7     4     5   am
     8     5     6    2
     9     7     8   ar
    10     7    17   ar
    11     8     9   ar
    12     9    10   ar
    13    10    11    1
    14    10    16   ar
    15    11    12    1
    16    12    13    1
    17    13    14    1
    18    13    15    1
    19    16    17   ar
