@<TRIPOS>MOLECULE
28029_ChemDiv_2294-1274
 28 31 0 0 0
SMALL
GASTEIGER
Energy = 0

@<TRIPOS>ATOM
      1 C           1.6420    0.0540    0.0000 C.ar    1  LIG1        0.1131
      2 C           2.2380   -0.7630    0.0000 C.ar    1  LIG1        0.1515
      3 O           1.6250   -1.5670    0.0000 O.2     1  LIG1       -0.4533
      4 C           0.6790   -1.2540    0.0000 C.ar    1  LIG1        0.1457
      5 C           0.6880   -0.2500    0.0000 C.ar    1  LIG1        0.0468
      6 C          -0.1670    0.2460    0.0000 C.ar    1  LIG1        0.0409
      7 C          -1.0330   -0.2500    0.0000 C.ar    1  LIG1        0.1491
      8 O          -1.9080    0.2630    0.0000 O.3     1  LIG1       -0.4189
      9 C          -2.7750    0.7670    0.0000 C.2     1  LIG1        0.3808
     10 C          -3.6460    0.2710    0.0000 C.ar    1  LIG1        0.2210
     11 O          -3.7290   -0.7420    0.0000 O.2     1  LIG1       -0.4438
     12 C          -4.7210   -0.9380    0.0000 C.ar    1  LIG1        0.1799
     13 C          -5.2330   -0.0670    0.0000 C.ar    1  LIG1        0.0440
     14 C          -4.5500    0.6880    0.0000 C.ar    1  LIG1        0.0475
     15 O          -2.7750    1.7540    0.0000 O.2     1  LIG1       -0.2410
     16 C          -1.0330   -1.2380    0.0000 C.ar    1  LIG1        0.0407
     17 C          -0.1670   -1.7500    0.0000 C.ar    1  LIG1        0.0406
     18 C           3.2250   -0.7710    0.0000 C.ar    1  LIG1        0.0348
     19 C           3.7250    0.0880    0.0000 C.ar    1  LIG1        0.0030
     20 C           4.7170    0.0880    0.0000 C.ar    1  LIG1        0.0001
     21 C           5.2290   -0.7920    0.0000 C.ar    1  LIG1        0.0000
     22 C           4.7170   -1.6460    0.0000 C.ar    1  LIG1        0.0001
     23 C           3.7210   -1.6380    0.0000 C.ar    1  LIG1        0.0030
     24 C           2.3460    0.7580    0.0000 C.2     1  LIG1        0.3443
     25 O           2.0960    1.7130    0.0000 O.2     1  LIG1       -0.2448
     26 O           3.3000    0.5000    0.0000 O.3     1  LIG1       -0.4454
     27 C           4.0080    1.2080    0.0000 C.3     1  LIG1        0.2089
     28 C           4.9920    0.9710    0.0000 C.3     1  LIG1        0.0513
@<TRIPOS>BOND
     1     1     2   ar
     2     1     5   ar
     3     1    24    1
     4     2     3   ar
     5     2    18    1
     6     3     4   ar
     7     4     5   ar
     8     4    17   ar
     9     5     6   ar
    10     6     7   ar
    11     7     8    1
    12     7    16   ar
    13     8     9    1
    14     9    10    1
    15     9    15    2
    16    10    11   ar
    17    10    14   ar
    18    11    12   ar
    19    12    13   ar
    20    13    14   ar
    21    16    17   ar
    22    18    19   ar
    23    18    23   ar
    24    19    20   ar
    25    20    21   ar
    26    21    22   ar
    27    22    23   ar
    28    24    25    2
    29    24    26    1
    30    26    27    1
    31    27    28    1
