@<TRIPOS>MOLECULE
28021_ChemDiv_8006-0809
 16 17 0 0 0
SMALL
GASTEIGER
Energy = 0

@<TRIPOS>ATOM
      1 N          -0.4750    3.3080    0.0000 N.am    1  LIG1       -0.1245
      2 C           0.3330    2.7080    0.0000 C.2     1  LIG1        0.2733
      3 C          -0.0130    1.7580    0.0000 C.3     1  LIG1        0.1970
      4 N          -0.9670    1.7580    0.0000 N.am    1  LIG1       -0.1746
      5 C          -1.3080    2.7080    0.0000 C.2     1  LIG1        0.3466
      6 O          -2.2790    2.9920    0.0000 O.2     1  LIG1       -0.2487
      7 C           0.5330    0.9080    0.0000 C.ar    1  LIG1        0.0065
      8 C           0.0960    0.0170    0.0000 C.ar    1  LIG1        0.0010
      9 C           0.6210   -0.8130    0.0000 C.ar    1  LIG1        0.0366
     10 C           1.6420   -0.7710    0.0000 C.ar    1  LIG1        0.1385
     11 C           2.0750    0.1330    0.0000 C.ar    1  LIG1        0.0366
     12 C           1.5250    0.9670    0.0000 C.ar    1  LIG1        0.0010
     13 O           2.1670   -1.6080    0.0000 O.3     1  LIG1       -0.4755
     14 C           1.7290   -2.4920    0.0000 C.3     1  LIG1        0.2055
     15 C           2.2750   -3.3040    0.0000 C.3     1  LIG1        0.0512
     16 O           1.3290    2.9920    0.0000 O.2     1  LIG1       -0.2706
@<TRIPOS>BOND
     1     1     2   am
     2     1     5   am
     3     2     3    1
     4     2    16    2
     5     3     4    1
     6     3     7    1
     7     4     5   am
     8     5     6    2
     9     7     8   ar
    10     7    12   ar
    11     8     9   ar
    12     9    10   ar
    13    10    11   ar
    14    10    13    1
    15    11    12   ar
    16    13    14    1
    17    14    15    1
