@<TRIPOS>MOLECULE
28039_ChemDiv_5443-0172
 25 27 0 0 0
SMALL
GASTEIGER
Energy = 0

@<TRIPOS>ATOM
      1 N           2.0750   -0.4420    0.0000 N.ar    1  LIG1       -0.2082
      2 C           2.6710    0.3670    0.0000 C.ar    1  LIG1        0.2297
      3 O           2.0750    1.1790    0.0000 O.2     1  LIG1       -0.4346
      4 C           1.1170    0.8670    0.0000 C.ar    1  LIG1        0.1648
      5 C           1.1170   -0.1330    0.0000 C.ar    1  LIG1        0.1202
      6 C           0.2500   -0.6290    0.0000 C.ar    1  LIG1        0.0389
      7 C          -0.6080   -0.1330    0.0000 C.ar    1  LIG1        0.0751
      8 N          -1.4750   -0.6290    0.0000 N.am    1  LIG1       -0.1792
      9 C          -2.3420   -0.1330    0.0000 C.2     1  LIG1        0.2456
     10 O          -2.3420    0.8670    0.0000 O.2     1  LIG1       -0.2730
     11 C          -3.2080   -0.6290    0.0000 C.3     1  LIG1        0.0872
     12 C          -4.0750   -0.1330    0.0000 C.3     1  LIG1        0.0096
     13 C          -4.9420   -0.6290    0.0000 C.3     1  LIG1        0.0005
     14 C          -5.8080   -0.1330    0.0000 C.3     1  LIG1        0.0000
     15 C          -6.6710   -0.6290    0.0000 C.3     1  LIG1        0.0000
     16 C          -0.6080    0.8670    0.0000 C.ar    1  LIG1        0.0198
     17 C           0.2500    1.3710    0.0000 C.ar    1  LIG1        0.0405
     18 C           3.6710    0.3670    0.0000 C.ar    1  LIG1        0.0543
     19 C           4.1710   -0.5000    0.0000 C.ar    1  LIG1        0.0146
     20 C           5.1710   -0.5000    0.0000 C.ar    1  LIG1        0.0736
     21 C           5.6710    0.3670    0.0000 C.ar    1  LIG1        0.2018
     22 C           5.1710    1.2330    0.0000 C.ar    1  LIG1        0.0427
     23 C           4.1710    1.2330    0.0000 C.ar    1  LIG1        0.0080
     24 O           6.6710    0.3670    0.0000 O.3     1  LIG1       -0.2860
     25 BR          5.6710   -1.3670    0.0000 Br      1  LIG1       -0.0457
@<TRIPOS>BOND
     1     1     2   ar
     2     1     5   ar
     3     2     3   ar
     4     2    18    1
     5     3     4   ar
     6     4     5   ar
     7     4    17   ar
     8     5     6   ar
     9     6     7   ar
    10     7     8    1
    11     7    16   ar
    12     8     9   am
    13     9    10    2
    14     9    11    1
    15    11    12    1
    16    12    13    1
    17    13    14    1
    18    14    15    1
    19    16    17   ar
    20    18    19   ar
    21    18    23   ar
    22    19    20   ar
    23    20    21   ar
    24    20    25    1
    25    21    22   ar
    26    21    24    1
    27    22    23   ar
