@<TRIPOS>MOLECULE
28031_ChemDiv_2294-1280
 25 27 0 0 0
SMALL
GASTEIGER
Energy = 0

@<TRIPOS>ATOM
      1 C          -0.0130   -0.4420    0.0000 C.ar    1  LIG1        0.1130
      2 C           0.5710   -1.2500    0.0000 C.ar    1  LIG1        0.1515
      3 O          -0.0330   -2.0500    0.0000 O.2     1  LIG1       -0.4533
      4 C          -0.9790   -1.7380    0.0000 C.ar    1  LIG1        0.1456
      5 C          -0.9630   -0.7460    0.0000 C.ar    1  LIG1        0.0484
      6 C          -1.8290   -0.2500    0.0000 C.ar    1  LIG1        0.0765
      7 C          -2.6880   -0.7290    0.0000 C.ar    1  LIG1        0.1974
      8 C          -2.7040   -1.7380    0.0000 C.ar    1  LIG1        0.0450
      9 C          -1.8380   -2.2460    0.0000 C.ar    1  LIG1        0.0408
     10 O          -3.5710   -0.2290    0.0000 O.3     1  LIG1       -0.2867
     11 C          -1.8290    0.7580    0.0000 C.3     1  LIG1        0.1701
     12 N          -2.6880    1.2580    0.0000 N.4     1  LIG1        0.3902
     13 C          -3.5540    0.7630    0.0000 C.3     1  LIG1        0.2030
     14 C          -2.6880    2.2500    0.0000 C.3     1  LIG1        0.2030
     15 C           1.5670   -1.2500    0.0000 C.ar    1  LIG1        0.0348
     16 C           2.0630   -2.1380    0.0000 C.ar    1  LIG1        0.0030
     17 C           3.0710   -2.1460    0.0000 C.ar    1  LIG1        0.0001
     18 C           3.5670   -1.2710    0.0000 C.ar    1  LIG1        0.0000
     19 C           3.0710   -0.4040    0.0000 C.ar    1  LIG1        0.0001
     20 C           2.0790   -0.3920    0.0000 C.ar    1  LIG1        0.0030
     21 C           0.6960    0.2670    0.0000 C.2     1  LIG1        0.3443
     22 O           0.4290    1.2330    0.0000 O.2     1  LIG1       -0.2448
     23 O           1.6540    0.0210    0.0000 O.3     1  LIG1       -0.4454
     24 C           2.3630    0.7290    0.0000 C.3     1  LIG1        0.2089
     25 C           3.3380    0.4750    0.0000 C.3     1  LIG1        0.0513
@<TRIPOS>BOND
     1     1     2   ar
     2     1     5   ar
     3     1    21    1
     4     2     3   ar
     5     2    15    1
     6     3     4   ar
     7     4     5   ar
     8     4     9   ar
     9     5     6   ar
    10     6     7   ar
    11     6    11    1
    12     7     8   ar
    13     7    10    1
    14     8     9   ar
    15    11    12    1
    16    12    13    1
    17    12    14    1
    18    15    16   ar
    19    15    20   ar
    20    16    17   ar
    21    17    18   ar
    22    18    19   ar
    23    19    20   ar
    24    21    22    2
    25    21    23    1
    26    23    24    1
    27    24    25    1
