@<TRIPOS>MOLECULE
28035_ChemDiv_2387-1641
 28 33 0 0 0
SMALL
GASTEIGER
Energy = 0

@<TRIPOS>ATOM
      1 C           3.6170   -0.4460    0.0000 C.3     1  LIG1        0.0708
      2 C           2.5540   -0.4460    0.0000 C.2     1  LIG1        0.2446
      3 N           2.0080    0.3790    0.0000 N.am    1  LIG1       -0.1792
      4 C           0.9880    0.3790    0.0000 C.ar    1  LIG1        0.0734
      5 C           0.4830    1.2330    0.0000 C.ar    1  LIG1        0.0167
      6 C          -0.5380    1.2330    0.0000 C.ar    1  LIG1        0.0060
      7 C          -1.0460    0.3630    0.0000 C.ar    1  LIG1        0.0537
      8 C          -2.0380    0.3630    0.0000 C.ar    1  LIG1        0.2297
      9 N          -2.6630   -0.5000    0.0000 N.ar    1  LIG1       -0.2083
     10 C          -3.6580   -0.1750    0.0000 C.ar    1  LIG1        0.1189
     11 C          -3.6580    0.8210    0.0000 C.ar    1  LIG1        0.1647
     12 O          -2.7000    1.1500    0.0000 O.2     1  LIG1       -0.4346
     13 C          -4.4710    1.2960    0.0000 C.ar    1  LIG1        0.0391
     14 C          -5.3580    0.7960    0.0000 C.ar    1  LIG1        0.0032
     15 C          -5.3420   -0.1580    0.0000 C.ar    1  LIG1        0.0018
     16 C          -4.4540   -0.6540    0.0000 C.ar    1  LIG1        0.0223
     17 C          -0.5080   -0.4790    0.0000 C.ar    1  LIG1        0.0060
     18 C           0.5080   -0.5000    0.0000 C.ar    1  LIG1        0.0167
     19 O           2.0580   -1.2920    0.0000 O.2     1  LIG1       -0.2730
     20 C           4.6040   -0.7920    0.0000 C.3     1  LIG1        0.0087
     21 C           5.3540   -0.4460    0.0000 C.3     1  LIG1        0.0005
     22 C           5.3540    0.5170    0.0000 C.3     1  LIG1        0.0000
     23 C           4.6040    1.0130    0.0000 C.3     1  LIG1        0.0005
     24 C           3.6170    0.5170    0.0000 C.3     1  LIG1        0.0087
     25 C           3.9210    0.2380    0.0000 C.3     1  LIG1        0.0000
     26 C           3.9210   -0.9380    0.0000 C.3     1  LIG1        0.0005
     27 C           2.9750   -1.2170    0.0000 C.3     1  LIG1        0.0087
     28 C           4.7460   -1.2630    0.0000 C.3     1  LIG1        0.0000
@<TRIPOS>BOND
     1     1     2    1
     2     1    20    1
     3     1    24    1
     4     1    27    1
     5     2     3   am
     6     2    19    2
     7     3     4    1
     8     4     5   ar
     9     4    18   ar
    10     5     6   ar
    11     6     7   ar
    12     7     8    1
    13     7    17   ar
    14     8     9   ar
    15     8    12   ar
    16     9    10   ar
    17    10    11   ar
    18    10    16   ar
    19    11    12   ar
    20    11    13   ar
    21    13    14   ar
    22    14    15   ar
    23    15    16   ar
    24    17    18   ar
    25    20    21    1
    26    21    22    1
    27    21    28    1
    28    22    23    1
    29    23    24    1
    30    23    25    1
    31    25    26    1
    32    26    27    1
    33    26    28    1
