@<TRIPOS>MOLECULE
28033_ChemDiv_2252-1534
 28 33 0 0 0
SMALL
GASTEIGER
Energy = 0

@<TRIPOS>ATOM
      1 C          -1.0080   -3.1000    0.0000 C.3     1  LIG1        0.0708
      2 C          -1.0080   -2.2130    0.0000 C.2     1  LIG1        0.2446
      3 N          -0.1380   -1.6790    0.0000 N.am    1  LIG1       -0.1791
      4 C          -0.1380   -0.6920    0.0000 C.ar    1  LIG1        0.0765
      5 C           0.7040   -0.0960    0.0000 C.ar    1  LIG1        0.0557
      6 C           0.6250    0.8880    0.0000 C.ar    1  LIG1        0.1660
      7 O           1.3500    1.6170    0.0000 O.2     1  LIG1       -0.4345
      8 C           0.8880    2.5250    0.0000 C.ar    1  LIG1        0.2297
      9 N          -0.1000    2.3130    0.0000 N.ar    1  LIG1       -0.2083
     10 C          -0.2130    1.3080    0.0000 C.ar    1  LIG1        0.1189
     11 C          -1.0670    0.7670    0.0000 C.ar    1  LIG1        0.0236
     12 C          -0.9790   -0.2790    0.0000 C.ar    1  LIG1        0.0183
     13 C           1.3080    3.4210    0.0000 C.ar    1  LIG1        0.0536
     14 C           2.3040    3.5000    0.0000 C.ar    1  LIG1        0.0046
     15 C           2.7210    4.4040    0.0000 C.ar    1  LIG1        0.0002
     16 C           2.1330    5.2170    0.0000 C.ar    1  LIG1        0.0000
     17 C           1.1580    5.1210    0.0000 C.ar    1  LIG1        0.0002
     18 C           0.7500    4.2290    0.0000 C.ar    1  LIG1        0.0046
     19 O          -1.9040   -1.7040    0.0000 O.2     1  LIG1       -0.2730
     20 C          -0.1580   -3.5920    0.0000 C.3     1  LIG1        0.0087
     21 C          -0.1580   -4.4250    0.0000 C.3     1  LIG1        0.0005
     22 C          -0.8330   -5.2170    0.0000 C.3     1  LIG1        0.0000
     23 C          -1.8130   -4.8830    0.0000 C.3     1  LIG1        0.0005
     24 C          -1.8130   -3.8460    0.0000 C.3     1  LIG1        0.0087
     25 C          -2.7250   -5.2170    0.0000 C.3     1  LIG1        0.0000
     26 C          -2.0750   -4.4250    0.0000 C.3     1  LIG1        0.0005
     27 C          -2.0750   -3.5170    0.0000 C.3     1  LIG1        0.0087
     28 C          -1.0080   -4.7710    0.0000 C.3     1  LIG1        0.0000
@<TRIPOS>BOND
     1     1     2    1
     2     1    20    1
     3     1    24    1
     4     1    27    1
     5     2     3   am
     6     2    19    2
     7     3     4    1
     8     4     5   ar
     9     4    12   ar
    10     5     6   ar
    11     6     7   ar
    12     6    10   ar
    13     7     8   ar
    14     8     9   ar
    15     8    13    1
    16     9    10   ar
    17    10    11   ar
    18    11    12   ar
    19    13    14   ar
    20    13    18   ar
    21    14    15   ar
    22    15    16   ar
    23    16    17   ar
    24    17    18   ar
    25    20    21    1
    26    21    22    1
    27    21    28    1
    28    22    23    1
    29    23    24    1
    30    23    25    1
    31    25    26    1
    32    26    27    1
    33    26    28    1
