@<TRIPOS>MOLECULE
28037_ChemDiv_2922-2389
 22 25 0 0 0
SMALL
GASTEIGER
Energy = 0

@<TRIPOS>ATOM
      1 N           2.4750   -0.0790    0.0000 N.am    1  LIG1       -0.2081
      2 C           1.6000   -0.5540    0.0000 C.ar    1  LIG1        0.0608
      3 C           0.7210   -0.0540    0.0000 C.ar    1  LIG1        0.0200
      4 C          -0.1380   -0.5630    0.0000 C.ar    1  LIG1        0.0548
      5 C          -1.0000   -0.0670    0.0000 C.ar    1  LIG1        0.2297
      6 N          -1.9210   -0.4580    0.0000 N.ar    1  LIG1       -0.2083
      7 C          -2.5630    0.3290    0.0000 C.ar    1  LIG1        0.1189
      8 C          -2.0330    1.1500    0.0000 C.ar    1  LIG1        0.1647
      9 O          -1.0540    0.8960    0.0000 O.2     1  LIG1       -0.4346
     10 C          -2.4880    2.0420    0.0000 C.ar    1  LIG1        0.0391
     11 C          -3.4920    2.0880    0.0000 C.ar    1  LIG1        0.0032
     12 C          -4.0420    1.2420    0.0000 C.ar    1  LIG1        0.0018
     13 C          -3.5790    0.3710    0.0000 C.ar    1  LIG1        0.0223
     14 C          -0.1380   -1.5670    0.0000 C.ar    1  LIG1        0.0047
     15 C           0.7170   -2.0830    0.0000 C.ar    1  LIG1        0.0014
     16 C           1.6000   -1.5460    0.0000 C.ar    1  LIG1        0.0153
     17 C           2.5710    0.8960    0.0000 C.2     1  LIG1        0.2356
     18 C           3.5580    1.0880    0.0000 C.3     1  LIG1        0.0956
     19 C           4.0370    0.2170    0.0000 C.3     1  LIG1        0.0956
     20 C           3.3580   -0.5040    0.0000 C.2     1  LIG1        0.2356
     21 O           3.5290   -1.5130    0.0000 O.2     1  LIG1       -0.2741
     22 O           1.8040    1.5710    0.0000 O.2     1  LIG1       -0.2741
@<TRIPOS>BOND
     1     1     2    1
     2     1    17   am
     3     1    20   am
     4     2     3   ar
     5     2    16   ar
     6     3     4   ar
     7     4     5    1
     8     4    14   ar
     9     5     6   ar
    10     5     9   ar
    11     6     7   ar
    12     7     8   ar
    13     7    13   ar
    14     8     9   ar
    15     8    10   ar
    16    10    11   ar
    17    11    12   ar
    18    12    13   ar
    19    14    15   ar
    20    15    16   ar
    21    17    18    1
    22    17    22    2
    23    18    19    1
    24    19    20    1
    25    20    21    2
