@<TRIPOS>MOLECULE
28043_ChemDiv_K628-0071
 36 41 0 0 0
SMALL
GASTEIGER
Energy = 0

@<TRIPOS>ATOM
      1 N           2.4880   -2.3580    0.0000 N.am    1  LIG1       -0.2031
      2 C           3.0580   -3.1710    0.0000 C.2     1  LIG1        0.2419
      3 C           2.4580   -3.9630    0.0000 C.3     1  LIG1        0.1581
      4 C           1.5250   -3.6500    0.0000 C.3     1  LIG1        0.2302
      5 C           1.5380   -2.6580    0.0000 C.2     1  LIG1        0.2927
      6 O           0.7130   -2.0580    0.0000 O.2     1  LIG1       -0.2677
      7 N           0.6960   -4.2330    0.0000 N.4     1  LIG1        0.4465
      8 C          -0.2170   -3.8130    0.0000 C.3     1  LIG1        0.1560
      9 C          -1.0290   -4.4040    0.0000 C.3     1  LIG1        0.1252
     10 C          -1.9500   -3.9830    0.0000 C.3     1  LIG1        0.1453
     11 N          -2.0420   -2.9580    0.0000 N.4     1  LIG1        0.3810
     12 C          -2.9540   -2.5380    0.0000 C.3     1  LIG1        0.1662
     13 C          -3.7880   -3.0790    0.0000 C.ar    1  LIG1        0.0344
     14 C          -4.6880   -2.6380    0.0000 C.ar    1  LIG1        0.0014
     15 C          -5.5080   -3.2000    0.0000 C.ar    1  LIG1       -0.0001
     16 C          -5.4420   -4.2040    0.0000 C.ar    1  LIG1       -0.0000
     17 C          -4.5670   -4.6460    0.0000 C.ar    1  LIG1       -0.0001
     18 C          -3.7250   -4.0710    0.0000 C.ar    1  LIG1        0.0014
     19 C          -1.2290   -2.3880    0.0000 C.3     1  LIG1        0.1453
     20 C          -0.3290   -2.8080    0.0000 C.3     1  LIG1        0.1252
     21 O           4.0630   -3.1710    0.0000 O.2     1  LIG1       -0.2739
     22 C           2.8500   -1.4250    0.0000 C.ar    1  LIG1        0.0608
     23 C           2.2000   -0.6250    0.0000 C.ar    1  LIG1        0.0155
     24 C           2.5880    0.3080    0.0000 C.ar    1  LIG1        0.0059
     25 C           3.5710    0.4580    0.0000 C.ar    1  LIG1        0.0537
     26 C           3.9330    1.3710    0.0000 C.ar    1  LIG1        0.2297
     27 N           4.8750    1.7330    0.0000 N.ar    1  LIG1       -0.2083
     28 C           4.8130    2.7250    0.0000 C.ar    1  LIG1        0.1189
     29 C           3.8500    2.9630    0.0000 C.ar    1  LIG1        0.1647
     30 O           3.3290    2.1210    0.0000 O.2     1  LIG1       -0.4346
     31 C           3.5790    3.9460    0.0000 C.ar    1  LIG1        0.0391
     32 C           4.2750    4.6460    0.0000 C.ar    1  LIG1        0.0032
     33 C           5.2250    4.4040    0.0000 C.ar    1  LIG1        0.0018
     34 C           5.5040    3.4460    0.0000 C.ar    1  LIG1        0.0223
     35 C           4.2040   -0.3250    0.0000 C.ar    1  LIG1        0.0059
     36 C           3.8420   -1.2540    0.0000 C.ar    1  LIG1        0.0155
@<TRIPOS>BOND
     1     1     2   am
     2     1     5   am
     3     1    22    1
     4     2     3    1
     5     2    21    2
     6     3     4    1
     7     4     5    1
     8     4     7    1
     9     5     6    2
    10     7     8    1
    11     8     9    1
    12     8    20    1
    13     9    10    1
    14    10    11    1
    15    11    12    1
    16    11    19    1
    17    12    13    1
    18    13    14   ar
    19    13    18   ar
    20    14    15   ar
    21    15    16   ar
    22    16    17   ar
    23    17    18   ar
    24    19    20    1
    25    22    23   ar
    26    22    36   ar
    27    23    24   ar
    28    24    25   ar
    29    25    26    1
    30    25    35   ar
    31    26    27   ar
    32    26    30   ar
    33    27    28   ar
    34    28    29   ar
    35    28    34   ar
    36    29    30   ar
    37    29    31   ar
    38    31    32   ar
    39    32    33   ar
    40    33    34   ar
    41    35    36   ar
