@<TRIPOS>MOLECULE
28041_ChemDiv_8016-0780
 30 35 0 0 0
SMALL
GASTEIGER
Energy = 0

@<TRIPOS>ATOM
      1 C           2.2880    0.9540    0.0000 C.ar    1  LIG1        0.2312
      2 N           2.2250   -0.0460    0.0000 N.ar    1  LIG1       -0.2082
      3 C           1.2500   -0.2830    0.0000 C.ar    1  LIG1        0.1202
      4 C           0.7170    0.5580    0.0000 C.ar    1  LIG1        0.1648
      5 O           1.3540    1.3290    0.0000 O.2     1  LIG1       -0.4345
      6 C          -0.2830    0.5170    0.0000 C.ar    1  LIG1        0.0405
      7 C          -0.7460   -0.3710    0.0000 C.ar    1  LIG1        0.0198
      8 C          -0.2080   -1.2170    0.0000 C.ar    1  LIG1        0.0751
      9 C           0.7790   -1.1710    0.0000 C.ar    1  LIG1        0.0389
     10 N          -0.6750   -2.0960    0.0000 N.am    1  LIG1       -0.1792
     11 C          -1.6750   -2.1420    0.0000 C.2     1  LIG1        0.2456
     12 C          -2.2080   -1.2920    0.0000 C.3     1  LIG1        0.0872
     13 C          -3.2130   -1.3330    0.0000 C.3     1  LIG1        0.0087
     14 C          -3.8710   -2.1630    0.0000 C.3     1  LIG1        0.0005
     15 C          -4.7830   -1.7960    0.0000 C.3     1  LIG1        0.0000
     16 C          -5.7580   -2.0710    0.0000 C.3     1  LIG1        0.0000
     17 C          -4.9830   -1.2420    0.0000 C.3     1  LIG1        0.0000
     18 C          -4.1210   -1.5580    0.0000 C.3     1  LIG1        0.0005
     19 C          -4.9830   -0.2750    0.0000 C.3     1  LIG1        0.0000
     20 C          -4.1130    0.0330    0.0000 C.3     1  LIG1        0.0000
     21 C          -3.2080   -0.3420    0.0000 C.3     1  LIG1        0.0005
     22 C          -4.7880   -0.7710    0.0000 C.3     1  LIG1        0.0000
     23 O          -2.1460   -3.0290    0.0000 O.2     1  LIG1       -0.2730
     24 C           3.1290    1.4920    0.0000 C.ar    1  LIG1        0.0732
     25 C           4.0170    1.0330    0.0000 C.ar    1  LIG1        0.0145
     26 C           4.8670    1.5580    0.0000 C.ar    1  LIG1        0.0539
     27 BR          5.7540    1.0960    0.0000 Br      1  LIG1       -0.0474
     28 C           4.8250    2.5630    0.0000 C.ar    1  LIG1        0.1055
     29 N           3.9380    3.0330    0.0000 N.ar    1  LIG1       -0.2416
     30 C           3.0920    2.4960    0.0000 C.ar    1  LIG1        0.1035
@<TRIPOS>BOND
     1     1     2   ar
     2     1     5   ar
     3     1    24    1
     4     2     3   ar
     5     3     4   ar
     6     3     9   ar
     7     4     5   ar
     8     4     6   ar
     9     6     7   ar
    10     7     8   ar
    11     8     9   ar
    12     8    10    1
    13    10    11   am
    14    11    12    1
    15    11    23    2
    16    12    13    1
    17    13    14    1
    18    13    18    1
    19    13    21    1
    20    14    15    1
    21    15    16    1
    22    15    22    1
    23    16    17    1
    24    17    18    1
    25    17    19    1
    26    19    20    1
    27    20    21    1
    28    20    22    1
    29    24    25   ar
    30    24    30   ar
    31    25    26   ar
    32    26    27    1
    33    26    28   ar
    34    28    29   ar
    35    29    30   ar
