@<TRIPOS>MOLECULE
28049_ChemDiv_2294-1324
 23 25 0 0 0
SMALL
GASTEIGER
Energy = 0

@<TRIPOS>ATOM
      1 C          -0.0290   -0.8000    0.0000 C.ar    1  LIG1        0.0911
      2 C           0.5630   -1.5830    0.0000 C.ar    1  LIG1        0.1496
      3 O          -0.0290   -2.4130    0.0000 O.2     1  LIG1       -0.4533
      4 C          -0.9790   -2.1000    0.0000 C.ar    1  LIG1        0.1456
      5 C          -0.9790   -1.0880    0.0000 C.ar    1  LIG1        0.0451
      6 C          -1.8460   -0.5960    0.0000 C.ar    1  LIG1        0.0453
      7 C          -2.7210   -1.0880    0.0000 C.ar    1  LIG1        0.1959
      8 C          -2.7210   -2.1000    0.0000 C.ar    1  LIG1        0.0452
      9 C          -1.8460   -2.5960    0.0000 C.ar    1  LIG1        0.0408
     10 O          -3.5670   -0.5960    0.0000 O.3     1  LIG1       -0.2866
     11 C           1.5710   -1.5830    0.0000 C.ar    1  LIG1        0.0347
     12 C           2.0670   -2.4540    0.0000 C.ar    1  LIG1        0.0030
     13 C           3.0710   -2.4540    0.0000 C.ar    1  LIG1        0.0001
     14 C           3.5630   -1.5830    0.0000 C.ar    1  LIG1        0.0000
     15 C           3.0580   -0.7290    0.0000 C.ar    1  LIG1        0.0001
     16 C           2.0500   -0.7290    0.0000 C.ar    1  LIG1        0.0030
     17 C           0.2790    0.1670    0.0000 C.2     1  LIG1        0.2521
     18 N          -0.3830    0.9000    0.0000 N.am    1  LIG1       -0.2760
     19 C          -1.3750    0.7040    0.0000 C.3     1  LIG1        0.0938
     20 C          -2.0420    1.4420    0.0000 C.3     1  LIG1        0.0233
     21 C          -0.0750    1.8670    0.0000 C.3     1  LIG1        0.0938
     22 C          -0.7540    2.6000    0.0000 C.3     1  LIG1        0.0233
     23 O           1.2500    0.3630    0.0000 O.2     1  LIG1       -0.2698
@<TRIPOS>BOND
     1     1     2   ar
     2     1     5   ar
     3     1    17    1
     4     2     3   ar
     5     2    11    1
     6     3     4   ar
     7     4     5   ar
     8     4     9   ar
     9     5     6   ar
    10     6     7   ar
    11     7     8   ar
    12     7    10    1
    13     8     9   ar
    14    11    12   ar
    15    11    16   ar
    16    12    13   ar
    17    13    14   ar
    18    14    15   ar
    19    15    16   ar
    20    17    18   am
    21    17    23    2
    22    18    19    1
    23    18    21    1
    24    19    20    1
    25    21    22    1
