@<TRIPOS>MOLECULE
28050_ChemDiv_4766-3782
 29 32 0 0 0
SMALL
GASTEIGER
Energy = 0

@<TRIPOS>ATOM
      1 C           0.4580   -2.2670    0.0000 C.2     1  LIG1        0.0779
      2 C           0.8750   -1.3580    0.0000 C.2     1  LIG1        0.0075
      3 C           0.2750   -0.5500    0.0000 C.ar    1  LIG1        0.0133
      4 C           0.5920    0.3960    0.0000 C.ar    1  LIG1        0.0414
      5 N          -0.2130    0.9960    0.0000 N.ar    1  LIG1       -0.3135
      6 C          -1.0170    0.3960    0.0000 C.ar    1  LIG1        0.0414
      7 C          -0.7130   -0.5500    0.0000 C.ar    1  LIG1        0.0142
      8 C          -1.9710    0.7130    0.0000 C.3     1  LIG1        0.0504
      9 C          -0.2130    1.9830    0.0000 C.ar    1  LIG1        0.0635
     10 C           0.6540    2.4960    0.0000 C.ar    1  LIG1        0.0189
     11 C           0.6540    3.4790    0.0000 C.ar    1  LIG1        0.0215
     12 C          -0.2130    3.9670    0.0000 C.ar    1  LIG1        0.1251
     13 S          -0.2080    4.9710    0.0000 S.O2    1  LIG1        0.0935
     14 O          -1.0630    5.4790    0.0000 O.2     1  LIG1       -0.1503
     15 O          -0.9210    4.2670    0.0000 O.2     1  LIG1       -0.1503
     16 N           0.6540    5.4710    0.0000 N.3     1  LIG1        0.0392
     17 C          -1.0630    3.4790    0.0000 C.ar    1  LIG1        0.0215
     18 C          -1.0750    2.4960    0.0000 C.ar    1  LIG1        0.0189
     19 C           1.5460    0.7130    0.0000 C.3     1  LIG1        0.0504
     20 C           0.9580   -3.1380    0.0000 C.2     1  LIG1        0.1987
     21 C           0.2750   -3.8880    0.0000 C.ar    1  LIG1        0.0421
     22 C          -0.6330   -3.4790    0.0000 C.ar    1  LIG1        0.0421
     23 C          -0.5170   -2.4710    0.0000 C.2     1  LIG1        0.1987
     24 O          -1.2670   -1.8040    0.0000 O.2     1  LIG1       -0.2865
     25 C          -1.4420   -4.0710    0.0000 C.ar    1  LIG1        0.0033
     26 C          -1.3460   -5.0580    0.0000 C.ar    1  LIG1        0.0001
     27 C          -0.4210   -5.4790    0.0000 C.ar    1  LIG1        0.0001
     28 C           0.3920   -4.8790    0.0000 C.ar    1  LIG1        0.0033
     29 O           1.9670   -3.2420    0.0000 O.2     1  LIG1       -0.2865
@<TRIPOS>BOND
     1     1     2    2
     2     1    20    1
     3     1    23    1
     4     2     3    1
     5     3     4   ar
     6     3     7   ar
     7     4     5   ar
     8     4    19    1
     9     5     6   ar
    10     5     9    1
    11     6     7   ar
    12     6     8    1
    13     9    10   ar
    14     9    18   ar
    15    10    11   ar
    16    11    12   ar
    17    12    13    1
    18    12    17   ar
    19    13    14    2
    20    13    15    2
    21    13    16    1
    22    17    18   ar
    23    20    21    1
    24    20    29    2
    25    21    22   ar
    26    21    28   ar
    27    22    23    1
    28    22    25   ar
    29    23    24    2
    30    25    26   ar
    31    26    27   ar
    32    27    28   ar
