@<TRIPOS>MOLECULE
28058_ChemDiv_2372-2096
 29 31 0 0 0
SMALL
GASTEIGER
Energy = 0

@<TRIPOS>ATOM
      1 C          -0.8130    0.6080    0.0000 C.ar    1  LIG1       -0.0165
      2 C          -0.5040    1.5580    0.0000 C.ar    1  LIG1       -0.0039
      3 C           0.4920    1.5580    0.0000 C.ar    1  LIG1       -0.0039
      4 C           0.8000    0.6080    0.0000 C.ar    1  LIG1       -0.0165
      5 C          -0.0130    0.0210    0.0000 C.3     1  LIG1        0.0527
      6 C           1.7790    0.3960    0.0000 C.ar    1  LIG1        0.0127
      7 C           2.4500    1.1380    0.0000 C.ar    1  LIG1        0.0731
      8 N           3.4420    0.9330    0.0000 N.am    1  LIG1       -0.1792
      9 C           3.7670   -0.0130    0.0000 C.2     1  LIG1        0.2459
     10 O           3.1080   -0.7630    0.0000 O.2     1  LIG1       -0.2730
     11 C           4.7460   -0.2040    0.0000 C.3     1  LIG1        0.0931
     12 C           5.0750   -1.1500    0.0000 C.3     1  LIG1        0.0513
     13 C           6.0580   -1.3420    0.0000 C.2     1  LIG1        0.0508
     14 O           6.7170   -0.5830    0.0000 O.co2   1  LIG1       -0.5492
     15 O           6.3880   -2.2880    0.0000 O.co2   1  LIG1       -0.5492
     16 C           2.1380    2.0830    0.0000 C.ar    1  LIG1        0.0166
     17 C           1.1670    2.2960    0.0000 C.ar    1  LIG1        0.0010
     18 C          -1.1750    2.2960    0.0000 C.ar    1  LIG1        0.0010
     19 C          -2.1460    2.0830    0.0000 C.ar    1  LIG1        0.0166
     20 C          -2.4580    1.1380    0.0000 C.ar    1  LIG1        0.0731
     21 N          -3.4500    0.9330    0.0000 N.am    1  LIG1       -0.1792
     22 C          -3.7750   -0.0130    0.0000 C.2     1  LIG1        0.2459
     23 O          -3.1170   -0.7630    0.0000 O.2     1  LIG1       -0.2730
     24 C          -4.7580   -0.2080    0.0000 C.3     1  LIG1        0.0931
     25 C          -5.0790   -1.1540    0.0000 C.3     1  LIG1        0.0513
     26 C          -6.0580   -1.3500    0.0000 C.2     1  LIG1        0.0508
     27 O          -6.7170   -0.5960    0.0000 O.co2   1  LIG1       -0.5492
     28 O          -6.3830   -2.2920    0.0000 O.co2   1  LIG1       -0.5492
     29 C          -1.7880    0.3960    0.0000 C.ar    1  LIG1        0.0127
@<TRIPOS>BOND
     1     1     2   ar
     2     1     5    1
     3     1    29   ar
     4     2     3    1
     5     2    18   ar
     6     3     4   ar
     7     3    17   ar
     8     4     5    1
     9     4     6   ar
    10     6     7   ar
    11     7     8    1
    12     7    16   ar
    13     8     9   am
    14     9    10    2
    15     9    11    1
    16    11    12    1
    17    12    13    1
    18    13    14   ar
    19    13    15   ar
    20    16    17   ar
    21    18    19   ar
    22    19    20   ar
    23    20    21    1
    24    20    29   ar
    25    21    22   am
    26    22    23    2
    27    22    24    1
    28    24    25    1
    29    25    26    1
    30    26    27   ar
    31    26    28   ar
