@<TRIPOS>MOLECULE
28055_ChemDiv_2294-1438
 29 32 0 0 0
SMALL
GASTEIGER
Energy = 0

@<TRIPOS>ATOM
      1 C           0.8290   -0.7040    0.0000 C.ar    1  LIG1        0.1130
      2 C           1.4290   -1.5210    0.0000 C.ar    1  LIG1        0.1515
      3 O           0.8290   -2.3290    0.0000 O.2     1  LIG1       -0.4533
      4 C          -0.1080   -2.0130    0.0000 C.ar    1  LIG1        0.1456
      5 C          -0.1080   -1.0040    0.0000 C.ar    1  LIG1        0.0484
      6 C          -0.9580   -0.5080    0.0000 C.ar    1  LIG1        0.0765
      7 C          -0.9580    0.5000    0.0000 C.3     1  LIG1        0.1695
      8 N          -1.8420    0.9960    0.0000 N.4     1  LIG1        0.3808
      9 C          -1.8580    1.9960    0.0000 C.3     1  LIG1        0.1390
     10 C          -2.7080    2.5080    0.0000 C.3     1  LIG1        0.0629
     11 C          -3.5750    1.9960    0.0000 C.3     1  LIG1        0.0119
     12 C          -3.5750    1.0080    0.0000 C.3     1  LIG1        0.0629
     13 C          -2.7250    0.5130    0.0000 C.3     1  LIG1        0.1390
     14 C          -4.4210    2.4920    0.0000 C.3     1  LIG1        0.0004
     15 C          -1.8420   -0.9830    0.0000 C.ar    1  LIG1        0.1974
     16 C          -1.8580   -1.9920    0.0000 C.ar    1  LIG1        0.0450
     17 C          -0.9920   -2.5040    0.0000 C.ar    1  LIG1        0.0408
     18 O          -2.7080   -0.4920    0.0000 O.3     1  LIG1       -0.2867
     19 C           2.4380   -1.5210    0.0000 C.ar    1  LIG1        0.0348
     20 C           2.9330   -2.4000    0.0000 C.ar    1  LIG1        0.0030
     21 C           3.9250   -2.4000    0.0000 C.ar    1  LIG1        0.0001
     22 C           4.4170   -1.5380    0.0000 C.ar    1  LIG1        0.0000
     23 C           3.9250   -0.6670    0.0000 C.ar    1  LIG1        0.0001
     24 C           2.9330   -0.6670    0.0000 C.ar    1  LIG1        0.0030
     25 C           1.1670    0.2460    0.0000 C.2     1  LIG1        0.3443
     26 O           0.4920    0.9960    0.0000 O.2     1  LIG1       -0.2448
     27 O           2.1540    0.4580    0.0000 O.3     1  LIG1       -0.4454
     28 C           2.7920   -0.2960    0.0000 C.3     1  LIG1        0.2089
     29 C           3.6580    0.2170    0.0000 C.3     1  LIG1        0.0513
@<TRIPOS>BOND
     1     1     2   ar
     2     1     5   ar
     3     1    25    1
     4     2     3   ar
     5     2    19    1
     6     3     4   ar
     7     4     5   ar
     8     4    17   ar
     9     5     6   ar
    10     6     7    1
    11     6    15   ar
    12     7     8    1
    13     8     9    1
    14     8    13    1
    15     9    10    1
    16    10    11    1
    17    11    12    1
    18    11    14    1
    19    12    13    1
    20    15    16   ar
    21    15    18    1
    22    16    17   ar
    23    19    20   ar
    24    19    24   ar
    25    20    21   ar
    26    21    22   ar
    27    22    23   ar
    28    23    24   ar
    29    25    26    2
    30    25    27    1
    31    27    28    1
    32    28    29    1
