@<TRIPOS>MOLECULE
28059_ChemDiv_2294-1918
 23 25 0 0 0
SMALL
GASTEIGER
Energy = 0

@<TRIPOS>ATOM
      1 C           0.8380   -0.4330    0.0000 C.ar    1  LIG1        0.0911
      2 C           1.4210   -1.2460    0.0000 C.ar    1  LIG1        0.1496
      3 O           0.8210   -2.0580    0.0000 O.2     1  LIG1       -0.4533
      4 C          -0.1250   -1.7250    0.0000 C.ar    1  LIG1        0.1456
      5 C          -0.1080   -0.7330    0.0000 C.ar    1  LIG1        0.0449
      6 C          -0.9580   -0.2380    0.0000 C.ar    1  LIG1        0.0402
      7 C          -1.8420   -0.7330    0.0000 C.ar    1  LIG1        0.1388
      8 C          -1.8420   -1.7250    0.0000 C.ar    1  LIG1        0.0400
      9 C          -0.9750   -2.2210    0.0000 C.ar    1  LIG1        0.0406
     10 O          -2.6920   -0.2210    0.0000 O.3     1  LIG1       -0.4755
     11 C          -3.5750   -0.7170    0.0000 C.3     1  LIG1        0.2055
     12 C          -4.4330   -0.2130    0.0000 C.3     1  LIG1        0.0512
     13 C           2.4250   -1.2580    0.0000 C.ar    1  LIG1        0.0347
     14 C           2.9130   -2.1290    0.0000 C.ar    1  LIG1        0.0030
     15 C           3.9330   -2.1330    0.0000 C.ar    1  LIG1        0.0001
     16 C           4.4290   -1.2750    0.0000 C.ar    1  LIG1        0.0000
     17 C           3.9330   -0.3960    0.0000 C.ar    1  LIG1        0.0001
     18 C           2.9420   -0.3960    0.0000 C.ar    1  LIG1        0.0030
     19 C           1.1670    0.5130    0.0000 C.2     1  LIG1        0.2522
     20 N           0.4830    1.2710    0.0000 N.am    1  LIG1       -0.2725
     21 C           0.8130    2.2250    0.0000 C.3     1  LIG1        0.1152
     22 C          -0.4790    1.0750    0.0000 C.3     1  LIG1        0.1152
     23 O           2.1420    0.7080    0.0000 O.2     1  LIG1       -0.2698
@<TRIPOS>BOND
     1     1     2   ar
     2     1     5   ar
     3     1    19    1
     4     2     3   ar
     5     2    13    1
     6     3     4   ar
     7     4     5   ar
     8     4     9   ar
     9     5     6   ar
    10     6     7   ar
    11     7     8   ar
    12     7    10    1
    13     8     9   ar
    14    10    11    1
    15    11    12    1
    16    13    14   ar
    17    13    18   ar
    18    14    15   ar
    19    15    16   ar
    20    16    17   ar
    21    17    18   ar
    22    19    20   am
    23    19    23    2
    24    20    21    1
    25    20    22    1
