@<TRIPOS>MOLECULE
28053_ChemDiv_2294-1432
 27 30 0 0 0
SMALL
GASTEIGER
Energy = 0

@<TRIPOS>ATOM
      1 C           0.3290   -0.5540    0.0000 C.ar    1  LIG1        0.1130
      2 C           0.9130   -1.3540    0.0000 C.ar    1  LIG1        0.1515
      3 O           0.3290   -2.1630    0.0000 O.2     1  LIG1       -0.4533
      4 C          -0.6290   -1.8500    0.0000 C.ar    1  LIG1        0.1456
      5 C          -0.6040   -0.8420    0.0000 C.ar    1  LIG1        0.0484
      6 C          -1.4710   -0.3460    0.0000 C.ar    1  LIG1        0.0765
      7 C          -1.4750    0.6460    0.0000 C.3     1  LIG1        0.1695
      8 N          -2.3460    1.1460    0.0000 N.4     1  LIG1        0.3808
      9 C          -3.2830    0.7500    0.0000 C.3     1  LIG1        0.1392
     10 C          -3.9290    1.4750    0.0000 C.3     1  LIG1        0.0689
     11 C          -3.4330    2.3500    0.0000 C.3     1  LIG1        0.0689
     12 C          -2.4460    2.1380    0.0000 C.3     1  LIG1        0.1392
     13 C          -2.3460   -0.8420    0.0000 C.ar    1  LIG1        0.1974
     14 C          -2.3460   -1.8330    0.0000 C.ar    1  LIG1        0.0450
     15 C          -1.4960   -2.3460    0.0000 C.ar    1  LIG1        0.0408
     16 O          -3.2130   -0.3420    0.0000 O.3     1  LIG1       -0.2867
     17 C           1.9210   -1.3540    0.0000 C.ar    1  LIG1        0.0348
     18 C           2.4210   -0.5040    0.0000 C.ar    1  LIG1        0.0030
     19 C           3.4290   -0.5040    0.0000 C.ar    1  LIG1        0.0001
     20 C           3.9250   -1.3830    0.0000 C.ar    1  LIG1        0.0000
     21 C           3.4130   -2.2500    0.0000 C.ar    1  LIG1        0.0001
     22 C           2.4170   -2.2500    0.0000 C.ar    1  LIG1        0.0030
     23 C           1.0380    0.1540    0.0000 C.2     1  LIG1        0.3443
     24 O           0.7710    1.1210    0.0000 O.2     1  LIG1       -0.2448
     25 O           2.0170   -0.0790    0.0000 O.3     1  LIG1       -0.4454
     26 C           2.7250    0.6080    0.0000 C.3     1  LIG1        0.2089
     27 C           3.6920    0.3670    0.0000 C.3     1  LIG1        0.0513
@<TRIPOS>BOND
     1     1     2   ar
     2     1     5   ar
     3     1    23    1
     4     2     3   ar
     5     2    17    1
     6     3     4   ar
     7     4     5   ar
     8     4    15   ar
     9     5     6   ar
    10     6     7    1
    11     6    13   ar
    12     7     8    1
    13     8     9    1
    14     8    12    1
    15     9    10    1
    16    10    11    1
    17    11    12    1
    18    13    14   ar
    19    13    16    1
    20    14    15   ar
    21    17    18   ar
    22    17    22   ar
    23    18    19   ar
    24    19    20   ar
    25    20    21   ar
    26    21    22   ar
    27    23    24    2
    28    23    25    1
    29    25    26    1
    30    26    27    1
