@<TRIPOS>MOLECULE
28057_ChemDiv_2294-1441
 29 32 0 0 0
SMALL
GASTEIGER
Energy = 0

@<TRIPOS>ATOM
      1 C           0.8420   -0.6830    0.0000 C.ar    1  LIG1        0.1128
      2 C           1.4210   -1.5250    0.0000 C.ar    1  LIG1        0.1515
      3 O           0.8250   -2.3080    0.0000 O.2     1  LIG1       -0.4533
      4 C          -0.1330   -2.0000    0.0000 C.ar    1  LIG1        0.1454
      5 C          -0.1170   -0.9830    0.0000 C.ar    1  LIG1        0.0442
      6 C          -0.9830   -0.4880    0.0000 C.ar    1  LIG1        0.0361
      7 C          -0.9830    0.5040    0.0000 C.3     1  LIG1        0.1028
      8 N          -1.8420    1.0000    0.0000 N.3     1  LIG1       -0.2588
      9 C          -2.7170    0.5040    0.0000 C.3     1  LIG1        0.1361
     10 C          -3.5830    1.0000    0.0000 C.3     1  LIG1        0.1566
     11 N          -3.5830    1.9880    0.0000 N.4     1  LIG1        0.3842
     12 C          -2.7080    2.5000    0.0000 C.3     1  LIG1        0.1566
     13 C          -1.8420    1.9880    0.0000 C.3     1  LIG1        0.1361
     14 C          -4.4290    2.5000    0.0000 C.3     1  LIG1        0.2024
     15 C          -1.8420   -0.9830    0.0000 C.ar    1  LIG1        0.1932
     16 C          -1.8420   -1.9920    0.0000 C.ar    1  LIG1        0.0449
     17 C          -0.9960   -2.4960    0.0000 C.ar    1  LIG1        0.0408
     18 O          -2.7080   -0.4880    0.0000 O.3     1  LIG1       -0.2869
     19 C           2.4130   -1.5250    0.0000 C.ar    1  LIG1        0.0348
     20 C           2.9080   -2.3790    0.0000 C.ar    1  LIG1        0.0030
     21 C           3.9130   -2.3960    0.0000 C.ar    1  LIG1        0.0001
     22 C           4.4250   -1.5290    0.0000 C.ar    1  LIG1        0.0000
     23 C           3.9130   -0.6580    0.0000 C.ar    1  LIG1        0.0001
     24 C           2.9250   -0.6580    0.0000 C.ar    1  LIG1        0.0030
     25 C           1.1540    0.2420    0.0000 C.2     1  LIG1        0.3443
     26 O           0.4920    1.0000    0.0000 O.2     1  LIG1       -0.2448
     27 O           2.1290    0.4670    0.0000 O.3     1  LIG1       -0.4454
     28 C           2.8000   -0.2920    0.0000 C.3     1  LIG1        0.2089
     29 C           3.6710    0.2210    0.0000 C.3     1  LIG1        0.0513
@<TRIPOS>BOND
     1     1     2   ar
     2     1     5   ar
     3     1    25    1
     4     2     3   ar
     5     2    19    1
     6     3     4   ar
     7     4     5   ar
     8     4    17   ar
     9     5     6   ar
    10     6     7    1
    11     6    15   ar
    12     7     8    1
    13     8     9    1
    14     8    13    1
    15     9    10    1
    16    10    11    1
    17    11    12    1
    18    11    14    1
    19    12    13    1
    20    15    16   ar
    21    15    18    1
    22    16    17   ar
    23    19    20   ar
    24    19    24   ar
    25    20    21   ar
    26    21    22   ar
    27    22    23   ar
    28    23    24   ar
    29    25    26    2
    30    25    27    1
    31    27    28    1
    32    28    29    1
