@<TRIPOS>MOLECULE
28051_ChemDiv_2294-1418
 28 31 0 0 0
SMALL
GASTEIGER
Energy = 0

@<TRIPOS>ATOM
      1 C           0.4170   -0.7080    0.0000 C.ar    1  LIG1        0.1130
      2 C           0.9960   -1.5130    0.0000 C.ar    1  LIG1        0.1515
      3 O           0.4000   -2.3080    0.0000 O.2     1  LIG1       -0.4533
      4 C          -0.5630   -2.0080    0.0000 C.ar    1  LIG1        0.1456
      5 C          -0.5460   -1.0130    0.0000 C.ar    1  LIG1        0.0484
      6 C          -1.4130   -0.5130    0.0000 C.ar    1  LIG1        0.0765
      7 C          -1.3960    0.4960    0.0000 C.3     1  LIG1        0.1697
      8 N          -2.2630    1.0040    0.0000 N.4     1  LIG1        0.3848
      9 C          -2.2630    1.9960    0.0000 C.3     1  LIG1        0.1718
     10 C          -3.1130    2.5080    0.0000 C.3     1  LIG1        0.2048
     11 O          -3.9920    2.0130    0.0000 O.3     1  LIG1       -0.3411
     12 C          -3.9920    1.0210    0.0000 C.3     1  LIG1        0.2048
     13 C          -3.1250    0.5080    0.0000 C.3     1  LIG1        0.1718
     14 C          -2.2750   -1.0130    0.0000 C.ar    1  LIG1        0.1974
     15 C          -2.2750   -2.0040    0.0000 C.ar    1  LIG1        0.0450
     16 C          -1.4130   -2.5040    0.0000 C.ar    1  LIG1        0.0408
     17 O          -3.1420   -0.4960    0.0000 O.3     1  LIG1       -0.2867
     18 C           1.9880   -1.5130    0.0000 C.ar    1  LIG1        0.0348
     19 C           2.5000   -0.6630    0.0000 C.ar    1  LIG1        0.0030
     20 C           3.4920   -0.6630    0.0000 C.ar    1  LIG1        0.0001
     21 C           3.9880   -1.5290    0.0000 C.ar    1  LIG1        0.0000
     22 C           3.4920   -2.4080    0.0000 C.ar    1  LIG1        0.0001
     23 C           2.4830   -2.4000    0.0000 C.ar    1  LIG1        0.0030
     24 C           1.1250    0.0130    0.0000 C.2     1  LIG1        0.3443
     25 O           0.8540    0.9750    0.0000 O.2     1  LIG1       -0.2448
     26 O           2.0750   -0.2380    0.0000 O.3     1  LIG1       -0.4454
     27 C           2.7830    0.4710    0.0000 C.3     1  LIG1        0.2089
     28 C           3.7580    0.1960    0.0000 C.3     1  LIG1        0.0513
@<TRIPOS>BOND
     1     1     2   ar
     2     1     5   ar
     3     1    24    1
     4     2     3   ar
     5     2    18    1
     6     3     4   ar
     7     4     5   ar
     8     4    16   ar
     9     5     6   ar
    10     6     7    1
    11     6    14   ar
    12     7     8    1
    13     8     9    1
    14     8    13    1
    15     9    10    1
    16    10    11    1
    17    11    12    1
    18    12    13    1
    19    14    15   ar
    20    14    17    1
    21    15    16   ar
    22    18    19   ar
    23    18    23   ar
    24    19    20   ar
    25    20    21   ar
    26    21    22   ar
    27    22    23   ar
    28    24    25    2
    29    24    26    1
    30    26    27    1
    31    27    28    1
