@<TRIPOS>MOLECULE
28062_ChemDiv_8015-7414
 22 25 0 0 0
SMALL
GASTEIGER
Energy = 0

@<TRIPOS>ATOM
      1 C          -1.3330   -0.2670    0.0000 C.ar    1  LIG1        0.0402
      2 C          -2.1630   -0.8460    0.0000 C.2     1  LIG1        0.1956
      3 C          -2.9500   -0.2670    0.0000 C.ar    1  LIG1        0.0390
      4 C          -2.6500    0.6880    0.0000 C.ar    1  LIG1        0.0032
      5 C          -1.6250    0.6880    0.0000 C.ar    1  LIG1        0.0033
      6 C          -0.9500    1.4380    0.0000 C.ar    1  LIG1        0.0014
      7 C           0.0460    1.2330    0.0000 C.ar    1  LIG1        0.0166
      8 C           0.3420    0.2460    0.0000 C.ar    1  LIG1        0.0735
      9 N           1.3330    0.0170    0.0000 N.am    1  LIG1       -0.1772
     10 C           2.0330    0.7460    0.0000 C.2     1  LIG1        0.2727
     11 C           3.0080    0.5210    0.0000 C.3     1  LIG1        0.1929
     12 O           3.4960   -0.3460    0.0000 O.3     1  LIG1       -0.3470
     13 C           4.4790   -0.1580    0.0000 C.3     1  LIG1        0.1428
     14 C           4.6080    0.8210    0.0000 C.3     1  LIG1        0.0351
     15 C           3.7080    1.2460    0.0000 C.3     1  LIG1        0.0417
     16 O           1.7330    1.7130    0.0000 O.2     1  LIG1       -0.2704
     17 C          -0.3500   -0.4920    0.0000 C.ar    1  LIG1        0.0198
     18 C          -3.3330    1.4380    0.0000 C.ar    1  LIG1        0.0001
     19 C          -4.3210    1.2130    0.0000 C.ar    1  LIG1        0.0000
     20 C          -4.6130    0.2630    0.0000 C.ar    1  LIG1        0.0001
     21 C          -3.9380   -0.4920    0.0000 C.ar    1  LIG1        0.0032
     22 O          -2.1710   -1.7080    0.0000 O.2     1  LIG1       -0.2866
@<TRIPOS>BOND
     1     1     2    1
     2     1     5   ar
     3     1    17   ar
     4     2     3    1
     5     2    22    2
     6     3     4   ar
     7     3    21   ar
     8     4     5    1
     9     4    18   ar
    10     5     6   ar
    11     6     7   ar
    12     7     8   ar
    13     8     9    1
    14     8    17   ar
    15     9    10   am
    16    10    11    1
    17    10    16    2
    18    11    12    1
    19    11    15    1
    20    12    13    1
    21    13    14    1
    22    14    15    1
    23    18    19   ar
    24    19    20   ar
    25    20    21   ar
