@<TRIPOS>MOLECULE
28067_ChemDiv_2260-3878
 33 35 0 0 0
SMALL
GASTEIGER
Energy = 0

@<TRIPOS>ATOM
      1 C          -0.0790    0.0130    0.0000 C.ar    1  LIG1        0.1091
      2 C           0.4250   -0.8580    0.0000 C.ar    1  LIG1        0.0937
      3 C          -0.2380   -1.6130    0.0000 C.ar    1  LIG1       -0.0034
      4 C          -1.1500   -1.2040    0.0000 C.ar    1  LIG1        0.0805
      5 S          -1.0540   -0.2040    0.0000 S.2     1  LIG1       -0.0660
      6 C          -2.0210   -1.7000    0.0000 C.2     1  LIG1        0.2548
      7 N          -2.0250   -2.7040    0.0000 N.am    1  LIG1       -0.2757
      8 C          -1.1630   -3.2040    0.0000 C.3     1  LIG1        0.0938
      9 C          -1.1630   -4.2130    0.0000 C.3     1  LIG1        0.0233
     10 C          -2.8880   -3.2040    0.0000 C.3     1  LIG1        0.0938
     11 C          -3.7500   -2.7040    0.0000 C.3     1  LIG1        0.0233
     12 O          -2.8790   -1.2000    0.0000 O.2     1  LIG1       -0.2694
     13 C          -0.0250   -2.5920    0.0000 C.3     1  LIG1        0.0320
     14 C           1.4170   -0.9580    0.0000 C.2     1  LIG1        0.3427
     15 O           1.8290   -1.8750    0.0000 O.2     1  LIG1       -0.2448
     16 O           2.0040   -0.1380    0.0000 O.3     1  LIG1       -0.4454
     17 C           2.9960   -0.2330    0.0000 C.3     1  LIG1        0.2089
     18 C           3.6290   -1.0290    0.0000 C.3     1  LIG1        0.0513
     19 N           0.4130    0.8830    0.0000 N.am    1  LIG1       -0.1685
     20 C          -0.0920    1.7460    0.0000 C.2     1  LIG1        0.2737
     21 C           0.4040    2.6330    0.0000 C.ar    1  LIG1        0.1090
     22 C           1.3790    2.7420    0.0000 C.ar    1  LIG1        0.1270
     23 N           1.5920    3.7210    0.0000 N.ar    1  LIG1       -0.0772
     24 O           0.7290    4.2130    0.0000 O.2     1  LIG1       -0.3576
     25 C           0.0040    3.5540    0.0000 C.ar    1  LIG1        0.1592
     26 C          -0.9710    3.7790    0.0000 C.3     1  LIG1        0.0755
     27 C           2.0790    2.0290    0.0000 C.ar    1  LIG1        0.0211
     28 C           1.8250    1.0580    0.0000 C.ar    1  LIG1        0.0016
     29 C           2.5170    0.3500    0.0000 C.ar    1  LIG1        0.0000
     30 C           3.4880    0.6210    0.0000 C.ar    1  LIG1        0.0000
     31 C           3.7460    1.5750    0.0000 C.ar    1  LIG1        0.0000
     32 C           3.0380    2.2830    0.0000 C.ar    1  LIG1        0.0016
     33 O          -1.0920    1.7330    0.0000 O.2     1  LIG1       -0.2678
@<TRIPOS>BOND
     1     1     2   ar
     2     1     5   ar
     3     1    19    1
     4     2     3   ar
     5     2    14    1
     6     3     4   ar
     7     3    13    1
     8     4     5   ar
     9     4     6    1
    10     6     7   am
    11     6    12    2
    12     7     8    1
    13     7    10    1
    14     8     9    1
    15    10    11    1
    16    14    15    2
    17    14    16    1
    18    16    17    1
    19    17    18    1
    20    19    20   am
    21    20    21    1
    22    20    33    2
    23    21    22   ar
    24    21    25   ar
    25    22    23   ar
    26    22    27    1
    27    23    24   ar
    28    24    25   ar
    29    25    26    1
    30    27    28   ar
    31    27    32   ar
    32    28    29   ar
    33    29    30   ar
    34    30    31   ar
    35    31    32   ar
