@<TRIPOS>MOLECULE
28065_ChemDiv_2257-0538
 19 20 0 0 0
SMALL
GASTEIGER
Energy = 0

@<TRIPOS>ATOM
      1 C          -0.3750   -2.0500    0.0000 C.ar    1  LIG1        0.1497
      2 N          -0.3880   -1.0750    0.0000 N.ar    1  LIG1       -0.2160
      3 N           0.5540   -0.7290    0.0000 N.ar    1  LIG1       -0.1511
      4 C           1.1960   -1.5290    0.0000 C.ar    1  LIG1        0.1588
      5 S           0.6210   -2.3130    0.0000 S.2     1  LIG1       -0.0340
      6 S           2.2210   -1.5290    0.0000 S.3     1  LIG1       -0.0748
      7 C           2.7250   -0.6670    0.0000 C.3     1  LIG1        0.1733
      8 C           2.2380    0.2040    0.0000 C.2     1  LIG1        0.3285
      9 O           1.2330    0.2040    0.0000 O.2     1  LIG1       -0.2491
     10 O           2.7880    1.0000    0.0000 O.3     1  LIG1       -0.4479
     11 C           2.3790    1.8880    0.0000 C.3     1  LIG1        0.2086
     12 C           2.9290    2.6830    0.0000 C.3     1  LIG1        0.0513
     13 C          -1.2040   -0.4880    0.0000 C.ar    1  LIG1        0.0840
     14 C          -2.1210   -0.8790    0.0000 C.ar    1  LIG1        0.0192
     15 C          -2.9330   -0.2750    0.0000 C.ar    1  LIG1        0.0015
     16 C          -2.7920    0.7170    0.0000 C.ar    1  LIG1        0.0001
     17 C          -1.8710    1.1080    0.0000 C.ar    1  LIG1        0.0015
     18 C          -1.0670    0.5170    0.0000 C.ar    1  LIG1        0.0192
     19 S          -1.1790   -2.6790    0.0000 S.2     1  LIG1       -0.0229
@<TRIPOS>BOND
     1     1     2   ar
     2     1     5   ar
     3     1    19    2
     4     2     3   ar
     5     2    13    1
     6     3     4   ar
     7     4     5   ar
     8     4     6    1
     9     6     7    1
    10     7     8    1
    11     8     9    2
    12     8    10    1
    13    10    11    1
    14    11    12    1
    15    13    14   ar
    16    13    18   ar
    17    14    15   ar
    18    15    16   ar
    19    16    17   ar
    20    17    18   ar
