@<TRIPOS>MOLECULE
28061_ChemDiv_3455-1037
 29 31 0 0 0
SMALL
GASTEIGER
Energy = 0

@<TRIPOS>ATOM
      1 C           1.1290    0.0000    0.0000 C.ar    1  LIG1        0.1130
      2 C           1.1290   -0.9750    0.0000 C.ar    1  LIG1        0.1515
      3 O           0.2670   -1.4710    0.0000 O.2     1  LIG1       -0.4533
      4 C          -0.5750   -0.9750    0.0000 C.ar    1  LIG1        0.1455
      5 C          -0.5750    0.0000    0.0000 C.ar    1  LIG1        0.0484
      6 C          -1.4250    0.4880    0.0000 C.ar    1  LIG1        0.0764
      7 C          -2.2670    0.0000    0.0000 C.ar    1  LIG1        0.1989
      8 C          -2.2670   -0.9750    0.0000 C.ar    1  LIG1        0.0762
      9 C          -1.4250   -1.4710    0.0000 C.ar    1  LIG1        0.0421
     10 C          -3.1130   -1.4710    0.0000 C.3     1  LIG1        0.1701
     11 N          -3.1130   -2.4460    0.0000 N.4     1  LIG1        0.3902
     12 C          -2.2670   -2.9210    0.0000 C.3     1  LIG1        0.2030
     13 C          -3.9540   -2.9210    0.0000 C.3     1  LIG1        0.2030
     14 O          -3.1290    0.4790    0.0000 O.3     1  LIG1       -0.2868
     15 C          -1.4250    1.4630    0.0000 C.3     1  LIG1        0.1701
     16 N          -2.2710    1.9500    0.0000 N.4     1  LIG1        0.3902
     17 C          -3.1290    1.4630    0.0000 C.3     1  LIG1        0.2030
     18 C          -2.2710    2.9250    0.0000 C.3     1  LIG1        0.2030
     19 C           1.9750   -1.4710    0.0000 C.ar    1  LIG1        0.0348
     20 C           1.9750   -2.4460    0.0000 C.ar    1  LIG1        0.0030
     21 C           2.8210   -2.9210    0.0000 C.ar    1  LIG1        0.0001
     22 C           3.6500   -2.4460    0.0000 C.ar    1  LIG1        0.0000
     23 C           3.6500   -1.4710    0.0000 C.ar    1  LIG1        0.0001
     24 C           2.8210   -0.9750    0.0000 C.ar    1  LIG1        0.0030
     25 C           1.8250    0.6830    0.0000 C.2     1  LIG1        0.3443
     26 O           1.5630    1.6330    0.0000 O.2     1  LIG1       -0.2448
     27 O           2.7540    0.4420    0.0000 O.3     1  LIG1       -0.4454
     28 C           3.0000   -0.5130    0.0000 C.3     1  LIG1        0.2089
     29 C           3.9500   -0.7580    0.0000 C.3     1  LIG1        0.0513
@<TRIPOS>BOND
     1     1     2   ar
     2     1     5   ar
     3     1    25    1
     4     2     3   ar
     5     2    19    1
     6     3     4   ar
     7     4     5   ar
     8     4     9   ar
     9     5     6   ar
    10     6     7   ar
    11     6    15    1
    12     7     8   ar
    13     7    14    1
    14     8     9   ar
    15     8    10    1
    16    10    11    1
    17    11    12    1
    18    11    13    1
    19    15    16    1
    20    16    17    1
    21    16    18    1
    22    19    20   ar
    23    19    24   ar
    24    20    21   ar
    25    21    22   ar
    26    22    23   ar
    27    23    24   ar
    28    25    26    2
    29    25    27    1
    30    27    28    1
    31    28    29    1
