@<TRIPOS>MOLECULE
28064_ChemDiv_2372-3504
 35 38 0 0 0
SMALL
GASTEIGER
Energy = 0

@<TRIPOS>ATOM
      1 N           3.1500    0.7710    0.0000 N.am    1  LIG1       -0.1981
      2 C           2.6210   -0.0250    0.0000 C.2     1  LIG1        0.2590
      3 C           1.6540    0.2420    0.0000 C.ar    1  LIG1        0.0588
      4 C           1.6540    1.2750    0.0000 C.ar    1  LIG1        0.0587
      5 C           2.6210    1.5580    0.0000 C.2     1  LIG1        0.2590
      6 O           2.9210    2.5080    0.0000 O.2     1  LIG1       -0.2691
      7 C           0.7830    1.7750    0.0000 C.ar    1  LIG1        0.0048
      8 C          -0.0750    1.2750    0.0000 C.ar    1  LIG1        0.0047
      9 C          -0.0750    0.2420    0.0000 C.ar    1  LIG1        0.0555
     10 C          -0.9630   -0.2380    0.0000 C.2     1  LIG1        0.2690
     11 N          -1.8080    0.2420    0.0000 N.am    1  LIG1       -0.1753
     12 C          -2.6750   -0.2380    0.0000 C.ar    1  LIG1        0.0780
     13 C          -3.5460    0.2420    0.0000 C.ar    1  LIG1        0.0325
     14 C          -4.4170   -0.2380    0.0000 C.ar    1  LIG1        0.0425
     15 C          -4.4170   -1.2420    0.0000 C.ar    1  LIG1        0.1725
     16 C          -3.5460   -1.7380    0.0000 C.ar    1  LIG1        0.1737
     17 C          -2.6750   -1.2420    0.0000 C.ar    1  LIG1        0.0567
     18 O          -3.5170   -2.7420    0.0000 O.3     1  LIG1       -0.4683
     19 C          -2.6460   -3.2460    0.0000 C.3     1  LIG1        0.2526
     20 O          -5.3040   -1.7380    0.0000 O.3     1  LIG1       -0.4684
     21 C          -6.1750   -1.2080    0.0000 C.3     1  LIG1        0.2526
     22 C          -3.5460    1.2460    0.0000 C.2     1  LIG1        0.0742
     23 O          -4.3830    1.7500    0.0000 O.co2   1  LIG1       -0.5445
     24 O          -2.6750    1.7500    0.0000 O.co2   1  LIG1       -0.5445
     25 O          -0.9630   -1.2710    0.0000 O.2     1  LIG1       -0.2680
     26 C           0.7830   -0.2380    0.0000 C.ar    1  LIG1        0.0093
     27 O           2.9210   -0.9790    0.0000 O.2     1  LIG1       -0.2691
     28 C           4.1540    0.7210    0.0000 C.ar    1  LIG1        0.0951
     29 C           4.6830    1.5380    0.0000 C.ar    1  LIG1        0.1527
     30 O           4.2040    2.4080    0.0000 O.3     1  LIG1       -0.4702
     31 C           4.7250    3.2500    0.0000 C.3     1  LIG1        0.2525
     32 C           5.6880    1.4880    0.0000 C.ar    1  LIG1        0.0382
     33 C           6.1750    0.6170    0.0000 C.ar    1  LIG1        0.0032
     34 C           5.5830   -0.2380    0.0000 C.ar    1  LIG1        0.0015
     35 C           4.6000   -0.1920    0.0000 C.ar    1  LIG1        0.0184
@<TRIPOS>BOND
     1     1     2   am
     2     1     5   am
     3     1    28    1
     4     2     3    1
     5     2    27    2
     6     3     4   ar
     7     3    26   ar
     8     4     5    1
     9     4     7   ar
    10     5     6    2
    11     7     8   ar
    12     8     9   ar
    13     9    10    1
    14     9    26   ar
    15    10    11   am
    16    10    25    2
    17    11    12    1
    18    12    13   ar
    19    12    17   ar
    20    13    14   ar
    21    13    22    1
    22    14    15   ar
    23    15    16   ar
    24    15    20    1
    25    16    17   ar
    26    16    18    1
    27    18    19    1
    28    20    21    1
    29    22    23   ar
    30    22    24   ar
    31    28    29   ar
    32    28    35   ar
    33    29    30    1
    34    29    32   ar
    35    30    31    1
    36    32    33   ar
    37    33    34   ar
    38    34    35   ar
