@<TRIPOS>MOLECULE
28069_ChemDiv_2260-6377
 35 39 0 0 0
SMALL
GASTEIGER
Energy = 0

@<TRIPOS>ATOM
      1 S          -2.7920    1.3250    0.0000 S.O2    1  LIG1       -0.0568
      2 N          -3.2540    2.2000    0.0000 N.pl3   1  LIG1       -0.5205
      3 C          -2.7380    3.0580    0.0000 C.ar    1  LIG1       -0.0237
      4 N          -3.2210    3.9210    0.0000 N.ar    1  LIG1       -0.2543
      5 C          -2.7330    4.7790    0.0000 C.ar    1  LIG1        0.1370
      6 N          -1.7290    4.7580    0.0000 N.ar    1  LIG1       -0.2351
      7 C          -1.2500    3.8880    0.0000 C.ar    1  LIG1        0.0603
      8 C          -1.7710    3.0250    0.0000 C.ar    1  LIG1        0.0098
      9 C          -0.2500    3.8880    0.0000 C.3     1  LIG1        0.0521
     10 C          -3.2130    5.6710    0.0000 C.3     1  LIG1        0.0736
     11 C          -2.2920    0.4170    0.0000 C.ar    1  LIG1        0.0894
     12 C          -2.7920   -0.4170    0.0000 C.ar    1  LIG1        0.0182
     13 C          -2.3380   -1.3210    0.0000 C.ar    1  LIG1        0.0179
     14 C          -1.3290   -1.3210    0.0000 C.ar    1  LIG1        0.0735
     15 N          -0.8500   -2.2000    0.0000 N.am    1  LIG1       -0.1787
     16 C           0.1500   -2.2000    0.0000 C.2     1  LIG1        0.2535
     17 C           0.6540   -3.0630    0.0000 C.3     1  LIG1        0.1287
     18 C           0.1500   -3.9290    0.0000 C.ar    1  LIG1        0.0250
     19 C           0.6710   -4.7920    0.0000 C.ar    1  LIG1        0.1420
     20 O           1.6460   -4.7920    0.0000 O.3     1  LIG1       -0.4541
     21 C           2.1540   -3.9420    0.0000 C.ar    1  LIG1        0.1420
     22 C           1.6460   -3.0630    0.0000 C.ar    1  LIG1        0.0250
     23 C           2.1290   -2.2080    0.0000 C.ar    1  LIG1       -0.0005
     24 C           3.1330   -2.2080    0.0000 C.ar    1  LIG1       -0.0001
     25 C           3.6500   -3.0880    0.0000 C.ar    1  LIG1        0.0031
     26 C           3.1330   -3.9630    0.0000 C.ar    1  LIG1        0.0372
     27 C           0.1710   -5.6710    0.0000 C.ar    1  LIG1        0.0372
     28 C          -0.8380   -5.6710    0.0000 C.ar    1  LIG1        0.0031
     29 C          -1.3500   -4.7920    0.0000 C.ar    1  LIG1       -0.0001
     30 C          -0.8380   -3.9290    0.0000 C.ar    1  LIG1       -0.0005
     31 O           0.6710   -1.3250    0.0000 O.2     1  LIG1       -0.2723
     32 C          -0.8170   -0.4670    0.0000 C.ar    1  LIG1        0.0179
     33 C          -1.2960    0.3960    0.0000 C.ar    1  LIG1        0.0182
     34 O          -3.6540    0.8170    0.0000 O.2     1  LIG1       -0.1841
     35 O          -1.9130    1.8040    0.0000 O.2     1  LIG1       -0.1841
@<TRIPOS>BOND
     1     1     2    1
     2     1    11    1
     3     1    34    2
     4     1    35    2
     5     2     3    1
     6     3     4   ar
     7     3     8   ar
     8     4     5   ar
     9     5     6   ar
    10     5    10    1
    11     6     7   ar
    12     7     8   ar
    13     7     9    1
    14    11    12   ar
    15    11    33   ar
    16    12    13   ar
    17    13    14   ar
    18    14    15    1
    19    14    32   ar
    20    15    16   am
    21    16    17    1
    22    16    31    2
    23    17    18    1
    24    17    22    1
    25    18    19   ar
    26    18    30   ar
    27    19    20    1
    28    19    27   ar
    29    20    21    1
    30    21    22   ar
    31    21    26   ar
    32    22    23   ar
    33    23    24   ar
    34    24    25   ar
    35    25    26   ar
    36    27    28   ar
    37    28    29   ar
    38    29    30   ar
    39    32    33   ar
