@<TRIPOS>MOLECULE
28060_ChemDiv_2467-0468
 26 29 0 0 0
SMALL
GASTEIGER
Energy = 0

@<TRIPOS>ATOM
      1 C           2.4380   -1.2580    0.0000 C.ar    1  LIG1       -0.0165
      2 C           2.6080   -2.2500    0.0000 C.ar    1  LIG1       -0.0039
      3 C           3.6040   -2.3960    0.0000 C.ar    1  LIG1       -0.0039
      4 C           4.0290   -1.5460    0.0000 C.ar    1  LIG1       -0.0178
      5 C           3.3460   -0.8040    0.0000 C.3     1  LIG1        0.0527
      6 C           5.0580   -1.4830    0.0000 C.ar    1  LIG1       -0.0039
      7 C           5.5960   -2.3080    0.0000 C.ar    1  LIG1       -0.0003
      8 C           5.1420   -3.1920    0.0000 C.ar    1  LIG1       -0.0000
      9 C           4.1500   -3.2500    0.0000 C.ar    1  LIG1       -0.0003
     10 C           1.8170   -2.8830    0.0000 C.ar    1  LIG1        0.0010
     11 C           0.9080   -2.5330    0.0000 C.ar    1  LIG1        0.0166
     12 C           0.7040   -1.5670    0.0000 C.ar    1  LIG1        0.0734
     13 N          -0.2580   -1.2580    0.0000 N.am    1  LIG1       -0.1755
     14 C          -0.4580   -0.2630    0.0000 C.2     1  LIG1        0.2691
     15 C          -1.3960    0.0420    0.0000 C.2     1  LIG1        0.0598
     16 C          -1.5960    1.0080    0.0000 C.2     1  LIG1        0.0047
     17 C          -2.5580    1.3250    0.0000 C.ar    1  LIG1        0.0003
     18 C          -2.7630    2.3170    0.0000 C.ar    1  LIG1        0.0031
     19 C          -3.7040    2.6210    0.0000 C.ar    1  LIG1        0.0369
     20 C          -4.4330    1.9500    0.0000 C.ar    1  LIG1        0.1387
     21 C          -4.2380    0.9830    0.0000 C.ar    1  LIG1        0.0369
     22 C          -3.2960    0.6670    0.0000 C.ar    1  LIG1        0.0031
     23 O          -5.4000    2.2580    0.0000 O.3     1  LIG1       -0.4714
     24 C          -5.6000    3.2540    0.0000 C.3     1  LIG1        0.2525
     25 O           0.2750    0.3880    0.0000 O.2     1  LIG1       -0.2680
     26 C           1.4710   -0.9170    0.0000 C.ar    1  LIG1        0.0127
@<TRIPOS>BOND
     1     1     2   ar
     2     1     5    1
     3     1    26   ar
     4     2     3    1
     5     2    10   ar
     6     3     4   ar
     7     3     9   ar
     8     4     5    1
     9     4     6   ar
    10     6     7   ar
    11     7     8   ar
    12     8     9   ar
    13    10    11   ar
    14    11    12   ar
    15    12    13    1
    16    12    26   ar
    17    13    14   am
    18    14    15    1
    19    14    25    2
    20    15    16    2
    21    16    17    1
    22    17    18   ar
    23    17    22   ar
    24    18    19   ar
    25    19    20   ar
    26    20    21   ar
    27    20    23    1
    28    21    22   ar
    29    23    24    1
