@<TRIPOS>MOLECULE
28073_ChemDiv_3010-2052
 25 28 0 0 0
SMALL
GASTEIGER
Energy = 0

@<TRIPOS>ATOM
      1 C          -0.7460    0.0000    0.0000 C.2     1  LIG1        0.2536
      2 C          -1.7420    0.0000    0.0000 C.3     1  LIG1        0.1287
      3 C          -2.2290    0.8670    0.0000 C.ar    1  LIG1        0.0250
      4 C          -3.2250    0.8670    0.0000 C.ar    1  LIG1        0.1420
      5 O          -3.7500    0.0170    0.0000 O.3     1  LIG1       -0.4541
      6 C          -3.2500   -0.8630    0.0000 C.ar    1  LIG1        0.1420
      7 C          -2.2290   -0.8630    0.0000 C.ar    1  LIG1        0.0250
      8 C          -1.7580   -1.7250    0.0000 C.ar    1  LIG1       -0.0005
      9 C          -2.2540   -2.6040    0.0000 C.ar    1  LIG1       -0.0001
     10 C          -3.2500   -2.6040    0.0000 C.ar    1  LIG1        0.0031
     11 C          -3.7540   -1.7250    0.0000 C.ar    1  LIG1        0.0372
     12 C          -3.7330    1.7460    0.0000 C.ar    1  LIG1        0.0372
     13 C          -3.2250    2.6080    0.0000 C.ar    1  LIG1        0.0031
     14 C          -2.2290    2.5920    0.0000 C.ar    1  LIG1       -0.0001
     15 C          -1.7250    1.7290    0.0000 C.ar    1  LIG1       -0.0005
     16 N          -0.2330   -0.8790    0.0000 N.am    1  LIG1       -0.1764
     17 C           0.7630   -0.8790    0.0000 C.ar    1  LIG1        0.1008
     18 C           1.2500   -1.7420    0.0000 C.ar    1  LIG1        0.1558
     19 C           2.2460   -1.7420    0.0000 C.ar    1  LIG1        0.0377
     20 C           2.7540   -0.8790    0.0000 C.ar    1  LIG1        0.0369
     21 C           2.2460   -0.0130    0.0000 C.ar    1  LIG1        0.0082
     22 C           1.2500   -0.0130    0.0000 C.ar    1  LIG1        0.0194
     23 BR          3.7500   -0.8790    0.0000 Br      1  LIG1       -0.0489
     24 F           0.7630   -2.6040    0.0000 F       1  LIG1       -0.2028
     25 O          -0.2330    0.8500    0.0000 O.2     1  LIG1       -0.2723
@<TRIPOS>BOND
     1     1     2    1
     2     1    16   am
     3     1    25    2
     4     2     3    1
     5     2     7    1
     6     3     4   ar
     7     3    15   ar
     8     4     5    1
     9     4    12   ar
    10     5     6    1
    11     6     7   ar
    12     6    11   ar
    13     7     8   ar
    14     8     9   ar
    15     9    10   ar
    16    10    11   ar
    17    12    13   ar
    18    13    14   ar
    19    14    15   ar
    20    16    17    1
    21    17    18   ar
    22    17    22   ar
    23    18    19   ar
    24    18    24    1
    25    19    20   ar
    26    20    21   ar
    27    20    23    1
    28    21    22   ar
