@<TRIPOS>MOLECULE
28077_ChemDiv_4100-3893
 28 31 0 0 0
SMALL
GASTEIGER
Energy = 0

@<TRIPOS>ATOM
      1 C          -1.4330   -0.5040    0.0000 C.2     1  LIG1        0.2535
      2 C          -2.4080   -0.2460    0.0000 C.3     1  LIG1        0.1287
      3 C          -2.6830    0.7080    0.0000 C.ar    1  LIG1        0.0250
      4 C          -3.6460    0.9790    0.0000 C.ar    1  LIG1        0.1420
      5 O          -4.3630    0.2500    0.0000 O.3     1  LIG1       -0.4541
      6 C          -4.0920   -0.7040    0.0000 C.ar    1  LIG1        0.1420
      7 C          -3.1210   -0.9710    0.0000 C.ar    1  LIG1        0.0250
      8 C          -2.8460   -1.9330    0.0000 C.ar    1  LIG1       -0.0005
      9 C          -3.5580   -2.6380    0.0000 C.ar    1  LIG1       -0.0001
     10 C          -4.5380   -2.3920    0.0000 C.ar    1  LIG1        0.0031
     11 C          -4.7960   -1.4290    0.0000 C.ar    1  LIG1        0.0372
     12 C          -3.9170    1.9330    0.0000 C.ar    1  LIG1        0.0372
     13 C          -3.2130    2.6420    0.0000 C.ar    1  LIG1        0.0031
     14 C          -2.2330    2.3920    0.0000 C.ar    1  LIG1       -0.0001
     15 C          -1.9750    1.4380    0.0000 C.ar    1  LIG1       -0.0005
     16 N          -0.7290    0.2040    0.0000 N.am    1  LIG1       -0.1787
     17 C           0.2330   -0.0500    0.0000 C.ar    1  LIG1        0.0735
     18 C           0.9290    0.6540    0.0000 C.ar    1  LIG1        0.0179
     19 C           1.8920    0.4000    0.0000 C.ar    1  LIG1        0.0162
     20 C           2.1670   -0.5500    0.0000 C.ar    1  LIG1        0.0540
     21 N           3.1380   -0.7710    0.0000 N.am    1  LIG1       -0.2569
     22 C           3.8130   -0.0250    0.0000 C.2     1  LIG1        0.2299
     23 O           4.7920   -0.2460    0.0000 O.2     1  LIG1       -0.2745
     24 C           3.5170    0.9040    0.0000 C.3     1  LIG1        0.0952
     25 C           3.4420   -1.7040    0.0000 C.3     1  LIG1        0.1200
     26 C           1.4580   -1.2750    0.0000 C.ar    1  LIG1        0.0162
     27 C           0.5000   -1.0130    0.0000 C.ar    1  LIG1        0.0179
     28 O          -1.1790   -1.4630    0.0000 O.2     1  LIG1       -0.2723
@<TRIPOS>BOND
     1     1     2    1
     2     1    16   am
     3     1    28    2
     4     2     3    1
     5     2     7    1
     6     3     4   ar
     7     3    15   ar
     8     4     5    1
     9     4    12   ar
    10     5     6    1
    11     6     7   ar
    12     6    11   ar
    13     7     8   ar
    14     8     9   ar
    15     9    10   ar
    16    10    11   ar
    17    12    13   ar
    18    13    14   ar
    19    14    15   ar
    20    16    17    1
    21    17    18   ar
    22    17    27   ar
    23    18    19   ar
    24    19    20   ar
    25    20    21    1
    26    20    26   ar
    27    21    22   am
    28    21    25    1
    29    22    23    2
    30    22    24    1
    31    26    27   ar
