@<TRIPOS>MOLECULE
28079_ChemDiv_4130-5759
 26 29 0 0 0
SMALL
GASTEIGER
Energy = 0

@<TRIPOS>ATOM
      1 C           0.9710    0.4880    0.0000 C.2     1  LIG1        0.2535
      2 C           1.9460    0.2460    0.0000 C.3     1  LIG1        0.1287
      3 C           2.2210   -0.7000    0.0000 C.ar    1  LIG1        0.0250
      4 C           3.1880   -0.9580    0.0000 C.ar    1  LIG1        0.1420
      5 O           3.8790   -0.2460    0.0000 O.3     1  LIG1       -0.4541
      6 C           3.6210    0.7040    0.0000 C.ar    1  LIG1        0.1420
      7 C           2.6420    0.9630    0.0000 C.ar    1  LIG1        0.0250
      8 C           2.3830    1.9380    0.0000 C.ar    1  LIG1       -0.0005
      9 C           3.1000    2.6420    0.0000 C.ar    1  LIG1       -0.0001
     10 C           4.0630    2.3830    0.0000 C.ar    1  LIG1        0.0031
     11 C           4.3210    1.4170    0.0000 C.ar    1  LIG1        0.0372
     12 C           3.4460   -1.9170    0.0000 C.ar    1  LIG1        0.0372
     13 C           2.7420   -2.6380    0.0000 C.ar    1  LIG1        0.0031
     14 C           1.7960   -2.3790    0.0000 C.ar    1  LIG1       -0.0001
     15 C           1.5130   -1.4330    0.0000 C.ar    1  LIG1       -0.0005
     16 N           0.2830   -0.2210    0.0000 N.am    1  LIG1       -0.1787
     17 C          -0.6790    0.0170    0.0000 C.ar    1  LIG1        0.0734
     18 C          -1.3960   -0.7000    0.0000 C.ar    1  LIG1        0.0167
     19 C          -2.3380   -0.4670    0.0000 C.ar    1  LIG1        0.0060
     20 C          -2.6330    0.5040    0.0000 C.ar    1  LIG1        0.0567
     21 C          -3.6250    0.7670    0.0000 C.2     1  LIG1        0.2842
     22 O          -3.9040    1.7080    0.0000 O.2     1  LIG1       -0.2667
     23 N          -4.3250    0.0380    0.0000 N.am    1  LIG1       -0.0837
     24 C          -1.9500    1.2250    0.0000 C.ar    1  LIG1        0.0060
     25 C          -0.9630    0.9830    0.0000 C.ar    1  LIG1        0.0167
     26 O           0.6880    1.4500    0.0000 O.2     1  LIG1       -0.2723
@<TRIPOS>BOND
     1     1     2    1
     2     1    16   am
     3     1    26    2
     4     2     3    1
     5     2     7    1
     6     3     4   ar
     7     3    15   ar
     8     4     5    1
     9     4    12   ar
    10     5     6    1
    11     6     7   ar
    12     6    11   ar
    13     7     8   ar
    14     8     9   ar
    15     9    10   ar
    16    10    11   ar
    17    12    13   ar
    18    13    14   ar
    19    14    15   ar
    20    16    17    1
    21    17    18   ar
    22    17    25   ar
    23    18    19   ar
    24    19    20   ar
    25    20    21    1
    26    20    24   ar
    27    21    22    2
    28    21    23   am
    29    24    25   ar
