@<TRIPOS>MOLECULE
28071_ChemDiv_3010-1960
 31 34 0 0 0
SMALL
GASTEIGER
Energy = 0

@<TRIPOS>ATOM
      1 C          -1.0000    0.4330    0.0000 C.2     1  LIG1        0.2535
      2 C          -2.0000    0.4330    0.0000 C.3     1  LIG1        0.1287
      3 C          -2.5130    1.2960    0.0000 C.ar    1  LIG1        0.0250
      4 C          -3.5130    1.2960    0.0000 C.ar    1  LIG1        0.1420
      5 O          -4.0000    0.4330    0.0000 O.3     1  LIG1       -0.4541
      6 C          -3.5290   -0.4290    0.0000 C.ar    1  LIG1        0.1420
      7 C          -2.5130   -0.4290    0.0000 C.ar    1  LIG1        0.0250
      8 C          -2.0000   -1.2960    0.0000 C.ar    1  LIG1       -0.0005
      9 C          -2.5290   -2.1630    0.0000 C.ar    1  LIG1       -0.0001
     10 C          -3.5290   -2.1630    0.0000 C.ar    1  LIG1        0.0031
     11 C          -4.0000   -1.2960    0.0000 C.ar    1  LIG1        0.0372
     12 C          -4.0000    2.1670    0.0000 C.ar    1  LIG1        0.0372
     13 C          -3.4670    3.0330    0.0000 C.ar    1  LIG1        0.0031
     14 C          -2.4670    3.0290    0.0000 C.ar    1  LIG1       -0.0001
     15 C          -1.9960    2.1630    0.0000 C.ar    1  LIG1       -0.0005
     16 N          -0.4670   -0.4290    0.0000 N.am    1  LIG1       -0.1785
     17 C           0.5290   -0.4290    0.0000 C.ar    1  LIG1        0.0798
     18 C           0.9960   -1.2960    0.0000 C.ar    1  LIG1        0.0909
     19 C           0.4880   -2.1630    0.0000 C.2     1  LIG1        0.3426
     20 O           0.9960   -3.0290    0.0000 O.2     1  LIG1       -0.2448
     21 O          -0.5130   -2.1630    0.0000 O.3     1  LIG1       -0.4413
     22 C          -1.0000   -3.0290    0.0000 C.3     1  LIG1        0.2560
     23 C           1.9960   -1.2960    0.0000 C.ar    1  LIG1        0.0080
     24 C           2.5290   -0.4290    0.0000 C.ar    1  LIG1        0.0067
     25 C           1.9960    0.4330    0.0000 C.ar    1  LIG1        0.0769
     26 C           2.5290    1.2790    0.0000 C.2     1  LIG1        0.3414
     27 O           1.9960    2.1460    0.0000 O.2     1  LIG1       -0.2449
     28 O           3.5290    1.2790    0.0000 O.3     1  LIG1       -0.4413
     29 C           3.9960    0.4330    0.0000 C.3     1  LIG1        0.2560
     30 C           0.9960    0.4330    0.0000 C.ar    1  LIG1        0.0232
     31 O          -0.4670    1.2790    0.0000 O.2     1  LIG1       -0.2723
@<TRIPOS>BOND
     1     1     2    1
     2     1    16   am
     3     1    31    2
     4     2     3    1
     5     2     7    1
     6     3     4   ar
     7     3    15   ar
     8     4     5    1
     9     4    12   ar
    10     5     6    1
    11     6     7   ar
    12     6    11   ar
    13     7     8   ar
    14     8     9   ar
    15     9    10   ar
    16    10    11   ar
    17    12    13   ar
    18    13    14   ar
    19    14    15   ar
    20    16    17    1
    21    17    18   ar
    22    17    30   ar
    23    18    19    1
    24    18    23   ar
    25    19    20    2
    26    19    21    1
    27    21    22    1
    28    23    24   ar
    29    24    25   ar
    30    25    26    1
    31    25    30   ar
    32    26    27    2
    33    26    28    1
    34    28    29    1
