@<TRIPOS>MOLECULE
28086_ChemDiv_4334-1587
 29 31 0 0 0
SMALL
GASTEIGER
Energy = 0

@<TRIPOS>ATOM
      1 N          -3.0000   -0.4290    0.0000 N.am    1  LIG1       -0.2229
      2 C          -2.0670   -0.0500    0.0000 C.2     1  LIG1        0.2551
      3 C          -1.4250   -0.8330    0.0000 C.ar    1  LIG1        0.0585
      4 C          -1.9290   -1.6830    0.0000 C.ar    1  LIG1        0.0584
      5 C          -2.9250   -1.4420    0.0000 C.2     1  LIG1        0.2551
      6 O          -3.6880   -2.1040    0.0000 O.2     1  LIG1       -0.2695
      7 C          -1.4460   -2.5500    0.0000 C.ar    1  LIG1        0.0048
      8 C          -0.4580   -2.5750    0.0000 C.ar    1  LIG1        0.0047
      9 C           0.0540   -1.7170    0.0000 C.ar    1  LIG1        0.0555
     10 C           1.0420   -1.7290    0.0000 C.2     1  LIG1        0.2690
     11 N           1.5580   -0.8790    0.0000 N.am    1  LIG1       -0.1754
     12 C           2.5580   -0.8960    0.0000 C.ar    1  LIG1        0.0749
     13 C           3.0750   -0.0460    0.0000 C.ar    1  LIG1        0.0325
     14 C           2.5880    0.8170    0.0000 C.2     1  LIG1        0.0742
     15 O           1.5880    0.8290    0.0000 O.co2   1  LIG1       -0.5445
     16 O           3.1040    1.6750    0.0000 O.co2   1  LIG1       -0.5445
     17 C           4.0670   -0.0670    0.0000 C.ar    1  LIG1        0.0445
     18 C           4.5580   -0.9420    0.0000 C.ar    1  LIG1        0.1959
     19 C           4.0420   -1.8040    0.0000 C.ar    1  LIG1        0.0434
     20 C           3.0420   -1.7790    0.0000 C.ar    1  LIG1        0.0199
     21 O           5.5580   -0.9540    0.0000 O.3     1  LIG1       -0.2866
     22 O           1.5420   -2.5960    0.0000 O.2     1  LIG1       -0.2680
     23 C          -0.4170   -0.8540    0.0000 C.ar    1  LIG1        0.0092
     24 O          -1.8250    0.9170    0.0000 O.2     1  LIG1       -0.2695
     25 C          -3.8670    0.0920    0.0000 C.3     1  LIG1        0.1015
     26 C          -3.8330    1.0710    0.0000 C.3     1  LIG1        0.0220
     27 C          -4.6710    1.6040    0.0000 C.3     1  LIG1        0.0017
     28 C          -4.6540    2.6000    0.0000 C.3     1  LIG1        0.0001
     29 C          -5.5630    1.1210    0.0000 C.3     1  LIG1        0.0001
@<TRIPOS>BOND
     1     1     2   am
     2     1     5   am
     3     1    25    1
     4     2     3    1
     5     2    24    2
     6     3     4   ar
     7     3    23   ar
     8     4     5    1
     9     4     7   ar
    10     5     6    2
    11     7     8   ar
    12     8     9   ar
    13     9    10    1
    14     9    23   ar
    15    10    11   am
    16    10    22    2
    17    11    12    1
    18    12    13   ar
    19    12    20   ar
    20    13    14    1
    21    13    17   ar
    22    14    15   ar
    23    14    16   ar
    24    17    18   ar
    25    18    19   ar
    26    18    21    1
    27    19    20   ar
    28    25    26    1
    29    26    27    1
    30    27    28    1
    31    27    29    1
