@<TRIPOS>MOLECULE
28087_ChemDiv_4554-4921
 29 32 0 0 0
SMALL
GASTEIGER
Energy = 0

@<TRIPOS>ATOM
      1 C          -0.1250   -0.5670    0.0000 C.ar    1  LIG1        0.0911
      2 C           0.4670   -1.3830    0.0000 C.ar    1  LIG1        0.1496
      3 O          -0.1250   -2.1880    0.0000 O.2     1  LIG1       -0.4533
      4 C          -1.0750   -1.8790    0.0000 C.ar    1  LIG1        0.1456
      5 C          -1.0750   -0.8790    0.0000 C.ar    1  LIG1        0.0449
      6 C          -1.9210   -0.3790    0.0000 C.ar    1  LIG1        0.0402
      7 C          -2.8000   -0.8790    0.0000 C.ar    1  LIG1        0.1388
      8 C          -2.8000   -1.8790    0.0000 C.ar    1  LIG1        0.0400
      9 C          -1.9210   -2.3790    0.0000 C.ar    1  LIG1        0.0406
     10 O          -3.6630   -0.3790    0.0000 O.3     1  LIG1       -0.4755
     11 C          -4.5250   -0.8830    0.0000 C.3     1  LIG1        0.2055
     12 C          -5.4000   -0.3880    0.0000 C.3     1  LIG1        0.0512
     13 C           1.4670   -1.4290    0.0000 C.ar    1  LIG1        0.0347
     14 C           1.9330   -2.3210    0.0000 C.ar    1  LIG1        0.0030
     15 C           2.9330   -2.3630    0.0000 C.ar    1  LIG1        0.0001
     16 C           3.4750   -1.5040    0.0000 C.ar    1  LIG1        0.0000
     17 C           3.0080   -0.6290    0.0000 C.ar    1  LIG1        0.0001
     18 C           2.0080   -0.5920    0.0000 C.ar    1  LIG1        0.0030
     19 C           0.1960    0.3830    0.0000 C.2     1  LIG1        0.2524
     20 N           1.1630    0.5960    0.0000 N.am    1  LIG1       -0.2644
     21 C           1.8290   -0.1460    0.0000 C.3     1  LIG1        0.1567
     22 C           2.7960    0.0670    0.0000 C.3     1  LIG1        0.1607
     23 N           3.1130    1.0210    0.0000 N.4     1  LIG1        0.3821
     24 C           2.4460    1.7630    0.0000 C.3     1  LIG1        0.1607
     25 C           1.4670    1.5500    0.0000 C.3     1  LIG1        0.1567
     26 C           4.0960    1.2330    0.0000 C.3     1  LIG1        0.1749
     27 C           4.4130    2.1750    0.0000 C.3     1  LIG1        0.2442
     28 O           5.3960    2.3830    0.0000 O.3     1  LIG1       -0.2137
     29 O          -0.4880    1.1250    0.0000 O.2     1  LIG1       -0.2698
@<TRIPOS>BOND
     1     1     2   ar
     2     1     5   ar
     3     1    19    1
     4     2     3   ar
     5     2    13    1
     6     3     4   ar
     7     4     5   ar
     8     4     9   ar
     9     5     6   ar
    10     6     7   ar
    11     7     8   ar
    12     7    10    1
    13     8     9   ar
    14    10    11    1
    15    11    12    1
    16    13    14   ar
    17    13    18   ar
    18    14    15   ar
    19    15    16   ar
    20    16    17   ar
    21    17    18   ar
    22    19    20   am
    23    19    29    2
    24    20    21    1
    25    20    25    1
    26    21    22    1
    27    22    23    1
    28    23    24    1
    29    23    26    1
    30    24    25    1
    31    26    27    1
    32    27    28    1
