@<TRIPOS>MOLECULE
28085_ChemDiv_4356-0449
 24 27 0 0 0
SMALL
GASTEIGER
Energy = 0

@<TRIPOS>ATOM
      1 C           0.0580   -0.8000    0.0000 C.ar    1  LIG1        0.0911
      2 C           0.6130   -1.6040    0.0000 C.ar    1  LIG1        0.1496
      3 O           0.0580   -2.4000    0.0000 O.2     1  LIG1       -0.4533
      4 C          -0.9080   -2.1000    0.0000 C.ar    1  LIG1        0.1456
      5 C          -0.9080   -1.1000    0.0000 C.ar    1  LIG1        0.0451
      6 C          -1.7920   -0.6000    0.0000 C.ar    1  LIG1        0.0453
      7 C          -2.6710   -1.1000    0.0000 C.ar    1  LIG1        0.1959
      8 C          -2.6710   -2.1000    0.0000 C.ar    1  LIG1        0.0452
      9 C          -1.7920   -2.6000    0.0000 C.ar    1  LIG1        0.0408
     10 O          -3.5880   -0.6330    0.0000 O.3     1  LIG1       -0.2866
     11 C           1.5790   -1.6040    0.0000 C.ar    1  LIG1        0.0347
     12 C           2.1080   -2.4460    0.0000 C.ar    1  LIG1        0.0030
     13 C           3.0670   -2.4170    0.0000 C.ar    1  LIG1        0.0001
     14 C           3.5830   -1.5460    0.0000 C.ar    1  LIG1        0.0000
     15 C           3.0670   -0.6880    0.0000 C.ar    1  LIG1        0.0001
     16 C           2.0580   -0.7170    0.0000 C.ar    1  LIG1        0.0030
     17 C           0.4000    0.1670    0.0000 C.2     1  LIG1        0.2522
     18 N          -0.2710    0.9210    0.0000 N.am    1  LIG1       -0.2708
     19 C          -1.2630    0.7210    0.0000 C.3     1  LIG1        0.1258
     20 C          -1.9000    1.4750    0.0000 C.3     1  LIG1        0.1637
     21 O          -1.6000    2.4080    0.0000 O.3     1  LIG1       -0.3501
     22 C          -0.6330    2.6040    0.0000 C.3     1  LIG1        0.1637
     23 C           0.0580    1.8540    0.0000 C.3     1  LIG1        0.1258
     24 O           1.3670    0.3670    0.0000 O.2     1  LIG1       -0.2698
@<TRIPOS>BOND
     1     1     2   ar
     2     1     5   ar
     3     1    17    1
     4     2     3   ar
     5     2    11    1
     6     3     4   ar
     7     4     5   ar
     8     4     9   ar
     9     5     6   ar
    10     6     7   ar
    11     7     8   ar
    12     7    10    1
    13     8     9   ar
    14    11    12   ar
    15    11    16   ar
    16    12    13   ar
    17    13    14   ar
    18    14    15   ar
    19    15    16   ar
    20    17    18   am
    21    17    24    2
    22    18    19    1
    23    18    23    1
    24    19    20    1
    25    20    21    1
    26    21    22    1
    27    22    23    1
