@<TRIPOS>MOLECULE
28084_ChemDiv_4334-1422
 36 39 0 0 0
SMALL
GASTEIGER
Energy = 0

@<TRIPOS>ATOM
      1 N           1.8040    1.0080    0.0000 N.am    1  LIG1       -0.2017
      2 C           1.2290    1.8330    0.0000 C.2     1  LIG1        0.2589
      3 C           0.2420    1.5080    0.0000 C.ar    1  LIG1        0.0588
      4 C           0.2420    0.5130    0.0000 C.ar    1  LIG1        0.0587
      5 C           1.2130    0.1880    0.0000 C.2     1  LIG1        0.2589
      6 O           1.5170   -0.7630    0.0000 O.2     1  LIG1       -0.2691
      7 C          -0.6210   -0.0080    0.0000 C.ar    1  LIG1        0.0048
      8 C          -1.4920    0.4960    0.0000 C.ar    1  LIG1        0.0047
      9 C          -1.4920    1.5080    0.0000 C.ar    1  LIG1        0.0555
     10 C          -2.3670    1.9960    0.0000 C.2     1  LIG1        0.2690
     11 N          -3.2290    1.5080    0.0000 N.am    1  LIG1       -0.1753
     12 C          -3.2290    0.4960    0.0000 C.ar    1  LIG1        0.0780
     13 C          -4.0790    0.0130    0.0000 C.ar    1  LIG1        0.0325
     14 C          -4.0790   -0.9790    0.0000 C.ar    1  LIG1        0.0425
     15 C          -3.2290   -1.4790    0.0000 C.ar    1  LIG1        0.1725
     16 C          -2.3670   -0.9790    0.0000 C.ar    1  LIG1        0.1737
     17 C          -2.3670    0.0130    0.0000 C.ar    1  LIG1        0.0567
     18 O          -1.5000   -1.4790    0.0000 O.3     1  LIG1       -0.4683
     19 C          -1.5000   -2.4670    0.0000 C.3     1  LIG1        0.2526
     20 O          -3.2290   -2.4790    0.0000 O.3     1  LIG1       -0.4684
     21 C          -4.0830   -2.9790    0.0000 C.3     1  LIG1        0.2526
     22 C          -4.9330    0.5130    0.0000 C.2     1  LIG1        0.0742
     23 O          -4.9330    1.5080    0.0000 O.co2   1  LIG1       -0.5445
     24 O          -5.8080    0.0130    0.0000 O.co2   1  LIG1       -0.5445
     25 O          -2.3670    2.9830    0.0000 O.2     1  LIG1       -0.2680
     26 C          -0.6210    1.9960    0.0000 C.ar    1  LIG1        0.0093
     27 O           1.5330    2.7830    0.0000 O.2     1  LIG1       -0.2691
     28 C           2.8170    1.0000    0.0000 C.ar    1  LIG1        0.0533
     29 C           3.3170    1.8710    0.0000 C.ar    1  LIG1       -0.0083
     30 C           4.3080    1.8710    0.0000 C.ar    1  LIG1       -0.0073
     31 C           4.8080    0.9830    0.0000 C.ar    1  LIG1       -0.0224
     32 C           4.3080    0.1330    0.0000 C.ar    1  LIG1       -0.0073
     33 C           3.3170    0.1330    0.0000 C.ar    1  LIG1       -0.0083
     34 C           2.8080   -0.7380    0.0000 C.3     1  LIG1        0.0323
     35 C           5.8040    0.9830    0.0000 C.3     1  LIG1        0.0310
     36 C           2.8080    2.7420    0.0000 C.3     1  LIG1        0.0323
@<TRIPOS>BOND
     1     1     2   am
     2     1     5   am
     3     1    28    1
     4     2     3    1
     5     2    27    2
     6     3     4   ar
     7     3    26   ar
     8     4     5    1
     9     4     7   ar
    10     5     6    2
    11     7     8   ar
    12     8     9   ar
    13     9    10    1
    14     9    26   ar
    15    10    11   am
    16    10    25    2
    17    11    12    1
    18    12    13   ar
    19    12    17   ar
    20    13    14   ar
    21    13    22    1
    22    14    15   ar
    23    15    16   ar
    24    15    20    1
    25    16    17   ar
    26    16    18    1
    27    18    19    1
    28    20    21    1
    29    22    23   ar
    30    22    24   ar
    31    28    29   ar
    32    28    33   ar
    33    29    30   ar
    34    29    36    1
    35    30    31   ar
    36    31    32   ar
    37    31    35    1
    38    32    33   ar
    39    33    34    1
