@<TRIPOS>MOLECULE
28083_ChemDiv_4356-0443
 25 28 0 0 0
SMALL
GASTEIGER
Energy = 0

@<TRIPOS>ATOM
      1 C           0.0710   -0.8000    0.0000 C.ar    1  LIG1        0.0911
      2 C           0.6210   -1.6000    0.0000 C.ar    1  LIG1        0.1496
      3 O           0.0710   -2.3960    0.0000 O.2     1  LIG1       -0.4533
      4 C          -0.8960   -2.0960    0.0000 C.ar    1  LIG1        0.1456
      5 C          -0.8960   -1.1000    0.0000 C.ar    1  LIG1        0.0449
      6 C          -1.7790   -0.6000    0.0000 C.ar    1  LIG1        0.0402
      7 C          -2.6580   -1.1000    0.0000 C.ar    1  LIG1        0.1389
      8 C          -2.6580   -2.0960    0.0000 C.ar    1  LIG1        0.0400
      9 C          -1.7790   -2.5960    0.0000 C.ar    1  LIG1        0.0406
     10 O          -3.5750   -0.6330    0.0000 O.3     1  LIG1       -0.4714
     11 C          -3.5960    0.3920    0.0000 C.3     1  LIG1        0.2525
     12 C           1.5920   -1.6000    0.0000 C.ar    1  LIG1        0.0347
     13 C           2.1210   -2.4420    0.0000 C.ar    1  LIG1        0.0030
     14 C           3.0750   -2.4130    0.0000 C.ar    1  LIG1        0.0001
     15 C           3.5920   -1.5420    0.0000 C.ar    1  LIG1        0.0000
     16 C           3.0750   -0.6880    0.0000 C.ar    1  LIG1        0.0001
     17 C           2.0670   -0.7170    0.0000 C.ar    1  LIG1        0.0030
     18 C           0.4080    0.1670    0.0000 C.2     1  LIG1        0.2522
     19 N          -0.2580    0.9210    0.0000 N.am    1  LIG1       -0.2708
     20 C          -1.2500    0.7210    0.0000 C.3     1  LIG1        0.1258
     21 C          -1.8880    1.4710    0.0000 C.3     1  LIG1        0.1637
     22 O          -1.5880    2.4040    0.0000 O.3     1  LIG1       -0.3501
     23 C          -0.6210    2.6000    0.0000 C.3     1  LIG1        0.1637
     24 C           0.0710    1.8540    0.0000 C.3     1  LIG1        0.1258
     25 O           1.3750    0.3670    0.0000 O.2     1  LIG1       -0.2698
@<TRIPOS>BOND
     1     1     2   ar
     2     1     5   ar
     3     1    18    1
     4     2     3   ar
     5     2    12    1
     6     3     4   ar
     7     4     5   ar
     8     4     9   ar
     9     5     6   ar
    10     6     7   ar
    11     7     8   ar
    12     7    10    1
    13     8     9   ar
    14    10    11    1
    15    12    13   ar
    16    12    17   ar
    17    13    14   ar
    18    14    15   ar
    19    15    16   ar
    20    16    17   ar
    21    18    19   am
    22    18    25    2
    23    19    20    1
    24    19    24    1
    25    20    21    1
    26    21    22    1
    27    22    23    1
    28    23    24    1
