@<TRIPOS>MOLECULE
28081_ChemDiv_3570-0125
 20 22 0 0 0
SMALL
GASTEIGER
Energy = 0

@<TRIPOS>ATOM
      1 C          -0.0290   -0.4330    0.0000 C.ar    1  LIG1        0.0925
      2 C           0.5630   -1.2210    0.0000 C.ar    1  LIG1        0.1496
      3 O          -0.0290   -2.0460    0.0000 O.2     1  LIG1       -0.4533
      4 C          -0.9960   -1.7130    0.0000 C.ar    1  LIG1        0.1457
      5 C          -0.9960   -0.7250    0.0000 C.ar    1  LIG1        0.0451
      6 C          -1.8630   -0.2290    0.0000 C.ar    1  LIG1        0.0453
      7 C          -2.7170   -0.7250    0.0000 C.ar    1  LIG1        0.1959
      8 C          -2.7170   -1.7330    0.0000 C.ar    1  LIG1        0.0452
      9 C          -1.8630   -2.2290    0.0000 C.ar    1  LIG1        0.0408
     10 O          -3.5670   -0.2290    0.0000 O.3     1  LIG1       -0.2866
     11 C           1.5540   -1.2210    0.0000 C.ar    1  LIG1        0.0347
     12 C           2.0460   -2.0880    0.0000 C.ar    1  LIG1        0.0030
     13 C           3.0670   -2.0880    0.0000 C.ar    1  LIG1        0.0001
     14 C           3.5630   -1.2210    0.0000 C.ar    1  LIG1        0.0000
     15 C           3.0580   -0.3630    0.0000 C.ar    1  LIG1        0.0001
     16 C           2.0460   -0.3630    0.0000 C.ar    1  LIG1        0.0030
     17 C           0.2790    0.5330    0.0000 C.2     1  LIG1        0.2679
     18 O           1.2500    0.7460    0.0000 O.2     1  LIG1       -0.2683
     19 N          -0.3830    1.2630    0.0000 N.am    1  LIG1       -0.1997
     20 C          -0.0920    2.2330    0.0000 C.3     1  LIG1        0.1388
@<TRIPOS>BOND
     1     1     2   ar
     2     1     5   ar
     3     1    17    1
     4     2     3   ar
     5     2    11    1
     6     3     4   ar
     7     4     5   ar
     8     4     9   ar
     9     5     6   ar
    10     6     7   ar
    11     7     8   ar
    12     7    10    1
    13     8     9   ar
    14    11    12   ar
    15    11    16   ar
    16    12    13   ar
    17    13    14   ar
    18    14    15   ar
    19    15    16   ar
    20    17    18    2
    21    17    19   am
    22    19    20    1
