@<TRIPOS>MOLECULE
28082_ChemDiv_3289-8617
 36 39 0 0 0
SMALL
GASTEIGER
Energy = 0

@<TRIPOS>ATOM
      1 N           2.2420   -1.8960    0.0000 N.am    1  LIG1       -0.2010
      2 C           1.6790   -1.0540    0.0000 C.2     1  LIG1        0.2589
      3 C           0.7040   -1.3500    0.0000 C.ar    1  LIG1        0.0588
      4 C           0.6960   -2.3580    0.0000 C.ar    1  LIG1        0.0587
      5 C           1.6330   -2.6580    0.0000 C.2     1  LIG1        0.2589
      6 O           1.9830   -3.6210    0.0000 O.2     1  LIG1       -0.2691
      7 C          -0.1960   -2.8540    0.0000 C.ar    1  LIG1        0.0048
      8 C          -1.0500   -2.3420    0.0000 C.ar    1  LIG1        0.0047
      9 C          -1.0330   -1.3330    0.0000 C.ar    1  LIG1        0.0555
     10 C          -1.8920   -0.8380    0.0000 C.2     1  LIG1        0.2690
     11 N          -1.8920    0.1630    0.0000 N.am    1  LIG1       -0.1752
     12 C          -2.7580    0.6290    0.0000 C.ar    1  LIG1        0.0801
     13 C          -2.7420    1.6630    0.0000 C.ar    1  LIG1        0.0909
     14 C          -1.8830    2.1500    0.0000 C.2     1  LIG1        0.3426
     15 O          -1.0290    1.6540    0.0000 O.2     1  LIG1       -0.2448
     16 O          -1.8830    3.1380    0.0000 O.3     1  LIG1       -0.4413
     17 C          -2.7630    3.6250    0.0000 C.3     1  LIG1        0.2560
     18 C          -3.6420    2.1920    0.0000 C.ar    1  LIG1        0.0080
     19 C          -4.5130    1.6630    0.0000 C.ar    1  LIG1        0.0067
     20 C          -4.5210    0.6540    0.0000 C.ar    1  LIG1        0.0769
     21 C          -5.3710    0.1630    0.0000 C.2     1  LIG1        0.3414
     22 O          -6.2330    0.6540    0.0000 O.2     1  LIG1       -0.2449
     23 O          -5.3540   -0.8040    0.0000 O.3     1  LIG1       -0.4413
     24 C          -4.4750   -1.2960    0.0000 C.3     1  LIG1        0.2560
     25 C          -3.6420    0.1630    0.0000 C.ar    1  LIG1        0.0233
     26 O          -2.7420   -1.3170    0.0000 O.2     1  LIG1       -0.2680
     27 C          -0.1790   -0.8460    0.0000 C.ar    1  LIG1        0.0093
     28 O           1.9000   -0.0670    0.0000 O.2     1  LIG1       -0.2691
     29 C           3.2330   -1.8960    0.0000 C.ar    1  LIG1        0.0643
     30 C           3.7330   -2.7420    0.0000 C.ar    1  LIG1        0.0522
     31 C           4.7380   -2.7420    0.0000 C.ar    1  LIG1        0.1400
     32 O           5.2500   -3.6210    0.0000 O.3     1  LIG1       -0.4714
     33 C           6.2330   -3.6040    0.0000 C.3     1  LIG1        0.2525
     34 C           5.2500   -1.8880    0.0000 C.ar    1  LIG1        0.0370
     35 C           4.7210   -1.0380    0.0000 C.ar    1  LIG1        0.0044
     36 C           3.7330   -1.0380    0.0000 C.ar    1  LIG1        0.0155
@<TRIPOS>BOND
     1     1     2   am
     2     1     5   am
     3     1    29    1
     4     2     3    1
     5     2    28    2
     6     3     4   ar
     7     3    27   ar
     8     4     5    1
     9     4     7   ar
    10     5     6    2
    11     7     8   ar
    12     8     9   ar
    13     9    10    1
    14     9    27   ar
    15    10    11   am
    16    10    26    2
    17    11    12    1
    18    12    13   ar
    19    12    25   ar
    20    13    14    1
    21    13    18   ar
    22    14    15    2
    23    14    16    1
    24    16    17    1
    25    18    19   ar
    26    19    20   ar
    27    20    21    1
    28    20    25   ar
    29    21    22    2
    30    21    23    1
    31    23    24    1
    32    29    30   ar
    33    29    36   ar
    34    30    31   ar
    35    31    32    1
    36    31    34   ar
    37    32    33    1
    38    34    35   ar
    39    35    36   ar
