@<TRIPOS>MOLECULE
28094_ChemDiv_2378-0086
 28 32 0 0 0
SMALL
GASTEIGER
Energy = 0

@<TRIPOS>ATOM
      1 N          -1.3830    1.1630    0.0000 N.ar    1  LIG1       -0.3244
      2 C          -2.1750    1.7670    0.0000 C.ar    1  LIG1        0.0600
      3 C          -1.8580    2.7000    0.0000 C.ar    1  LIG1        0.0172
      4 C          -0.8460    2.7000    0.0000 C.ar    1  LIG1        0.0172
      5 C          -0.5670    1.7210    0.0000 C.ar    1  LIG1        0.0600
      6 C           0.4210    1.5080    0.0000 C.ar    1  LIG1        0.0172
      7 C           1.1080    2.2420    0.0000 C.ar    1  LIG1        0.0015
      8 C           0.7830    3.1750    0.0000 C.ar    1  LIG1        0.0001
      9 C          -0.1670    3.4080    0.0000 C.ar    1  LIG1        0.0015
     10 C          -2.5500    3.4330    0.0000 C.ar    1  LIG1        0.0015
     11 C          -3.5250    3.2290    0.0000 C.ar    1  LIG1        0.0001
     12 C          -3.8250    2.2960    0.0000 C.ar    1  LIG1        0.0015
     13 C          -3.1500    1.5670    0.0000 C.ar    1  LIG1        0.0172
     14 C          -1.3830    0.1290    0.0000 C.3     1  LIG1        0.1427
     15 C          -0.5080   -0.3830    0.0000 C.3     1  LIG1        0.2177
     16 C          -0.5080   -1.4040    0.0000 C.3     1  LIG1        0.2401
     17 O           0.3630   -1.9080    0.0000 O.3     1  LIG1       -0.4711
     18 C           1.2250   -1.4210    0.0000 C.ar    1  LIG1        0.1561
     19 C           2.0830   -1.9330    0.0000 C.ar    1  LIG1        0.1151
     20 N           2.0830   -2.9170    0.0000 N.ar    1  LIG1       -0.2408
     21 C           2.9210   -3.4290    0.0000 C.ar    1  LIG1        0.0989
     22 C           3.8000   -2.9290    0.0000 C.ar    1  LIG1        0.0207
     23 C           3.8210   -1.9330    0.0000 C.ar    1  LIG1        0.0032
     24 C           2.9630   -1.4380    0.0000 C.ar    1  LIG1        0.0207
     25 C           2.9670   -0.4460    0.0000 C.ar    1  LIG1        0.0017
     26 C           2.1040    0.0710    0.0000 C.ar    1  LIG1        0.0032
     27 C           1.2250   -0.4250    0.0000 C.ar    1  LIG1        0.0385
     28 O           0.3630    0.1500    0.0000 O.3     1  LIG1       -0.2170
@<TRIPOS>BOND
     1     1     2   ar
     2     1     5   ar
     3     1    14    1
     4     2     3   ar
     5     2    13   ar
     6     3     4   ar
     7     3    10   ar
     8     4     5   ar
     9     4     9   ar
    10     5     6   ar
    11     6     7   ar
    12     7     8   ar
    13     8     9   ar
    14    10    11   ar
    15    11    12   ar
    16    12    13   ar
    17    14    15    1
    18    15    16    1
    19    15    28    1
    20    16    17    1
    21    17    18    1
    22    18    19   ar
    23    18    27   ar
    24    19    20   ar
    25    19    24   ar
    26    20    21   ar
    27    21    22   ar
    28    22    23   ar
    29    23    24   ar
    30    24    25   ar
    31    25    26   ar
    32    26    27   ar
