@<TRIPOS>MOLECULE
28096_ChemDiv_5104-0024
 28 32 0 0 0
SMALL
GASTEIGER
Energy = 0

@<TRIPOS>ATOM
      1 N          -1.6210   -0.4630    0.0000 N.ar    1  LIG1       -0.3243
      2 C          -1.7290    0.5290    0.0000 C.ar    1  LIG1        0.0600
      3 C          -2.6960    0.7380    0.0000 C.ar    1  LIG1        0.0172
      4 C          -3.1960   -0.1210    0.0000 C.ar    1  LIG1        0.0172
      5 C          -2.5420   -0.8630    0.0000 C.ar    1  LIG1        0.0600
      6 C          -2.8750   -1.8250    0.0000 C.ar    1  LIG1        0.0172
      7 C          -3.8790   -2.0130    0.0000 C.ar    1  LIG1        0.0015
      8 C          -4.4960   -1.2750    0.0000 C.ar    1  LIG1        0.0001
      9 C          -4.1790   -0.3250    0.0000 C.ar    1  LIG1        0.0015
     10 C          -3.0040    1.6830    0.0000 C.ar    1  LIG1        0.0015
     11 C          -2.3630    2.4330    0.0000 C.ar    1  LIG1        0.0001
     12 C          -1.3540    2.1920    0.0000 C.ar    1  LIG1        0.0015
     13 C          -1.0540    1.2670    0.0000 C.ar    1  LIG1        0.0172
     14 C          -0.7290   -0.9580    0.0000 C.3     1  LIG1        0.1462
     15 C           0.1380   -0.4420    0.0000 C.3     1  LIG1        0.2520
     16 C           1.0080   -0.9460    0.0000 C.3     1  LIG1        0.3572
     17 N           1.8750   -0.4170    0.0000 N.ar    1  LIG1       -0.1633
     18 C           2.7500   -0.9130    0.0000 C.ar    1  LIG1        0.2107
     19 C           2.7500   -1.9250    0.0000 C.ar    1  LIG1       -0.0254
     20 O           1.8750   -2.4000    0.0000 O.co2   1  LIG1       -0.8691
     21 C           3.6170   -2.4290    0.0000 C.ar    1  LIG1       -0.0108
     22 C           4.4920   -1.9080    0.0000 C.ar    1  LIG1       -0.0008
     23 C           4.4750   -0.9040    0.0000 C.ar    1  LIG1        0.0058
     24 C           3.6080   -0.4130    0.0000 C.ar    1  LIG1        0.0625
     25 C           3.6080    0.5710    0.0000 C.ar    1  LIG1        0.0122
     26 C           2.7500    1.0630    0.0000 C.ar    1  LIG1        0.0758
     27 C           1.8750    0.5670    0.0000 C.ar    1  LIG1        0.2900
     28 O           0.1380    0.5500    0.0000 O.3     1  LIG1       -0.2134
@<TRIPOS>BOND
     1     1     2   ar
     2     1     5   ar
     3     1    14    1
     4     2     3   ar
     5     2    13   ar
     6     3     4   ar
     7     3    10   ar
     8     4     5   ar
     9     4     9   ar
    10     5     6   ar
    11     6     7   ar
    12     7     8   ar
    13     8     9   ar
    14    10    11   ar
    15    11    12   ar
    16    12    13   ar
    17    14    15    1
    18    15    16    1
    19    15    28    1
    20    16    17    1
    21    17    18   ar
    22    17    27   ar
    23    18    19   ar
    24    18    24   ar
    25    19    20    1
    26    19    21   ar
    27    21    22   ar
    28    22    23   ar
    29    23    24   ar
    30    24    25   ar
    31    25    26   ar
    32    26    27   ar
