@<TRIPOS>MOLECULE
28090_ChemDiv_2372-3546
 21 22 0 0 0
SMALL
GASTEIGER
Energy = 0

@<TRIPOS>ATOM
      1 C           1.9500   -0.7790    0.0000 C.ar    1  LIG1        0.0153
      2 C           2.8040   -1.3170    0.0000 C.2     1  LIG1        0.0729
      3 O           3.6790   -0.8380    0.0000 O.co2   1  LIG1       -0.5446
      4 O           2.7130   -2.2830    0.0000 O.co2   1  LIG1       -0.5446
      5 C           1.9710    0.2040    0.0000 C.ar    1  LIG1        0.0023
      6 C           1.0960    0.7040    0.0000 C.ar    1  LIG1        0.0153
      7 C           1.0960    1.7130    0.0000 C.2     1  LIG1        0.0729
      8 O           0.2630    2.2130    0.0000 O.co2   1  LIG1       -0.5446
      9 O           1.9830    2.1250    0.0000 O.co2   1  LIG1       -0.5446
     10 C           0.2170    0.2210    0.0000 C.ar    1  LIG1        0.0177
     11 C           0.2040   -0.7460    0.0000 C.ar    1  LIG1        0.0734
     12 N          -0.6380   -1.2460    0.0000 N.am    1  LIG1       -0.1789
     13 C          -1.5250   -0.7500    0.0000 C.2     1  LIG1        0.2505
     14 C          -1.3670    0.2630    0.0000 C.3     1  LIG1        0.1200
     15 C          -2.1460    0.8880    0.0000 C.ar    1  LIG1        0.0165
     16 S          -3.1130    0.6580    0.0000 S.2     1  LIG1       -0.0903
     17 C          -3.6830    1.5000    0.0000 C.ar    1  LIG1        0.0351
     18 C          -3.0830    2.2880    0.0000 C.ar    1  LIG1        0.0072
     19 C          -2.1500    1.9000    0.0000 C.ar    1  LIG1        0.0032
     20 O          -2.4710   -1.2000    0.0000 O.2     1  LIG1       -0.2726
     21 C           1.0750   -1.2630    0.0000 C.ar    1  LIG1        0.0177
@<TRIPOS>BOND
     1     1     2    1
     2     1     5   ar
     3     1    21   ar
     4     2     3   ar
     5     2     4   ar
     6     5     6   ar
     7     6     7    1
     8     6    10   ar
     9     7     8   ar
    10     7     9   ar
    11    10    11   ar
    12    11    12    1
    13    11    21   ar
    14    12    13   am
    15    13    14    1
    16    13    20    2
    17    14    15    1
    18    15    16   ar
    19    15    19   ar
    20    16    17   ar
    21    17    18   ar
    22    18    19   ar
