@<TRIPOS>MOLECULE
28104_ChemDiv_E240-0455
 26 29 0 0 0
SMALL
GASTEIGER
Energy = 0

@<TRIPOS>ATOM
      1 C           1.2750   -0.6670    0.0000 C.ar    1  LIG1        0.2300
      2 C           2.2710   -0.5630    0.0000 C.ar    1  LIG1        0.0674
      3 C           2.4790    0.4170    0.0000 C.ar    1  LIG1        0.1263
      4 N           1.6130    0.9170    0.0000 N.ar    1  LIG1       -0.0767
      5 O           0.8670    0.2460    0.0000 O.2     1  LIG1       -0.3487
      6 C           3.3920    0.8210    0.0000 C.ar    1  LIG1        0.0598
      7 C           3.4920    1.8170    0.0000 C.ar    1  LIG1        0.1972
      8 O           2.6880    2.4040    0.0000 O.3     1  LIG1       -0.2865
      9 C           4.4080    2.2210    0.0000 C.ar    1  LIG1        0.0421
     10 C           5.2170    1.6380    0.0000 C.ar    1  LIG1        0.0033
     11 C           5.1130    0.6420    0.0000 C.ar    1  LIG1        0.0003
     12 C           4.2000    0.2330    0.0000 C.ar    1  LIG1        0.0048
     13 C           0.7750   -1.5330    0.0000 C.2     1  LIG1        0.2865
     14 N          -0.2250   -1.5330    0.0000 N.am    1  LIG1       -0.2700
     15 C          -0.7250   -0.6670    0.0000 C.3     1  LIG1        0.1152
     16 C          -1.7250   -0.6670    0.0000 C.3     1  LIG1        0.1123
     17 N          -2.2250   -1.5330    0.0000 N.pl3   1  LIG1       -0.3041
     18 C          -1.7250   -2.4000    0.0000 C.3     1  LIG1        0.1123
     19 C          -0.7250   -2.4000    0.0000 C.3     1  LIG1        0.1152
     20 C          -3.2250   -1.5330    0.0000 C.ar    1  LIG1        0.0479
     21 C          -3.7210   -2.4000    0.0000 C.ar    1  LIG1        0.0145
     22 C          -4.7210   -2.4000    0.0000 C.ar    1  LIG1        0.0013
     23 C          -5.2210   -1.5330    0.0000 C.ar    1  LIG1        0.0001
     24 C          -4.7210   -0.6670    0.0000 C.ar    1  LIG1        0.0013
     25 C          -3.7210   -0.6670    0.0000 C.ar    1  LIG1        0.0145
     26 O           1.2750   -2.4000    0.0000 O.2     1  LIG1       -0.2665
@<TRIPOS>BOND
     1     1     2   ar
     2     1     5   ar
     3     1    13    1
     4     2     3   ar
     5     3     4   ar
     6     3     6    1
     7     4     5   ar
     8     6     7   ar
     9     6    12   ar
    10     7     8    1
    11     7     9   ar
    12     9    10   ar
    13    10    11   ar
    14    11    12   ar
    15    13    14   am
    16    13    26    2
    17    14    15    1
    18    14    19    1
    19    15    16    1
    20    16    17    1
    21    17    18    1
    22    17    20    1
    23    18    19    1
    24    20    21   ar
    25    20    25   ar
    26    21    22   ar
    27    22    23   ar
    28    23    24   ar
    29    24    25   ar
