@<TRIPOS>MOLECULE
28117_ChemDiv_8007-8228
 18 20 0 0 0
SMALL
GASTEIGER
Energy = 0

@<TRIPOS>ATOM
      1 C          -0.1170    0.2080    0.0000 C.ar    1  LIG1        0.1829
      2 N          -0.1170    1.0920    0.0000 N.ar    1  LIG1       -0.2273
      3 C          -1.6630    1.0920    0.0000 C.ar    1  LIG1        0.0630
      4 C          -1.6630    0.2080    0.0000 C.ar    1  LIG1        0.0235
      5 S          -0.8750   -0.2460    0.0000 S.2     1  LIG1       -0.0545
      6 C          -2.5290   -0.2790    0.0000 C.3     1  LIG1        0.0343
      7 C          -3.4040    0.1790    0.0000 C.3     1  LIG1        0.0057
      8 C          -3.4040    1.1210    0.0000 C.3     1  LIG1        0.0067
      9 C          -2.5290    1.6130    0.0000 C.3     1  LIG1        0.0461
     10 N           0.7790   -0.3170    0.0000 N.pl3   1  LIG1       -0.1855
     11 C           1.6540    0.2080    0.0000 C.ar    1  LIG1        0.1064
     12 C           2.5500   -0.2790    0.0000 C.ar    1  LIG1        0.1539
     13 O           2.5500   -1.2500    0.0000 O.3     1  LIG1       -0.4701
     14 C           1.8040   -1.7290    0.0000 C.3     1  LIG1        0.2525
     15 C           3.4000    0.2330    0.0000 C.ar    1  LIG1        0.0383
     16 C           3.4000    1.2540    0.0000 C.ar    1  LIG1        0.0032
     17 C           2.5210    1.7330    0.0000 C.ar    1  LIG1        0.0015
     18 C           1.6540    1.2080    0.0000 C.ar    1  LIG1        0.0197
@<TRIPOS>BOND
     1     1     2   ar
     2     1     5   ar
     3     1    10    1
     4     2     3   ar
     5     3     4   ar
     6     3     9    1
     7     4     5   ar
     8     4     6    1
     9     6     7    1
    10     7     8    1
    11     8     9    1
    12    10    11    1
    13    11    12   ar
    14    11    18   ar
    15    12    13    1
    16    12    15   ar
    17    13    14    1
    18    15    16   ar
    19    16    17   ar
    20    17    18   ar
