@<TRIPOS>MOLECULE
28113_ChemDiv_6370-0237
 19 20 0 0 0
SMALL
GASTEIGER
Energy = 0

@<TRIPOS>ATOM
      1 C           2.4710   -0.4080    0.0000 C.ar    1  LIG1        0.0803
      2 C           1.7630    0.3000    0.0000 C.ar    1  LIG1        0.0697
      3 N           0.8670   -0.1630    0.0000 N.ar    1  LIG1       -0.2268
      4 C           1.0040   -1.1130    0.0000 C.ar    1  LIG1        0.1856
      5 S           2.0000   -1.2920    0.0000 S.2     1  LIG1       -0.0472
      6 N           0.2540   -1.7790    0.0000 N.am    1  LIG1       -0.1522
      7 C          -0.7080   -1.4670    0.0000 C.2     1  LIG1        0.2775
      8 O          -0.9250   -0.4790    0.0000 O.2     1  LIG1       -0.2702
      9 C          -1.4670   -2.1330    0.0000 C.3     1  LIG1        0.2291
     10 O          -2.4290   -1.8540    0.0000 O.3     1  LIG1       -0.3444
     11 C          -3.1790   -2.5250    0.0000 C.3     1  LIG1        0.1429
     12 C          -4.1210   -2.2460    0.0000 C.3     1  LIG1        0.0347
     13 C           2.0000    1.2500    0.0000 C.3     1  LIG1        0.0469
     14 C           2.9630    1.5330    0.0000 C.3     1  LIG1        0.0129
     15 C           3.6920    0.7960    0.0000 C.3     1  LIG1        0.0701
     16 C           3.4130   -0.1630    0.0000 C.2     1  LIG1        0.1802
     17 O           4.1170   -0.8670    0.0000 O.2     1  LIG1       -0.2908
     18 C           3.6670    2.2420    0.0000 C.3     1  LIG1        0.0008
     19 C           2.8670    2.5290    0.0000 C.3     1  LIG1        0.0008
@<TRIPOS>BOND
     1     1     2   ar
     2     1     5   ar
     3     1    16    1
     4     2     3   ar
     5     2    13    1
     6     3     4   ar
     7     4     5   ar
     8     4     6    1
     9     6     7   am
    10     7     8    2
    11     7     9    1
    12     9    10    1
    13    10    11    1
    14    11    12    1
    15    13    14    1
    16    14    15    1
    17    14    18    1
    18    14    19    1
    19    15    16    1
    20    16    17    2
