@<TRIPOS>MOLECULE
28114_ChemDiv_2680-0401
 25 27 0 0 0
SMALL
GASTEIGER
Energy = 0

@<TRIPOS>ATOM
      1 C          -2.1630    0.5040    0.0000 C.ar    1  LIG1        0.1205
      2 N          -1.3000    1.0170    0.0000 N.ar    1  LIG1       -0.1445
      3 N          -0.4420    0.5040    0.0000 N.ar    1  LIG1       -0.1218
      4 C          -0.4420   -0.5080    0.0000 C.ar    1  LIG1        0.2110
      5 N          -1.3000   -0.9960    0.0000 N.ar    1  LIG1       -0.2183
      6 C          -2.1630   -0.5080    0.0000 C.ar    1  LIG1        0.1028
      7 C          -3.0170   -0.9960    0.0000 C.ar    1  LIG1        0.0193
      8 C          -3.9040   -0.5080    0.0000 C.ar    1  LIG1        0.0015
      9 C          -4.7460   -0.9960    0.0000 C.ar    1  LIG1        0.0000
     10 C          -4.7460   -1.9960    0.0000 C.ar    1  LIG1        0.0000
     11 C          -3.9040   -2.4830    0.0000 C.ar    1  LIG1        0.0000
     12 C          -3.0170   -1.9960    0.0000 C.ar    1  LIG1        0.0015
     13 S           0.4250   -1.0000    0.0000 S.3     1  LIG1       -0.0621
     14 C           1.2920   -0.5080    0.0000 C.3     1  LIG1        0.1743
     15 C           2.1500   -1.0000    0.0000 C.2     1  LIG1        0.3286
     16 O           2.1500   -2.0080    0.0000 O.2     1  LIG1       -0.2491
     17 O           3.0330   -0.4920    0.0000 O.3     1  LIG1       -0.4479
     18 C           3.9040   -1.0000    0.0000 C.3     1  LIG1        0.2086
     19 C           4.7710   -0.5080    0.0000 C.3     1  LIG1        0.0513
     20 C          -3.0250    0.9790    0.0000 C.ar    1  LIG1        0.0209
     21 C          -3.0250    1.9880    0.0000 C.ar    1  LIG1        0.0016
     22 C          -3.9040    2.4880    0.0000 C.ar    1  LIG1        0.0000
     23 C          -4.7750    2.0040    0.0000 C.ar    1  LIG1        0.0000
     24 C          -4.7750    0.9790    0.0000 C.ar    1  LIG1        0.0000
     25 C          -3.9040    0.4880    0.0000 C.ar    1  LIG1        0.0016
@<TRIPOS>BOND
     1     1     2   ar
     2     1     6   ar
     3     1    20    1
     4     2     3   ar
     5     3     4   ar
     6     4     5   ar
     7     4    13    1
     8     5     6   ar
     9     6     7    1
    10     7     8   ar
    11     7    12   ar
    12     8     9   ar
    13     9    10   ar
    14    10    11   ar
    15    11    12   ar
    16    13    14    1
    17    14    15    1
    18    15    16    2
    19    15    17    1
    20    17    18    1
    21    18    19    1
    22    20    21   ar
    23    20    25   ar
    24    21    22   ar
    25    22    23   ar
    26    23    24   ar
    27    24    25   ar
