@<TRIPOS>MOLECULE
28110_ChemDiv_E240-0462
 19 20 0 0 0
SMALL
GASTEIGER
Energy = 0

@<TRIPOS>ATOM
      1 C          -0.2250   -0.6670    0.0000 C.ar    1  LIG1        0.2315
      2 C           0.7710   -0.5630    0.0000 C.ar    1  LIG1        0.0675
      3 C           0.9790    0.4170    0.0000 C.ar    1  LIG1        0.1263
      4 N           0.1130    0.9170    0.0000 N.ar    1  LIG1       -0.0767
      5 O          -0.6290    0.2500    0.0000 O.2     1  LIG1       -0.3487
      6 C           1.8920    0.8210    0.0000 C.ar    1  LIG1        0.0598
      7 C           1.9960    1.8170    0.0000 C.ar    1  LIG1        0.1972
      8 O           1.1880    2.4040    0.0000 O.3     1  LIG1       -0.2865
      9 C           2.9080    2.2250    0.0000 C.ar    1  LIG1        0.0421
     10 C           3.7210    1.6380    0.0000 C.ar    1  LIG1        0.0033
     11 C           3.6130    0.6420    0.0000 C.ar    1  LIG1        0.0003
     12 C           2.7000    0.2330    0.0000 C.ar    1  LIG1        0.0048
     13 C          -0.7250   -1.5330    0.0000 C.2     1  LIG1        0.3021
     14 N          -1.7210   -1.5330    0.0000 N.am    1  LIG1       -0.2008
     15 C          -2.2250   -0.6670    0.0000 C.3     1  LIG1        0.0958
     16 C          -3.2250   -0.6670    0.0000 C.3     1  LIG1        0.0217
     17 C          -3.7250    0.1960    0.0000 C.3     1  LIG1        0.0018
     18 C          -1.7210    0.1960    0.0000 C.3     1  LIG1        0.0234
     19 O          -0.2250   -2.4000    0.0000 O.2     1  LIG1       -0.2649
@<TRIPOS>BOND
     1     1     2   ar
     2     1     5   ar
     3     1    13    1
     4     2     3   ar
     5     3     4   ar
     6     3     6    1
     7     4     5   ar
     8     6     7   ar
     9     6    12   ar
    10     7     8    1
    11     7     9   ar
    12     9    10   ar
    13    10    11   ar
    14    11    12   ar
    15    13    14   am
    16    13    19    2
    17    14    15    1
    18    15    16    1
    19    15    18    1
    20    16    17    1
