@<TRIPOS>MOLECULE
28119_ChemDiv_8016-5787
 23 27 0 0 0
SMALL
GASTEIGER
Energy = 0

@<TRIPOS>ATOM
      1 C          -0.7960   -0.4130    0.0000 C.ar    1  LIG1        0.1852
      2 N          -1.3830    0.3880    0.0000 N.ar    1  LIG1       -0.2272
      3 C          -2.3330    0.0830    0.0000 C.ar    1  LIG1        0.0630
      4 C          -2.3210   -0.9170    0.0000 C.ar    1  LIG1        0.0235
      5 S          -1.3750   -1.2170    0.0000 S.2     1  LIG1       -0.0544
      6 C          -3.1880   -1.4170    0.0000 C.3     1  LIG1        0.0343
      7 C          -4.0580   -0.9250    0.0000 C.3     1  LIG1        0.0057
      8 C          -4.0580    0.0830    0.0000 C.3     1  LIG1        0.0067
      9 C          -3.1880    0.5880    0.0000 C.3     1  LIG1        0.0461
     10 N           0.2040   -0.4040    0.0000 N.am    1  LIG1       -0.1543
     11 C           0.7210   -1.2670    0.0000 C.2     1  LIG1        0.2473
     12 C           1.7170   -1.2630    0.0000 C.3     1  LIG1        0.0872
     13 C           2.2080   -0.3920    0.0000 C.3     1  LIG1        0.0087
     14 C           1.8540    0.6000    0.0000 C.3     1  LIG1        0.0005
     15 C           2.6540    1.1830    0.0000 C.3     1  LIG1        0.0000
     16 C           2.9330    2.1460    0.0000 C.3     1  LIG1        0.0000
     17 C           3.2290    1.0460    0.0000 C.3     1  LIG1        0.0000
     18 C           2.5080    0.4960    0.0000 C.3     1  LIG1        0.0005
     19 C           4.0540    0.5460    0.0000 C.3     1  LIG1        0.0000
     20 C           3.8540   -0.3630    0.0000 C.3     1  LIG1        0.0000
     21 C           3.0460   -0.9420    0.0000 C.3     1  LIG1        0.0005
     22 C           3.5330    0.6460    0.0000 C.3     1  LIG1        0.0000
     23 O           0.2170   -2.1420    0.0000 O.2     1  LIG1       -0.2729
@<TRIPOS>BOND
     1     1     2   ar
     2     1     5   ar
     3     1    10    1
     4     2     3   ar
     5     3     4   ar
     6     3     9    1
     7     4     5   ar
     8     4     6    1
     9     6     7    1
    10     7     8    1
    11     8     9    1
    12    10    11   am
    13    11    12    1
    14    11    23    2
    15    12    13    1
    16    13    14    1
    17    13    18    1
    18    13    21    1
    19    14    15    1
    20    15    16    1
    21    15    22    1
    22    16    17    1
    23    17    18    1
    24    17    19    1
    25    19    20    1
    26    20    21    1
    27    20    22    1
