@<TRIPOS>MOLECULE
28118_ChemDiv_2893-0040
 28 31 0 0 0
SMALL
GASTEIGER
Energy = 0

@<TRIPOS>ATOM
      1 C          -1.7420   -1.0380    0.0000 C.ar    1  LIG1        0.1205
      2 N          -0.8790   -1.5290    0.0000 N.ar    1  LIG1       -0.1445
      3 N          -0.0290   -1.0380    0.0000 N.ar    1  LIG1       -0.1218
      4 C          -0.0290   -0.0210    0.0000 C.ar    1  LIG1        0.2110
      5 N          -0.8790    0.4710    0.0000 N.ar    1  LIG1       -0.2183
      6 C          -1.7420   -0.0210    0.0000 C.ar    1  LIG1        0.1028
      7 C          -2.6000    0.4710    0.0000 C.ar    1  LIG1        0.0193
      8 C          -3.4670   -0.0210    0.0000 C.ar    1  LIG1        0.0015
      9 C          -4.3250    0.4710    0.0000 C.ar    1  LIG1        0.0000
     10 C          -4.3250    1.4750    0.0000 C.ar    1  LIG1        0.0000
     11 C          -3.4670    1.9920    0.0000 C.ar    1  LIG1        0.0000
     12 C          -2.6000    1.4750    0.0000 C.ar    1  LIG1        0.0015
     13 S           0.8630    0.4830    0.0000 S.3     1  LIG1       -0.0642
     14 C           0.8630    1.5290    0.0000 C.3     1  LIG1        0.1501
     15 C           1.7380    2.0040    0.0000 C.2     1  LIG1        0.2371
     16 N           2.6000    1.5290    0.0000 N.am    1  LIG1       -0.2788
     17 C           2.6000    0.5130    0.0000 C.3     1  LIG1        0.0934
     18 C           3.4630    0.0000    0.0000 C.3     1  LIG1        0.0216
     19 C           4.3210    0.5130    0.0000 C.3     1  LIG1        0.0035
     20 C           4.3210    1.5290    0.0000 C.3     1  LIG1        0.0216
     21 C           3.4630    2.0040    0.0000 C.3     1  LIG1        0.0934
     22 O           1.7380    3.0250    0.0000 O.2     1  LIG1       -0.2739
     23 C          -2.6000   -1.5290    0.0000 C.ar    1  LIG1        0.0209
     24 C          -3.4670   -1.0380    0.0000 C.ar    1  LIG1        0.0016
     25 C          -4.3250   -1.5290    0.0000 C.ar    1  LIG1        0.0000
     26 C          -4.3250   -2.5290    0.0000 C.ar    1  LIG1        0.0000
     27 C          -3.4670   -3.0210    0.0000 C.ar    1  LIG1        0.0000
     28 C          -2.6000   -2.5290    0.0000 C.ar    1  LIG1        0.0016
@<TRIPOS>BOND
     1     1     2   ar
     2     1     6   ar
     3     1    23    1
     4     2     3   ar
     5     3     4   ar
     6     4     5   ar
     7     4    13    1
     8     5     6   ar
     9     6     7    1
    10     7     8   ar
    11     7    12   ar
    12     8     9   ar
    13     9    10   ar
    14    10    11   ar
    15    11    12   ar
    16    13    14    1
    17    14    15    1
    18    15    16   am
    19    15    22    2
    20    16    17    1
    21    16    21    1
    22    17    18    1
    23    18    19    1
    24    19    20    1
    25    20    21    1
    26    23    24   ar
    27    23    28   ar
    28    24    25   ar
    29    25    26   ar
    30    26    27   ar
    31    27    28   ar
