@<TRIPOS>MOLECULE
28116_ChemDiv_2680-0402
 22 24 0 0 0
SMALL
GASTEIGER
Energy = 0

@<TRIPOS>ATOM
      1 C          -1.2880    0.5000    0.0000 C.ar    1  LIG1        0.1205
      2 N          -0.4210    0.9920    0.0000 N.ar    1  LIG1       -0.1445
      3 N           0.4290    0.5000    0.0000 N.ar    1  LIG1       -0.1218
      4 C           0.4290   -0.5080    0.0000 C.ar    1  LIG1        0.2115
      5 N          -0.4210   -0.9960    0.0000 N.ar    1  LIG1       -0.2183
      6 C          -1.2880   -0.5080    0.0000 C.ar    1  LIG1        0.1028
      7 C          -2.1460   -1.0080    0.0000 C.ar    1  LIG1        0.0193
      8 C          -3.0170   -0.5210    0.0000 C.ar    1  LIG1        0.0015
      9 C          -3.8880   -1.0080    0.0000 C.ar    1  LIG1        0.0000
     10 C          -3.8880   -2.0210    0.0000 C.ar    1  LIG1        0.0000
     11 C          -3.0170   -2.5040    0.0000 C.ar    1  LIG1        0.0000
     12 C          -2.1460   -2.0210    0.0000 C.ar    1  LIG1        0.0015
     13 S           1.3080   -1.0080    0.0000 S.3     1  LIG1       -0.0574
     14 C           2.1880   -0.5080    0.0000 C.3     1  LIG1        0.1699
     15 C           3.0380   -1.0080    0.0000 C.1     1  LIG1        0.0856
     16 N           3.8960   -1.5000    0.0000 N.1     1  LIG1       -0.1949
     17 C          -2.1540    1.0080    0.0000 C.ar    1  LIG1        0.0209
     18 C          -3.0170    0.5000    0.0000 C.ar    1  LIG1        0.0016
     19 C          -3.9000    1.0170    0.0000 C.ar    1  LIG1        0.0000
     20 C          -3.9000    2.0000    0.0000 C.ar    1  LIG1        0.0000
     21 C          -3.0170    2.5080    0.0000 C.ar    1  LIG1        0.0000
     22 C          -2.1540    2.0080    0.0000 C.ar    1  LIG1        0.0016
@<TRIPOS>BOND
     1     1     2   ar
     2     1     6   ar
     3     1    17    1
     4     2     3   ar
     5     3     4   ar
     6     4     5   ar
     7     4    13    1
     8     5     6   ar
     9     6     7    1
    10     7     8   ar
    11     7    12   ar
    12     8     9   ar
    13     9    10   ar
    14    10    11   ar
    15    11    12   ar
    16    13    14    1
    17    14    15    1
    18    15    16    3
    19    17    18   ar
    20    17    22   ar
    21    18    19   ar
    22    19    20   ar
    23    20    21   ar
    24    21    22   ar
