@<TRIPOS>MOLECULE
28112_ChemDiv_E240-0467
 22 24 0 0 0
SMALL
GASTEIGER
Energy = 0

@<TRIPOS>ATOM
      1 C           0.5250   -0.6670    0.0000 C.ar    1  LIG1        0.2315
      2 C           1.5210   -0.5630    0.0000 C.ar    1  LIG1        0.0675
      3 C           1.7290    0.4170    0.0000 C.ar    1  LIG1        0.1263
      4 N           0.8630    0.9170    0.0000 N.ar    1  LIG1       -0.0767
      5 O           0.1170    0.2500    0.0000 O.2     1  LIG1       -0.3487
      6 C           2.6420    0.8210    0.0000 C.ar    1  LIG1        0.0598
      7 C           2.7420    1.8170    0.0000 C.ar    1  LIG1        0.1972
      8 O           1.9380    2.4040    0.0000 O.3     1  LIG1       -0.2865
      9 C           3.6580    2.2250    0.0000 C.ar    1  LIG1        0.0421
     10 C           4.4710    1.6380    0.0000 C.ar    1  LIG1        0.0033
     11 C           4.3630    0.6420    0.0000 C.ar    1  LIG1        0.0003
     12 C           3.4500    0.2330    0.0000 C.ar    1  LIG1        0.0048
     13 C           0.0250   -1.5330    0.0000 C.2     1  LIG1        0.3025
     14 N          -0.9750   -1.5330    0.0000 N.am    1  LIG1       -0.1925
     15 C          -1.4750   -0.6670    0.0000 C.3     1  LIG1        0.1609
     16 C          -2.4750   -0.6670    0.0000 C.ar    1  LIG1        0.0809
     17 N          -2.9750    0.1960    0.0000 N.ar    1  LIG1       -0.2464
     18 C          -3.9790    0.1960    0.0000 C.ar    1  LIG1        0.0985
     19 C          -4.4750   -0.6670    0.0000 C.ar    1  LIG1        0.0207
     20 C          -3.9790   -1.5330    0.0000 C.ar    1  LIG1        0.0029
     21 C          -2.9750   -1.5330    0.0000 C.ar    1  LIG1        0.0165
     22 O           0.5250   -2.4000    0.0000 O.2     1  LIG1       -0.2649
@<TRIPOS>BOND
     1     1     2   ar
     2     1     5   ar
     3     1    13    1
     4     2     3   ar
     5     3     4   ar
     6     3     6    1
     7     4     5   ar
     8     6     7   ar
     9     6    12   ar
    10     7     8    1
    11     7     9   ar
    12     9    10   ar
    13    10    11   ar
    14    11    12   ar
    15    13    14   am
    16    13    22    2
    17    14    15    1
    18    15    16    1
    19    16    17   ar
    20    16    21   ar
    21    17    18   ar
    22    18    19   ar
    23    19    20   ar
    24    20    21   ar
