@<TRIPOS>MOLECULE
28115_ChemDiv_8006-4569
 24 26 0 0 0
SMALL
GASTEIGER
Energy = 0

@<TRIPOS>ATOM
      1 C           0.3630    2.9710    0.0000 C.ar    1  LIG1        0.1853
      2 N          -0.2040    2.1540    0.0000 N.ar    1  LIG1       -0.2272
      3 C          -1.1630    2.4580    0.0000 C.ar    1  LIG1        0.0630
      4 C          -1.1630    3.4830    0.0000 C.ar    1  LIG1        0.0235
      5 S          -0.2040    3.7670    0.0000 S.2     1  LIG1       -0.0544
      6 C          -2.0210    3.9710    0.0000 C.3     1  LIG1        0.0343
      7 C          -2.8920    3.4830    0.0000 C.3     1  LIG1        0.0057
      8 C          -2.8920    2.4580    0.0000 C.3     1  LIG1        0.0067
      9 C          -2.0210    1.9630    0.0000 C.3     1  LIG1        0.0461
     10 N           1.3830    2.9880    0.0000 N.am    1  LIG1       -0.1512
     11 C           1.8830    2.1170    0.0000 C.2     1  LIG1        0.2918
     12 O           2.8880    2.1170    0.0000 O.2     1  LIG1       -0.2689
     13 C           1.3830    1.2330    0.0000 C.3     1  LIG1        0.2916
     14 O           1.8750    0.3750    0.0000 O.3     1  LIG1       -0.4656
     15 C           1.3710   -0.4960    0.0000 C.ar    1  LIG1        0.1393
     16 C           1.8460   -1.3630    0.0000 C.ar    1  LIG1        0.0371
     17 C           1.3380   -2.2080    0.0000 C.ar    1  LIG1        0.0096
     18 C           0.3580   -2.2330    0.0000 C.ar    1  LIG1        0.0758
     19 C          -0.1170   -3.1130    0.0000 C.2     1  LIG1        0.3413
     20 O           0.4250   -3.9670    0.0000 O.2     1  LIG1       -0.2449
     21 O          -1.0920   -3.0790    0.0000 O.3     1  LIG1       -0.4413
     22 C          -1.6080   -3.9250    0.0000 C.3     1  LIG1        0.2560
     23 C          -0.1540   -1.3710    0.0000 C.ar    1  LIG1        0.0096
     24 C           0.3580   -0.4960    0.0000 C.ar    1  LIG1        0.0371
@<TRIPOS>BOND
     1     1     2   ar
     2     1     5   ar
     3     1    10    1
     4     2     3   ar
     5     3     4   ar
     6     3     9    1
     7     4     5   ar
     8     4     6    1
     9     6     7    1
    10     7     8    1
    11     8     9    1
    12    10    11   am
    13    11    12    2
    14    11    13    1
    15    13    14    1
    16    14    15    1
    17    15    16   ar
    18    15    24   ar
    19    16    17   ar
    20    17    18   ar
    21    18    19    1
    22    18    23   ar
    23    19    20    2
    24    19    21    1
    25    21    22    1
    26    23    24   ar
