@<TRIPOS>MOLECULE
28120_ChemDiv_3039-0046
 19 21 0 0 0
SMALL
GASTEIGER
Energy = 0

@<TRIPOS>ATOM
      1 C          -0.0130    1.2960    0.0000 C.ar    1  LIG1        0.1207
      2 N           0.4670    2.1710    0.0000 N.ar    1  LIG1       -0.1421
      3 N           1.4790    2.1710    0.0000 N.ar    1  LIG1       -0.0881
      4 C           1.9580    1.2960    0.0000 C.ar    1  LIG1        0.3865
      5 N           1.4790    0.4330    0.0000 N.ar    1  LIG1       -0.1880
      6 C           0.4670    0.4330    0.0000 C.ar    1  LIG1        0.1054
      7 C          -0.0130   -0.4380    0.0000 C.ar    1  LIG1        0.0194
      8 C          -1.0250   -0.4380    0.0000 C.ar    1  LIG1        0.0015
      9 C          -1.5040   -1.3040    0.0000 C.ar    1  LIG1        0.0000
     10 C          -1.0250   -2.1670    0.0000 C.ar    1  LIG1        0.0000
     11 C          -0.0130   -2.1670    0.0000 C.ar    1  LIG1        0.0000
     12 C           0.4670   -1.3040    0.0000 C.ar    1  LIG1        0.0015
     13 O           2.9920    1.2960    0.0000 O.3     1  LIG1       -0.2410
     14 C          -1.0250    1.2960    0.0000 C.ar    1  LIG1        0.0209
     15 C          -1.5040    0.4330    0.0000 C.ar    1  LIG1        0.0016
     16 C          -2.5170    0.4330    0.0000 C.ar    1  LIG1        0.0000
     17 C          -2.9960    1.2960    0.0000 C.ar    1  LIG1        0.0000
     18 C          -2.5170    2.1710    0.0000 C.ar    1  LIG1        0.0000
     19 C          -1.5040    2.1710    0.0000 C.ar    1  LIG1        0.0016
@<TRIPOS>BOND
     1     1     2   ar
     2     1     6   ar
     3     1    14    1
     4     2     3   ar
     5     3     4   ar
     6     4     5   ar
     7     4    13    1
     8     5     6   ar
     9     6     7    1
    10     7     8   ar
    11     7    12   ar
    12     8     9   ar
    13     9    10   ar
    14    10    11   ar
    15    11    12   ar
    16    14    15   ar
    17    14    19   ar
    18    15    16   ar
    19    16    17   ar
    20    17    18   ar
    21    18    19   ar
