@<TRIPOS>MOLECULE
28128_ChemDiv_4206-0010
 20 22 0 0 0
SMALL
GASTEIGER
Energy = 0

@<TRIPOS>ATOM
      1 C          -0.4290    0.4170    0.0000 C.ar    1  LIG1        0.1205
      2 N           0.4250    0.9250    0.0000 N.ar    1  LIG1       -0.1445
      3 N           1.2790    0.4170    0.0000 N.ar    1  LIG1       -0.1218
      4 C           1.2790   -0.5830    0.0000 C.ar    1  LIG1        0.2105
      5 N           0.4250   -1.0960    0.0000 N.ar    1  LIG1       -0.2183
      6 C          -0.4290   -0.5830    0.0000 C.ar    1  LIG1        0.1028
      7 C          -1.3830   -0.8540    0.0000 C.ar    1  LIG1        0.0193
      8 C          -2.3580   -0.6080    0.0000 C.ar    1  LIG1        0.0015
      9 C          -3.0460   -1.3170    0.0000 C.ar    1  LIG1        0.0000
     10 C          -2.7750   -2.3000    0.0000 C.ar    1  LIG1        0.0000
     11 C          -1.8210   -2.5420    0.0000 C.ar    1  LIG1        0.0000
     12 C          -1.1130   -1.8290    0.0000 C.ar    1  LIG1        0.0015
     13 S           2.1670   -1.1250    0.0000 S.3     1  LIG1       -0.0731
     14 C           3.0420   -0.6330    0.0000 C.3     1  LIG1        0.0773
     15 C          -1.1330    1.1290    0.0000 C.ar    1  LIG1        0.0209
     16 C          -1.2330    2.1330    0.0000 C.ar    1  LIG1        0.0016
     17 C          -2.1420    2.5460    0.0000 C.ar    1  LIG1        0.0000
     18 C          -2.9250    1.9580    0.0000 C.ar    1  LIG1        0.0000
     19 C          -2.8250    0.9580    0.0000 C.ar    1  LIG1        0.0000
     20 C          -1.9170    0.5460    0.0000 C.ar    1  LIG1        0.0016
@<TRIPOS>BOND
     1     1     2   ar
     2     1     6   ar
     3     1    15    1
     4     2     3   ar
     5     3     4   ar
     6     4     5   ar
     7     4    13    1
     8     5     6   ar
     9     6     7    1
    10     7     8   ar
    11     7    12   ar
    12     8     9   ar
    13     9    10   ar
    14    10    11   ar
    15    11    12   ar
    16    13    14    1
    17    15    16   ar
    18    15    20   ar
    19    16    17   ar
    20    17    18   ar
    21    18    19   ar
    22    19    20   ar
