@<TRIPOS>MOLECULE
28125_ChemDiv_4356-0332
 20 22 0 0 0
SMALL
GASTEIGER
Energy = 0

@<TRIPOS>ATOM
      1 C           0.0330    0.0670    0.0000 C.ar    1  LIG1        0.0515
      2 C           0.5880   -0.7540    0.0000 C.ar    1  LIG1        0.1463
      3 O           0.0330   -1.5500    0.0000 O.2     1  LIG1       -0.4535
      4 C          -0.9210   -1.2630    0.0000 C.ar    1  LIG1        0.1455
      5 C          -0.9210   -0.2540    0.0000 C.ar    1  LIG1        0.0416
      6 C          -1.8000    0.2500    0.0000 C.ar    1  LIG1        0.0401
      7 C          -2.6830   -0.2540    0.0000 C.ar    1  LIG1        0.1389
      8 C          -2.6830   -1.2630    0.0000 C.ar    1  LIG1        0.0400
      9 C          -1.8000   -1.7670    0.0000 C.ar    1  LIG1        0.0406
     10 O          -3.5790    0.2750    0.0000 O.3     1  LIG1       -0.4714
     11 C          -3.5790    1.2880    0.0000 C.3     1  LIG1        0.2525
     12 C           1.5830   -0.7710    0.0000 C.ar    1  LIG1        0.0346
     13 C           2.0750   -1.6330    0.0000 C.ar    1  LIG1        0.0030
     14 C           3.0580   -1.6500    0.0000 C.ar    1  LIG1        0.0001
     15 C           3.5750   -0.7880    0.0000 C.ar    1  LIG1        0.0000
     16 C           3.0710    0.0500    0.0000 C.ar    1  LIG1        0.0001
     17 C           2.0920    0.0670    0.0000 C.ar    1  LIG1        0.0030
     18 C           0.3500    1.0210    0.0000 C.2     1  LIG1        0.0759
     19 O           1.3330    1.2040    0.0000 O.co2   1  LIG1       -0.5445
     20 O          -0.3130    1.7710    0.0000 O.co2   1  LIG1       -0.5445
@<TRIPOS>BOND
     1     1     2   ar
     2     1     5   ar
     3     1    18    1
     4     2     3   ar
     5     2    12    1
     6     3     4   ar
     7     4     5   ar
     8     4     9   ar
     9     5     6   ar
    10     6     7   ar
    11     7     8   ar
    12     7    10    1
    13     8     9   ar
    14    10    11    1
    15    12    13   ar
    16    12    17   ar
    17    13    14   ar
    18    14    15   ar
    19    15    16   ar
    20    16    17   ar
    21    18    19   ar
    22    18    20   ar
