@<TRIPOS>MOLECULE
28123_ChemDiv_2516-1974
 21 23 0 0 0
SMALL
GASTEIGER
Energy = 0

@<TRIPOS>ATOM
      1 C          -0.0210    0.0420    0.0000 C.ar    1  LIG1        0.0515
      2 C           0.5750   -0.7630    0.0000 C.ar    1  LIG1        0.1463
      3 O          -0.0210   -1.5670    0.0000 O.2     1  LIG1       -0.4535
      4 C          -0.9580   -1.2580    0.0000 C.ar    1  LIG1        0.1455
      5 C          -0.9580   -0.2710    0.0000 C.ar    1  LIG1        0.0416
      6 C          -1.8250    0.2460    0.0000 C.ar    1  LIG1        0.0401
      7 C          -2.6790   -0.2710    0.0000 C.ar    1  LIG1        0.1388
      8 C          -2.6790   -1.2580    0.0000 C.ar    1  LIG1        0.0400
      9 C          -1.8250   -1.7540    0.0000 C.ar    1  LIG1        0.0406
     10 O          -3.5750    0.2460    0.0000 O.3     1  LIG1       -0.4755
     11 C          -3.5750    1.2460    0.0000 C.3     1  LIG1        0.2055
     12 C          -2.7080    1.7580    0.0000 C.3     1  LIG1        0.0512
     13 C           1.5670   -0.8040    0.0000 C.ar    1  LIG1        0.0346
     14 C           2.0330   -1.6830    0.0000 C.ar    1  LIG1        0.0030
     15 C           3.0540   -1.7250    0.0000 C.ar    1  LIG1        0.0001
     16 C           3.5710   -0.9040    0.0000 C.ar    1  LIG1        0.0000
     17 C           3.1040   -0.0080    0.0000 C.ar    1  LIG1        0.0001
     18 C           2.1040    0.0330    0.0000 C.ar    1  LIG1        0.0030
     19 C           0.2920    1.0040    0.0000 C.2     1  LIG1        0.0759
     20 O          -0.3630    1.7580    0.0000 O.co2   1  LIG1       -0.5445
     21 O           1.2830    1.2170    0.0000 O.co2   1  LIG1       -0.5445
@<TRIPOS>BOND
     1     1     2   ar
     2     1     5   ar
     3     1    19    1
     4     2     3   ar
     5     2    13    1
     6     3     4   ar
     7     4     5   ar
     8     4     9   ar
     9     5     6   ar
    10     6     7   ar
    11     7     8   ar
    12     7    10    1
    13     8     9   ar
    14    10    11    1
    15    11    12    1
    16    13    14   ar
    17    13    18   ar
    18    14    15   ar
    19    15    16   ar
    20    16    17   ar
    21    17    18   ar
    22    19    20   ar
    23    19    21   ar
