@<TRIPOS>MOLECULE
28122_ChemDiv_3448-7259
 33 36 0 0 0
SMALL
GASTEIGER
Energy = 0

@<TRIPOS>ATOM
      1 S           5.1960   -2.0750    0.0000 S.O2    1  LIG1        0.0935
      2 C           4.3250   -1.5880    0.0000 C.ar    1  LIG1        0.1251
      3 C           4.3250   -0.5880    0.0000 C.ar    1  LIG1        0.0213
      4 C           3.4540   -0.0580    0.0000 C.ar    1  LIG1        0.0180
      5 C           2.5750   -0.5790    0.0000 C.ar    1  LIG1        0.0735
      6 N           1.7130   -0.0580    0.0000 N.am    1  LIG1       -0.1785
      7 C           0.8420   -0.5540    0.0000 C.2     1  LIG1        0.2570
      8 O           0.8420   -1.5500    0.0000 O.2     1  LIG1       -0.2720
      9 C          -0.0130   -0.0830    0.0000 C.3     1  LIG1        0.1520
     10 S          -0.8540   -0.5790    0.0000 S.3     1  LIG1       -0.0642
     11 C          -1.7250   -0.0830    0.0000 C.ar    1  LIG1        0.2110
     12 N          -2.5790   -0.5790    0.0000 N.ar    1  LIG1       -0.2183
     13 C          -3.4420   -0.0580    0.0000 C.ar    1  LIG1        0.1028
     14 C          -3.4420    0.9250    0.0000 C.ar    1  LIG1        0.1205
     15 N          -2.5790    1.4290    0.0000 N.ar    1  LIG1       -0.1445
     16 N          -1.7250    0.9250    0.0000 N.ar    1  LIG1       -0.1218
     17 C          -4.3000    1.4630    0.0000 C.ar    1  LIG1        0.0209
     18 C          -5.1830    0.9500    0.0000 C.ar    1  LIG1        0.0016
     19 C          -6.0380    1.4380    0.0000 C.ar    1  LIG1        0.0000
     20 C          -6.0290    2.4460    0.0000 C.ar    1  LIG1        0.0000
     21 C          -5.1630    2.9420    0.0000 C.ar    1  LIG1        0.0000
     22 C          -4.3000    2.4460    0.0000 C.ar    1  LIG1        0.0016
     23 C          -4.3000   -0.5420    0.0000 C.ar    1  LIG1        0.0193
     24 C          -5.1830   -0.0290    0.0000 C.ar    1  LIG1        0.0015
     25 C          -6.0580   -0.5170    0.0000 C.ar    1  LIG1        0.0000
     26 C          -6.0580   -1.5040    0.0000 C.ar    1  LIG1        0.0000
     27 C          -5.1830   -2.0210    0.0000 C.ar    1  LIG1        0.0000
     28 C          -4.3000   -1.5250    0.0000 C.ar    1  LIG1        0.0015
     29 C           2.5750   -1.5500    0.0000 C.ar    1  LIG1        0.0180
     30 C           3.4710   -2.0750    0.0000 C.ar    1  LIG1        0.0213
     31 O           5.6920   -1.2210    0.0000 O.2     1  LIG1       -0.1503
     32 O           6.0580   -2.5960    0.0000 O.2     1  LIG1       -0.1503
     33 N           4.6830   -2.9380    0.0000 N.3     1  LIG1        0.0392
@<TRIPOS>BOND
     1     1     2    1
     2     1    31    2
     3     1    32    2
     4     1    33    1
     5     2     3   ar
     6     2    30   ar
     7     3     4   ar
     8     4     5   ar
     9     5     6    1
    10     5    29   ar
    11     6     7   am
    12     7     8    2
    13     7     9    1
    14     9    10    1
    15    10    11    1
    16    11    12   ar
    17    11    16   ar
    18    12    13   ar
    19    13    14   ar
    20    13    23    1
    21    14    15   ar
    22    14    17    1
    23    15    16   ar
    24    17    18   ar
    25    17    22   ar
    26    18    19   ar
    27    19    20   ar
    28    20    21   ar
    29    21    22   ar
    30    23    24   ar
    31    23    28   ar
    32    24    25   ar
    33    25    26   ar
    34    26    27   ar
    35    27    28   ar
    36    29    30   ar
