@<TRIPOS>MOLECULE
28124_ChemDiv_3525-0012
 27 29 0 0 0
SMALL
GASTEIGER
Energy = 0

@<TRIPOS>ATOM
      1 C          -1.3040   -0.9880    0.0000 C.ar    1  LIG1        0.1205
      2 N          -0.4420   -1.5080    0.0000 N.ar    1  LIG1       -0.1445
      3 N           0.4210   -0.9880    0.0000 N.ar    1  LIG1       -0.1218
      4 C           0.4210   -0.0080    0.0000 C.ar    1  LIG1        0.2110
      5 N          -0.4420    0.5080    0.0000 N.ar    1  LIG1       -0.2183
      6 C          -1.3040   -0.0080    0.0000 C.ar    1  LIG1        0.1028
      7 C          -2.1670    0.5080    0.0000 C.ar    1  LIG1        0.0193
      8 C          -2.1670    1.4830    0.0000 C.ar    1  LIG1        0.0015
      9 C          -3.0330    2.0040    0.0000 C.ar    1  LIG1        0.0000
     10 C          -3.9000    1.4830    0.0000 C.ar    1  LIG1        0.0000
     11 C          -3.9000    0.5080    0.0000 C.ar    1  LIG1        0.0000
     12 C          -3.0330   -0.0080    0.0000 C.ar    1  LIG1        0.0015
     13 S           1.3000    0.5080    0.0000 S.3     1  LIG1       -0.0642
     14 C           1.3000    1.5130    0.0000 C.3     1  LIG1        0.1501
     15 C           2.1670    2.0040    0.0000 C.2     1  LIG1        0.2371
     16 N           3.0290    1.5130    0.0000 N.am    1  LIG1       -0.2788
     17 C           3.0290    0.5080    0.0000 C.3     1  LIG1        0.0935
     18 C           3.8960    0.0210    0.0000 C.3     1  LIG1        0.0233
     19 C           3.8960    2.0040    0.0000 C.3     1  LIG1        0.0935
     20 C           3.8960    3.0080    0.0000 C.3     1  LIG1        0.0233
     21 O           2.1670    3.0080    0.0000 O.2     1  LIG1       -0.2739
     22 C          -2.1670   -1.5080    0.0000 C.ar    1  LIG1        0.0209
     23 C          -2.1670   -2.4880    0.0000 C.ar    1  LIG1        0.0016
     24 C          -3.0330   -3.0040    0.0000 C.ar    1  LIG1        0.0000
     25 C          -3.9000   -2.4880    0.0000 C.ar    1  LIG1        0.0000
     26 C          -3.9000   -1.5080    0.0000 C.ar    1  LIG1        0.0000
     27 C          -3.0330   -0.9880    0.0000 C.ar    1  LIG1        0.0016
@<TRIPOS>BOND
     1     1     2   ar
     2     1     6   ar
     3     1    22    1
     4     2     3   ar
     5     3     4   ar
     6     4     5   ar
     7     4    13    1
     8     5     6   ar
     9     6     7    1
    10     7     8   ar
    11     7    12   ar
    12     8     9   ar
    13     9    10   ar
    14    10    11   ar
    15    11    12   ar
    16    13    14    1
    17    14    15    1
    18    15    16   am
    19    15    21    2
    20    16    17    1
    21    16    19    1
    22    17    18    1
    23    19    20    1
    24    22    23   ar
    25    22    27   ar
    26    23    24   ar
    27    24    25   ar
    28    25    26   ar
    29    26    27   ar
