@<TRIPOS>MOLECULE
28148_ChemDiv_4687-0028
 15 16 0 0 0
SMALL
GASTEIGER
Energy = 0

@<TRIPOS>ATOM
      1 N           1.3000   -0.2420    0.0000 N.ar    1  LIG1       -0.2182
      2 C           2.1580    0.2630    0.0000 C.ar    1  LIG1        0.2105
      3 N           2.1580    1.2670    0.0000 N.ar    1  LIG1       -0.1218
      4 N           1.3000    1.7670    0.0000 N.ar    1  LIG1       -0.1429
      5 C           0.4080    1.2540    0.0000 C.ar    1  LIG1        0.1413
      6 C           0.4080    0.2460    0.0000 C.ar    1  LIG1        0.1044
      7 C          -0.4460   -0.2670    0.0000 C.ar    1  LIG1        0.0193
      8 C          -0.4330   -1.2630    0.0000 C.ar    1  LIG1        0.0021
      9 C          -1.2880   -1.7630    0.0000 C.ar    1  LIG1        0.0067
     10 C          -2.1630   -1.2630    0.0000 C.ar    1  LIG1        0.0346
     11 C          -2.1750   -0.2670    0.0000 C.ar    1  LIG1        0.0067
     12 C          -1.3000    0.2290    0.0000 C.ar    1  LIG1        0.0021
     13 BR         -3.0170   -1.7630    0.0000 Br      1  LIG1       -0.0490
     14 S           3.0130   -0.2540    0.0000 S.3     1  LIG1       -0.0731
     15 C           3.0000   -1.2420    0.0000 C.3     1  LIG1        0.0773
@<TRIPOS>BOND
     1     1     2   ar
     2     1     6   ar
     3     2     3   ar
     4     2    14    1
     5     3     4   ar
     6     4     5   ar
     7     5     6   ar
     8     6     7    1
     9     7     8   ar
    10     7    12   ar
    11     8     9   ar
    12     9    10   ar
    13    10    11   ar
    14    10    13    1
    15    11    12   ar
    16    14    15    1
