@<TRIPOS>MOLECULE
28146_ChemDiv_4486-0160
 28 31 0 0 0
SMALL
GASTEIGER
Energy = 0

@<TRIPOS>ATOM
      1 C          -1.6380   -1.9000    0.0000 C.ar    1  LIG1        0.1205
      2 N          -0.7830   -2.4040    0.0000 N.ar    1  LIG1       -0.1445
      3 N           0.0920   -1.9000    0.0000 N.ar    1  LIG1       -0.1218
      4 C           0.0920   -0.9040    0.0000 C.ar    1  LIG1        0.2110
      5 N          -0.7830   -0.4040    0.0000 N.ar    1  LIG1       -0.2183
      6 C          -1.6380   -0.9040    0.0000 C.ar    1  LIG1        0.1028
      7 C          -2.5130   -0.4040    0.0000 C.ar    1  LIG1        0.0193
      8 C          -2.5330    0.5960    0.0000 C.ar    1  LIG1        0.0015
      9 C          -3.3880    1.0960    0.0000 C.ar    1  LIG1        0.0000
     10 C          -4.2630    0.5960    0.0000 C.ar    1  LIG1        0.0000
     11 C          -4.2630   -0.4040    0.0000 C.ar    1  LIG1        0.0000
     12 C          -3.3880   -0.9040    0.0000 C.ar    1  LIG1        0.0015
     13 S           0.9880   -0.4040    0.0000 S.3     1  LIG1       -0.0642
     14 C           1.0080    0.5960    0.0000 C.3     1  LIG1        0.1521
     15 C           1.8630    1.0960    0.0000 C.2     1  LIG1        0.2587
     16 N           1.8630    2.0920    0.0000 N.am    1  LIG1       -0.1535
     17 C           2.7380    2.5960    0.0000 C.ar    1  LIG1        0.1859
     18 N           3.6750    2.3130    0.0000 N.ar    1  LIG1       -0.2209
     19 C           4.2580    3.1250    0.0000 C.ar    1  LIG1        0.1079
     20 C           3.6750    3.9080    0.0000 C.ar    1  LIG1        0.0588
     21 S           2.7380    3.5960    0.0000 S.2     1  LIG1       -0.0491
     22 O           2.7380    0.5960    0.0000 O.2     1  LIG1       -0.2720
     23 C          -2.5130   -2.4040    0.0000 C.ar    1  LIG1        0.0209
     24 C          -2.5130   -3.4040    0.0000 C.ar    1  LIG1        0.0016
     25 C          -3.3670   -3.9040    0.0000 C.ar    1  LIG1        0.0000
     26 C          -4.2420   -3.4040    0.0000 C.ar    1  LIG1        0.0000
     27 C          -4.2420   -2.4040    0.0000 C.ar    1  LIG1        0.0000
     28 C          -3.3670   -1.9000    0.0000 C.ar    1  LIG1        0.0016
@<TRIPOS>BOND
     1     1     2   ar
     2     1     6   ar
     3     1    23    1
     4     2     3   ar
     5     3     4   ar
     6     4     5   ar
     7     4    13    1
     8     5     6   ar
     9     6     7    1
    10     7     8   ar
    11     7    12   ar
    12     8     9   ar
    13     9    10   ar
    14    10    11   ar
    15    11    12   ar
    16    13    14    1
    17    14    15    1
    18    15    16   am
    19    15    22    2
    20    16    17    1
    21    17    18   ar
    22    17    21   ar
    23    18    19   ar
    24    19    20   ar
    25    20    21   ar
    26    23    24   ar
    27    23    28   ar
    28    24    25   ar
    29    25    26   ar
    30    26    27   ar
    31    27    28   ar
