@<TRIPOS>MOLECULE
28158_ChemDiv_4981-0539
 38 42 0 0 0
SMALL
GASTEIGER
Energy = 0

@<TRIPOS>ATOM
      1 S           4.7830   -0.9830    0.0000 S.O2    1  LIG1       -0.0565
      2 N           5.6420   -1.5000    0.0000 N.pl3   1  LIG1       -0.5152
      3 C           5.6420   -2.4830    0.0000 C.ar    1  LIG1        0.0047
      4 N           6.5130   -3.0000    0.0000 N.ar    1  LIG1       -0.2605
      5 C           6.3080   -3.9580    0.0000 C.ar    1  LIG1        0.1042
      6 C           5.3250   -4.0630    0.0000 C.ar    1  LIG1        0.0556
      7 S           4.9250   -3.1710    0.0000 S.2     1  LIG1       -0.0898
      8 C           3.8920   -0.4710    0.0000 C.ar    1  LIG1        0.0894
      9 C           3.8920    0.5580    0.0000 C.ar    1  LIG1        0.0182
     10 C           3.0170    1.0290    0.0000 C.ar    1  LIG1        0.0179
     11 C           2.1540    0.5580    0.0000 C.ar    1  LIG1        0.0735
     12 N           1.2960    1.0290    0.0000 N.am    1  LIG1       -0.1785
     13 C           0.4290    0.5580    0.0000 C.2     1  LIG1        0.2570
     14 O           0.4290   -0.4710    0.0000 O.2     1  LIG1       -0.2720
     15 C          -0.4290    1.0290    0.0000 C.3     1  LIG1        0.1520
     16 S          -1.3000    0.5580    0.0000 S.3     1  LIG1       -0.0642
     17 C          -2.1790    1.0670    0.0000 C.ar    1  LIG1        0.2110
     18 N          -3.0500    0.5580    0.0000 N.ar    1  LIG1       -0.2183
     19 C          -3.9250    1.0670    0.0000 C.ar    1  LIG1        0.1028
     20 C          -3.9250    2.0630    0.0000 C.ar    1  LIG1        0.1205
     21 N          -3.0500    2.5670    0.0000 N.ar    1  LIG1       -0.1445
     22 N          -2.1790    2.0630    0.0000 N.ar    1  LIG1       -0.1218
     23 C          -4.7880    2.5670    0.0000 C.ar    1  LIG1        0.0209
     24 C          -5.6460    2.0630    0.0000 C.ar    1  LIG1        0.0016
     25 C          -6.5130    2.5670    0.0000 C.ar    1  LIG1        0.0000
     26 C          -6.5130    3.5630    0.0000 C.ar    1  LIG1        0.0000
     27 C          -5.6460    4.0630    0.0000 C.ar    1  LIG1        0.0000
     28 C          -4.7880    3.5630    0.0000 C.ar    1  LIG1        0.0016
     29 C          -4.7880    0.5580    0.0000 C.ar    1  LIG1        0.0193
     30 C          -5.6460    1.0670    0.0000 C.ar    1  LIG1        0.0015
     31 C          -6.5130    0.5580    0.0000 C.ar    1  LIG1        0.0000
     32 C          -6.5130   -0.4420    0.0000 C.ar    1  LIG1        0.0000
     33 C          -5.6460   -0.9420    0.0000 C.ar    1  LIG1        0.0000
     34 C          -4.7880   -0.4420    0.0000 C.ar    1  LIG1        0.0015
     35 C           2.1540   -0.4710    0.0000 C.ar    1  LIG1        0.0179
     36 C           3.0170   -0.9420    0.0000 C.ar    1  LIG1        0.0182
     37 O           4.2630   -1.8330    0.0000 O.2     1  LIG1       -0.1841
     38 O           5.2830   -0.0960    0.0000 O.2     1  LIG1       -0.1841
@<TRIPOS>BOND
     1     1     2    1
     2     1     8    1
     3     1    37    2
     4     1    38    2
     5     2     3    1
     6     3     4   ar
     7     3     7   ar
     8     4     5   ar
     9     5     6   ar
    10     6     7   ar
    11     8     9   ar
    12     8    36   ar
    13     9    10   ar
    14    10    11   ar
    15    11    12    1
    16    11    35   ar
    17    12    13   am
    18    13    14    2
    19    13    15    1
    20    15    16    1
    21    16    17    1
    22    17    18   ar
    23    17    22   ar
    24    18    19   ar
    25    19    20   ar
    26    19    29    1
    27    20    21   ar
    28    20    23    1
    29    21    22   ar
    30    23    24   ar
    31    23    28   ar
    32    24    25   ar
    33    25    26   ar
    34    26    27   ar
    35    27    28   ar
    36    29    30   ar
    37    29    34   ar
    38    30    31   ar
    39    31    32   ar
    40    32    33   ar
    41    33    34   ar
    42    35    36   ar
