@<TRIPOS>MOLECULE
28152_ChemDiv_4839-0003
 36 39 0 0 0
SMALL
GASTEIGER
Energy = 0

@<TRIPOS>ATOM
      1 C          -2.9670    0.5040    0.0000 C.ar    1  LIG1        0.1205
      2 N          -2.1330    0.9920    0.0000 N.ar    1  LIG1       -0.1445
      3 N          -1.2500    0.5040    0.0000 N.ar    1  LIG1       -0.1218
      4 C          -1.2500   -0.5330    0.0000 C.ar    1  LIG1        0.2110
      5 N          -2.1330   -1.0170    0.0000 N.ar    1  LIG1       -0.2183
      6 C          -2.9670   -0.5330    0.0000 C.ar    1  LIG1        0.1028
      7 C          -3.8460   -1.0170    0.0000 C.ar    1  LIG1        0.0195
      8 C          -4.7290   -0.5330    0.0000 C.ar    1  LIG1        0.0047
      9 C          -5.5920   -1.0170    0.0000 C.ar    1  LIG1        0.0369
     10 C          -5.5920   -2.0170    0.0000 C.ar    1  LIG1        0.1387
     11 C          -4.7290   -2.5080    0.0000 C.ar    1  LIG1        0.0369
     12 C          -3.8790   -2.0170    0.0000 C.ar    1  LIG1        0.0047
     13 O          -6.5080   -2.4710    0.0000 O.3     1  LIG1       -0.4714
     14 C          -6.5540   -3.4920    0.0000 C.3     1  LIG1        0.2525
     15 S          -0.3790   -1.0670    0.0000 S.3     1  LIG1       -0.0642
     16 C           0.5330   -0.5670    0.0000 C.3     1  LIG1        0.1520
     17 C           1.3670   -1.1040    0.0000 C.2     1  LIG1        0.2570
     18 N           2.2880   -0.6380    0.0000 N.am    1  LIG1       -0.1785
     19 C           3.0790   -1.1750    0.0000 C.ar    1  LIG1        0.0734
     20 C           3.9630   -0.7250    0.0000 C.ar    1  LIG1        0.0167
     21 C           4.7960   -1.2540    0.0000 C.ar    1  LIG1        0.0042
     22 C           4.7630   -2.2460    0.0000 C.ar    1  LIG1        0.0348
     23 C           5.6290   -2.7790    0.0000 C.2     1  LIG1        0.1735
     24 O           5.6040   -3.8040    0.0000 O.2     1  LIG1       -0.2913
     25 C           6.5540   -2.3210    0.0000 C.3     1  LIG1        0.0773
     26 C           3.8920   -2.7000    0.0000 C.ar    1  LIG1        0.0042
     27 C           3.0500   -2.1580    0.0000 C.ar    1  LIG1        0.0167
     28 O           1.3330   -2.0880    0.0000 O.2     1  LIG1       -0.2720
     29 C          -3.6880    1.1790    0.0000 C.ar    1  LIG1        0.0211
     30 C          -3.6170    2.1710    0.0000 C.ar    1  LIG1        0.0047
     31 C          -4.4500    2.7210    0.0000 C.ar    1  LIG1        0.0370
     32 C          -5.3290    2.2500    0.0000 C.ar    1  LIG1        0.1387
     33 C          -5.3710    1.2670    0.0000 C.ar    1  LIG1        0.0370
     34 C          -4.5710    0.7290    0.0000 C.ar    1  LIG1        0.0047
     35 O          -6.1580    2.8290    0.0000 O.3     1  LIG1       -0.4714
     36 C          -6.0880    3.8080    0.0000 C.3     1  LIG1        0.2525
@<TRIPOS>BOND
     1     1     2   ar
     2     1     6   ar
     3     1    29    1
     4     2     3   ar
     5     3     4   ar
     6     4     5   ar
     7     4    15    1
     8     5     6   ar
     9     6     7    1
    10     7     8   ar
    11     7    12   ar
    12     8     9   ar
    13     9    10   ar
    14    10    11   ar
    15    10    13    1
    16    11    12   ar
    17    13    14    1
    18    15    16    1
    19    16    17    1
    20    17    18   am
    21    17    28    2
    22    18    19    1
    23    19    20   ar
    24    19    27   ar
    25    20    21   ar
    26    21    22   ar
    27    22    23    1
    28    22    26   ar
    29    23    24    2
    30    23    25    1
    31    26    27   ar
    32    29    30   ar
    33    29    34   ar
    34    30    31   ar
    35    31    32   ar
    36    32    33   ar
    37    32    35    1
    38    33    34   ar
    39    35    36    1
