@<TRIPOS>MOLECULE
28154_ChemDiv_4839-0006
 36 39 0 0 0
SMALL
GASTEIGER
Energy = 0

@<TRIPOS>ATOM
      1 C          -3.0710    0.3290    0.0000 C.ar    1  LIG1        0.1205
      2 N          -2.1960    0.7880    0.0000 N.ar    1  LIG1       -0.1445
      3 N          -1.3670    0.2880    0.0000 N.ar    1  LIG1       -0.1218
      4 C          -1.3670   -0.6710    0.0000 C.ar    1  LIG1        0.2110
      5 N          -2.1960   -1.1880    0.0000 N.ar    1  LIG1       -0.2183
      6 C          -3.0710   -0.7040    0.0000 C.ar    1  LIG1        0.1028
      7 C          -3.9330   -1.2210    0.0000 C.ar    1  LIG1        0.0195
      8 C          -4.8170   -0.7040    0.0000 C.ar    1  LIG1        0.0047
      9 C          -5.6420   -1.2210    0.0000 C.ar    1  LIG1        0.0369
     10 C          -5.6420   -2.2080    0.0000 C.ar    1  LIG1        0.1387
     11 C          -4.7670   -2.7290    0.0000 C.ar    1  LIG1        0.0369
     12 C          -3.9000   -2.2080    0.0000 C.ar    1  LIG1        0.0047
     13 O          -6.5420   -2.7290    0.0000 O.3     1  LIG1       -0.4714
     14 C          -6.5420   -3.7170    0.0000 C.3     1  LIG1        0.2525
     15 S          -0.4670   -1.1880    0.0000 S.3     1  LIG1       -0.0642
     16 C           0.4460   -0.6290    0.0000 C.3     1  LIG1        0.1520
     17 C           1.3130   -1.1460    0.0000 C.2     1  LIG1        0.2570
     18 N           2.1920   -0.6290    0.0000 N.am    1  LIG1       -0.1785
     19 C           3.0580   -1.0960    0.0000 C.ar    1  LIG1        0.0734
     20 C           3.9290   -0.6290    0.0000 C.ar    1  LIG1        0.0166
     21 C           4.7960   -1.1460    0.0000 C.ar    1  LIG1        0.0025
     22 C           4.7960   -2.0880    0.0000 C.ar    1  LIG1        0.0141
     23 C           5.7080   -2.5290    0.0000 C.2     1  LIG1        0.0729
     24 O           6.5420   -1.9790    0.0000 O.co2   1  LIG1       -0.5446
     25 O           5.7830   -3.5580    0.0000 O.co2   1  LIG1       -0.5446
     26 C           3.9710   -2.6040    0.0000 C.ar    1  LIG1        0.0025
     27 C           3.0920   -2.0880    0.0000 C.ar    1  LIG1        0.0166
     28 O           1.3630   -2.1330    0.0000 O.2     1  LIG1       -0.2720
     29 C          -3.7790    1.0290    0.0000 C.ar    1  LIG1        0.0211
     30 C          -3.7380    1.9920    0.0000 C.ar    1  LIG1        0.0047
     31 C          -4.5710    2.5330    0.0000 C.ar    1  LIG1        0.0370
     32 C          -5.4420    2.1080    0.0000 C.ar    1  LIG1        0.1387
     33 C          -5.4830    1.1080    0.0000 C.ar    1  LIG1        0.0370
     34 C          -4.6920    0.5580    0.0000 C.ar    1  LIG1        0.0047
     35 O          -6.2710    2.7330    0.0000 O.3     1  LIG1       -0.4714
     36 C          -6.1460    3.7210    0.0000 C.3     1  LIG1        0.2525
@<TRIPOS>BOND
     1     1     2   ar
     2     1     6   ar
     3     1    29    1
     4     2     3   ar
     5     3     4   ar
     6     4     5   ar
     7     4    15    1
     8     5     6   ar
     9     6     7    1
    10     7     8   ar
    11     7    12   ar
    12     8     9   ar
    13     9    10   ar
    14    10    11   ar
    15    10    13    1
    16    11    12   ar
    17    13    14    1
    18    15    16    1
    19    16    17    1
    20    17    18   am
    21    17    28    2
    22    18    19    1
    23    19    20   ar
    24    19    27   ar
    25    20    21   ar
    26    21    22   ar
    27    22    23    1
    28    22    26   ar
    29    23    24   ar
    30    23    25   ar
    31    26    27   ar
    32    29    30   ar
    33    29    34   ar
    34    30    31   ar
    35    31    32   ar
    36    32    33   ar
    37    32    35    1
    38    33    34   ar
    39    35    36    1
