@<TRIPOS>MOLECULE
28156_ChemDiv_4839-0014
 37 40 0 0 0
SMALL
GASTEIGER
Energy = 0

@<TRIPOS>ATOM
      1 S           5.8250   -2.3170    0.0000 S.O2    1  LIG1        0.0935
      2 C           4.9960   -1.7920    0.0000 C.ar    1  LIG1        0.1251
      3 C           5.0290   -0.7630    0.0000 C.ar    1  LIG1        0.0213
      4 C           4.1960   -0.2460    0.0000 C.ar    1  LIG1        0.0180
      5 C           3.3080   -0.7210    0.0000 C.ar    1  LIG1        0.0735
      6 N           2.4750   -0.1960    0.0000 N.am    1  LIG1       -0.1785
      7 C           1.6040   -0.6880    0.0000 C.2     1  LIG1        0.2570
      8 O           1.5630   -1.7210    0.0000 O.2     1  LIG1       -0.2720
      9 C           0.7630   -0.1630    0.0000 C.3     1  LIG1        0.1520
     10 S          -0.1170   -0.6460    0.0000 S.3     1  LIG1       -0.0642
     11 C          -0.9920   -0.1210    0.0000 C.ar    1  LIG1        0.2110
     12 N          -1.8290   -0.5960    0.0000 N.ar    1  LIG1       -0.2183
     13 C          -2.7130   -0.1210    0.0000 C.ar    1  LIG1        0.1028
     14 C          -2.7130    0.8750    0.0000 C.ar    1  LIG1        0.1205
     15 N          -1.8290    1.4000    0.0000 N.ar    1  LIG1       -0.1445
     16 N          -0.9920    0.8750    0.0000 N.ar    1  LIG1       -0.1218
     17 C          -3.5540    1.4000    0.0000 C.ar    1  LIG1        0.0211
     18 C          -3.7500    2.3040    0.0000 C.ar    1  LIG1        0.0047
     19 C          -4.7080    2.6710    0.0000 C.ar    1  LIG1        0.0370
     20 C          -5.4250    1.9460    0.0000 C.ar    1  LIG1        0.1387
     21 C          -5.1830    1.0330    0.0000 C.ar    1  LIG1        0.0370
     22 C          -4.2750    0.7080    0.0000 C.ar    1  LIG1        0.0047
     23 O          -6.4170    2.2380    0.0000 O.3     1  LIG1       -0.4714
     24 C          -6.7000    3.1960    0.0000 C.3     1  LIG1        0.2525
     25 C          -3.5540   -0.5960    0.0000 C.ar    1  LIG1        0.0195
     26 C          -4.4250   -0.1210    0.0000 C.ar    1  LIG1        0.0047
     27 C          -5.2750   -0.5960    0.0000 C.ar    1  LIG1        0.0369
     28 C          -5.2750   -1.5960    0.0000 C.ar    1  LIG1        0.1387
     29 C          -4.4250   -2.1170    0.0000 C.ar    1  LIG1        0.0369
     30 C          -3.5540   -1.5960    0.0000 C.ar    1  LIG1        0.0047
     31 O          -6.1420   -2.1170    0.0000 O.3     1  LIG1       -0.4714
     32 C          -6.1750   -3.1170    0.0000 C.3     1  LIG1        0.2525
     33 C           3.2750   -1.7630    0.0000 C.ar    1  LIG1        0.0180
     34 C           4.1040   -2.2830    0.0000 C.ar    1  LIG1        0.0213
     35 O           5.3040   -3.1920    0.0000 O.2     1  LIG1       -0.1503
     36 O           6.3920   -1.4460    0.0000 O.2     1  LIG1       -0.1503
     37 N           6.7000   -2.8830    0.0000 N.3     1  LIG1        0.0392
@<TRIPOS>BOND
     1     1     2    1
     2     1    35    2
     3     1    36    2
     4     1    37    1
     5     2     3   ar
     6     2    34   ar
     7     3     4   ar
     8     4     5   ar
     9     5     6    1
    10     5    33   ar
    11     6     7   am
    12     7     8    2
    13     7     9    1
    14     9    10    1
    15    10    11    1
    16    11    12   ar
    17    11    16   ar
    18    12    13   ar
    19    13    14   ar
    20    13    25    1
    21    14    15   ar
    22    14    17    1
    23    15    16   ar
    24    17    18   ar
    25    17    22   ar
    26    18    19   ar
    27    19    20   ar
    28    20    21   ar
    29    20    23    1
    30    21    22   ar
    31    23    24    1
    32    25    26   ar
    33    25    30   ar
    34    26    27   ar
    35    27    28   ar
    36    28    29   ar
    37    28    31    1
    38    29    30   ar
    39    31    32    1
    40    33    34   ar
