@<TRIPOS>MOLECULE
28160_ChemDiv_5518-1920
 40 44 0 0 0
SMALL
GASTEIGER
Energy = 0

@<TRIPOS>ATOM
      1 N           1.8540    1.4830    0.0000 N.am    1  LIG1       -0.2074
      2 C           1.2250    0.7000    0.0000 C.2     1  LIG1        0.2365
      3 C           0.2920    1.0170    0.0000 C.3     1  LIG1        0.1065
      4 C           0.3250    2.0460    0.0000 C.3     1  LIG1        0.1409
      5 C           1.2790    2.3130    0.0000 C.2     1  LIG1        0.2457
      6 O           1.6290    3.2630    0.0000 O.2     1  LIG1       -0.2732
      7 S          -0.4130    2.7290    0.0000 S.3     1  LIG1       -0.0651
      8 C          -1.3630    2.4630    0.0000 C.ar    1  LIG1        0.2109
      9 N          -1.6080    1.4790    0.0000 N.ar    1  LIG1       -0.2183
     10 C          -2.5750    1.2130    0.0000 C.ar    1  LIG1        0.1028
     11 C          -3.2830    1.9130    0.0000 C.ar    1  LIG1        0.1205
     12 N          -3.0330    2.8790    0.0000 N.ar    1  LIG1       -0.1445
     13 N          -2.0750    3.1460    0.0000 N.ar    1  LIG1       -0.1218
     14 C          -4.2460    1.6460    0.0000 C.ar    1  LIG1        0.0211
     15 C          -4.5000    0.6830    0.0000 C.ar    1  LIG1        0.0047
     16 C          -5.4630    0.4170    0.0000 C.ar    1  LIG1        0.0370
     17 C          -6.1750    1.1130    0.0000 C.ar    1  LIG1        0.1387
     18 C          -5.9290    2.0790    0.0000 C.ar    1  LIG1        0.0370
     19 C          -4.9670    2.3460    0.0000 C.ar    1  LIG1        0.0047
     20 O          -7.1630    0.8330    0.0000 O.3     1  LIG1       -0.4714
     21 C          -7.3960   -0.1420    0.0000 C.3     1  LIG1        0.2525
     22 C          -2.5670    0.2170    0.0000 C.ar    1  LIG1        0.0195
     23 C          -1.7000   -0.2580    0.0000 C.ar    1  LIG1        0.0047
     24 C          -1.6830   -1.2580    0.0000 C.ar    1  LIG1        0.0369
     25 C          -2.5500   -1.7710    0.0000 C.ar    1  LIG1        0.1387
     26 C          -3.4130   -1.2750    0.0000 C.ar    1  LIG1        0.0369
     27 C          -3.4170   -0.2750    0.0000 C.ar    1  LIG1        0.0047
     28 O          -2.5500   -2.7710    0.0000 O.3     1  LIG1       -0.4714
     29 C          -3.4170   -3.2580    0.0000 C.3     1  LIG1        0.2525
     30 O           1.5040   -0.2580    0.0000 O.2     1  LIG1       -0.2741
     31 C           2.8420    1.4170    0.0000 C.ar    1  LIG1        0.0607
     32 C           3.2790    0.5460    0.0000 C.ar    1  LIG1        0.0167
     33 C           4.2790    0.4630    0.0000 C.ar    1  LIG1        0.0179
     34 C           4.8580    1.2790    0.0000 C.ar    1  LIG1        0.0734
     35 N           5.8330    1.2130    0.0000 N.am    1  LIG1       -0.1792
     36 C           6.3920    2.0460    0.0000 C.2     1  LIG1        0.2461
     37 O           7.3960    1.9790    0.0000 O.2     1  LIG1       -0.2730
     38 C           5.9500    2.9460    0.0000 C.3     1  LIG1        0.0968
     39 C           4.3920    2.1960    0.0000 C.ar    1  LIG1        0.0179
     40 C           3.3960    2.2630    0.0000 C.ar    1  LIG1        0.0167
@<TRIPOS>BOND
     1     1     2   am
     2     1     5   am
     3     1    31    1
     4     2     3    1
     5     2    30    2
     6     3     4    1
     7     4     5    1
     8     4     7    1
     9     5     6    2
    10     7     8    1
    11     8     9   ar
    12     8    13   ar
    13     9    10   ar
    14    10    11   ar
    15    10    22    1
    16    11    12   ar
    17    11    14    1
    18    12    13   ar
    19    14    15   ar
    20    14    19   ar
    21    15    16   ar
    22    16    17   ar
    23    17    18   ar
    24    17    20    1
    25    18    19   ar
    26    20    21    1
    27    22    23   ar
    28    22    27   ar
    29    23    24   ar
    30    24    25   ar
    31    25    26   ar
    32    25    28    1
    33    26    27   ar
    34    28    29    1
    35    31    32   ar
    36    31    40   ar
    37    32    33   ar
    38    33    34   ar
    39    34    35    1
    40    34    39   ar
    41    35    36   am
    42    36    37    2
    43    36    38    1
    44    39    40   ar
