@<TRIPOS>MOLECULE
28178_ChemDiv_8004-7928
 22 24 0 0 0
SMALL
GASTEIGER
Energy = 0

@<TRIPOS>ATOM
      1 C           0.8500   -0.5080    0.0000 C.ar    1  LIG1        0.2599
      2 N          -0.0210   -1.0000    0.0000 N.ar    1  LIG1       -0.2181
      3 C          -0.8830   -0.5080    0.0000 C.ar    1  LIG1        0.1025
      4 C          -0.8830    0.5170    0.0000 C.ar    1  LIG1        0.1205
      5 N          -0.0210    1.0080    0.0000 N.ar    1  LIG1       -0.1448
      6 N           0.8500    0.5170    0.0000 N.ar    1  LIG1       -0.1216
      7 C          -1.7460    1.0080    0.0000 C.ar    1  LIG1        0.0209
      8 C          -1.7460    2.0000    0.0000 C.ar    1  LIG1        0.0016
      9 C          -2.6080    2.4960    0.0000 C.ar    1  LIG1        0.0000
     10 C          -3.4790    2.0000    0.0000 C.ar    1  LIG1        0.0000
     11 C          -3.4790    1.0080    0.0000 C.ar    1  LIG1        0.0000
     12 C          -2.6080    0.5170    0.0000 C.ar    1  LIG1        0.0016
     13 C          -1.7460   -1.0000    0.0000 C.ar    1  LIG1        0.0193
     14 C          -1.7460   -1.9960    0.0000 C.ar    1  LIG1        0.0015
     15 C          -2.6080   -2.4920    0.0000 C.ar    1  LIG1        0.0000
     16 C          -3.4790   -1.9960    0.0000 C.ar    1  LIG1        0.0000
     17 C          -3.4790   -1.0000    0.0000 C.ar    1  LIG1        0.0000
     18 C          -2.6080   -0.5080    0.0000 C.ar    1  LIG1        0.0015
     19 C           1.7290   -1.0000    0.0000 C.2     1  LIG1        0.3795
     20 O           1.7170   -2.0170    0.0000 O.2     1  LIG1       -0.2414
     21 O           2.6080   -0.5080    0.0000 O.3     1  LIG1       -0.4392
     22 C           3.4750   -1.0000    0.0000 C.3     1  LIG1        0.2561
@<TRIPOS>BOND
     1     1     2   ar
     2     1     6   ar
     3     1    19    1
     4     2     3   ar
     5     3     4   ar
     6     3    13    1
     7     4     5   ar
     8     4     7    1
     9     5     6   ar
    10     7     8   ar
    11     7    12   ar
    12     8     9   ar
    13     9    10   ar
    14    10    11   ar
    15    11    12   ar
    16    13    14   ar
    17    13    18   ar
    18    14    15   ar
    19    15    16   ar
    20    16    17   ar
    21    17    18   ar
    22    19    20    2
    23    19    21    1
    24    21    22    1
