@<TRIPOS>MOLECULE
28187_ChemDiv_2529-0046
 23 23 0 0 0
SMALL
GASTEIGER
Energy = 0

@<TRIPOS>ATOM
      1 N           0.9960   -1.7250    0.0000 N.ar    1  LIG1       -0.1828
      2 C           0.0000   -1.7250    0.0000 C.ar    1  LIG1        0.2816
      3 C          -0.4830   -0.8540    0.0000 C.ar    1  LIG1        0.0934
      4 C           0.0000    0.0000    0.0000 C.ar    1  LIG1        0.2816
      5 N           1.0130    0.0000    0.0000 N.ar    1  LIG1       -0.1828
      6 C           1.5130   -0.8540    0.0000 C.ar    1  LIG1        0.1958
      7 S           2.5080   -0.8540    0.0000 S.3     1  LIG1       -0.0692
      8 C           3.0210    0.0000    0.0000 C.3     1  LIG1        0.1276
      9 C           4.0170    0.0000    0.0000 C.3     1  LIG1        0.1509
     10 N           4.5170    0.8880    0.0000 N.4     1  LIG1        0.3779
     11 C           4.0170    1.7420    0.0000 C.3     1  LIG1        0.1388
     12 C           4.5170    2.6130    0.0000 C.3     1  LIG1        0.0688
     13 C           5.5250    0.8880    0.0000 C.3     1  LIG1        0.1388
     14 C           6.0080    1.7420    0.0000 C.3     1  LIG1        0.0688
     15 O          -0.5080    0.9000    0.0000 O.2     1  LIG1       -0.2653
     16 C          -1.4920   -0.8540    0.0000 C.3     1  LIG1        0.0362
     17 C          -1.9920    0.0000    0.0000 C.3     1  LIG1        0.0050
     18 C          -3.0130    0.0000    0.0000 C.3     1  LIG1        0.0003
     19 C          -3.5250    0.8500    0.0000 C.3     1  LIG1        0.0000
     20 C          -4.5210    0.8380    0.0000 C.3     1  LIG1        0.0000
     21 C          -5.0170    1.6830    0.0000 C.3     1  LIG1        0.0000
     22 C          -6.0080    1.6830    0.0000 C.3     1  LIG1        0.0000
     23 O          -0.4830   -2.6080    0.0000 O.3     1  LIG1       -0.2653
@<TRIPOS>BOND
     1     1     2   ar
     2     1     6   ar
     3     2     3   ar
     4     2    23    1
     5     3     4   ar
     6     3    16    1
     7     4     5   ar
     8     4    15    2
     9     5     6   ar
    10     6     7    1
    11     7     8    1
    12     8     9    1
    13     9    10    1
    14    10    11    1
    15    10    13    1
    16    11    12    1
    17    13    14    1
    18    16    17    1
    19    17    18    1
    20    18    19    1
    21    19    20    1
    22    20    21    1
    23    21    22    1
