@<TRIPOS>MOLECULE
28188_ChemDiv_G003-0702
 30 32 0 0 0
SMALL
GASTEIGER
Energy = 0

@<TRIPOS>ATOM
      1 C          -0.2500   -2.5920    0.0000 C.ar    1  LIG1        0.1205
      2 N          -1.2580   -2.5920    0.0000 N.ar    1  LIG1       -0.1445
      3 N          -1.7500   -1.7290    0.0000 N.ar    1  LIG1       -0.1218
      4 C          -1.2580   -0.8630    0.0000 C.ar    1  LIG1        0.2110
      5 N          -0.2500   -0.8630    0.0000 N.ar    1  LIG1       -0.2183
      6 C           0.2460   -1.7290    0.0000 C.ar    1  LIG1        0.1028
      7 C           1.2540   -1.7290    0.0000 C.ar    1  LIG1        0.0192
      8 C           1.7540   -2.5920    0.0000 C.ar    1  LIG1        0.0012
      9 C           2.7540   -2.5920    0.0000 C.ar    1  LIG1       -0.0042
     10 C           3.2540   -1.7290    0.0000 C.ar    1  LIG1       -0.0218
     11 C           2.7540   -0.8630    0.0000 C.ar    1  LIG1       -0.0042
     12 C           1.7540   -0.8630    0.0000 C.ar    1  LIG1        0.0012
     13 C           4.2540   -1.7290    0.0000 C.3     1  LIG1        0.0310
     14 S          -1.7500    0.0080    0.0000 S.3     1  LIG1       -0.0642
     15 C          -2.7580    0.0080    0.0000 C.3     1  LIG1        0.1516
     16 C          -3.2500    0.8750    0.0000 C.2     1  LIG1        0.2528
     17 O          -4.2580    0.8750    0.0000 O.2     1  LIG1       -0.2724
     18 N          -2.7580    1.7380    0.0000 N.am    1  LIG1       -0.2046
     19 C          -3.2500    2.6040    0.0000 C.3     1  LIG1        0.1178
     20 C          -2.7580    3.4750    0.0000 C.3     1  LIG1        0.0555
     21 C          -3.2500    4.3290    0.0000 C.3     1  LIG1        0.1441
     22 O          -2.7580    5.1960    0.0000 O.3     1  LIG1       -0.3510
     23 C          -3.2500    6.0580    0.0000 C.3     1  LIG1        0.1741
     24 C           0.2460   -3.4630    0.0000 C.ar    1  LIG1        0.0209
     25 C           1.2540   -3.4630    0.0000 C.ar    1  LIG1        0.0013
     26 C           1.7540   -4.3290    0.0000 C.ar    1  LIG1       -0.0042
     27 C           1.2540   -5.1960    0.0000 C.ar    1  LIG1       -0.0218
     28 C           0.2460   -5.1960    0.0000 C.ar    1  LIG1       -0.0042
     29 C          -0.2500   -4.3290    0.0000 C.ar    1  LIG1        0.0013
     30 C           1.7540   -6.0580    0.0000 C.3     1  LIG1        0.0310
@<TRIPOS>BOND
     1     1     2   ar
     2     1     6   ar
     3     1    24    1
     4     2     3   ar
     5     3     4   ar
     6     4     5   ar
     7     4    14    1
     8     5     6   ar
     9     6     7    1
    10     7     8   ar
    11     7    12   ar
    12     8     9   ar
    13     9    10   ar
    14    10    11   ar
    15    10    13    1
    16    11    12   ar
    17    14    15    1
    18    15    16    1
    19    16    17    2
    20    16    18   am
    21    18    19    1
    22    19    20    1
    23    20    21    1
    24    21    22    1
    25    22    23    1
    26    24    25   ar
    27    24    29   ar
    28    25    26   ar
    29    26    27   ar
    30    27    28   ar
    31    27    30    1
    32    28    29   ar
