@<TRIPOS>MOLECULE
28184_ChemDiv_8018-0324
 14 15 0 0 0
SMALL
GASTEIGER
Energy = 0

@<TRIPOS>ATOM
      1 N          -0.4290    0.5040    0.0000 N.ar    1  LIG1       -0.2182
      2 C          -1.2960    1.0040    0.0000 C.ar    1  LIG1        0.2105
      3 N          -2.1580    0.5040    0.0000 N.ar    1  LIG1       -0.1218
      4 N          -2.1670   -0.5000    0.0000 N.ar    1  LIG1       -0.1429
      5 C          -1.2960   -1.0000    0.0000 C.ar    1  LIG1        0.1413
      6 C          -0.4290   -0.5000    0.0000 C.ar    1  LIG1        0.1044
      7 C           0.4290   -0.9920    0.0000 C.ar    1  LIG1        0.0193
      8 C           1.2920   -0.4920    0.0000 C.ar    1  LIG1        0.0015
      9 C           2.1540   -0.9880    0.0000 C.ar    1  LIG1        0.0000
     10 C           2.1630   -1.9920    0.0000 C.ar    1  LIG1        0.0000
     11 C           1.2920   -2.4920    0.0000 C.ar    1  LIG1        0.0000
     12 C           0.4290   -1.9920    0.0000 C.ar    1  LIG1        0.0015
     13 S          -1.2960    1.9960    0.0000 S.3     1  LIG1       -0.0731
     14 C          -2.1670    2.4960    0.0000 C.3     1  LIG1        0.0773
@<TRIPOS>BOND
     1     1     2   ar
     2     1     6   ar
     3     2     3   ar
     4     2    13    1
     5     3     4   ar
     6     4     5   ar
     7     5     6   ar
     8     6     7    1
     9     7     8   ar
    10     7    12   ar
    11     8     9   ar
    12     9    10   ar
    13    10    11   ar
    14    11    12   ar
    15    13    14    1
