@<TRIPOS>MOLECULE
28189_ChemDiv_3992-1039
 16 16 0 0 0
SMALL
GASTEIGER
Energy = 0

@<TRIPOS>ATOM
      1 N           1.6920   -0.0040    0.0000 N.ar    1  LIG1       -0.1828
      2 C           1.6920   -0.9960    0.0000 C.ar    1  LIG1        0.1925
      3 N           2.5580   -1.5080    0.0000 N.ar    1  LIG1       -0.2254
      4 C           3.4080   -0.9960    0.0000 C.ar    1  LIG1        0.0663
      5 C           3.4080   -0.0040    0.0000 C.ar    1  LIG1        0.0773
      6 C           2.5580    0.5000    0.0000 C.ar    1  LIG1        0.2822
      7 O           2.5580    1.5130    0.0000 O.2     1  LIG1       -0.2651
      8 C           4.3670   -1.3000    0.0000 C.3     1  LIG1        0.0523
      9 S           0.8380   -1.5080    0.0000 S.3     1  LIG1       -0.0756
     10 C          -0.0420   -0.9960    0.0000 C.3     1  LIG1        0.0652
     11 C          -0.0420   -0.0040    0.0000 C.3     1  LIG1        0.0121
     12 C          -0.9210    0.5000    0.0000 C.3     1  LIG1        0.0009
     13 C          -1.7710   -0.0040    0.0000 C.3     1  LIG1        0.0000
     14 C          -2.6290    0.5000    0.0000 C.3     1  LIG1        0.0000
     15 C          -3.5040   -0.0040    0.0000 C.3     1  LIG1        0.0000
     16 C          -4.3710    0.5080    0.0000 C.3     1  LIG1        0.0000
@<TRIPOS>BOND
     1     1     2   ar
     2     1     6   ar
     3     2     3   ar
     4     2     9    1
     5     3     4   ar
     6     4     5   ar
     7     4     8    1
     8     5     6   ar
     9     6     7    2
    10     9    10    1
    11    10    11    1
    12    11    12    1
    13    12    13    1
    14    13    14    1
    15    14    15    1
    16    15    16    1
