@<TRIPOS>MOLECULE
28186_ChemDiv_G003-0044
 23 25 0 0 0
SMALL
GASTEIGER
Energy = 0

@<TRIPOS>ATOM
      1 C           0.2380   -0.8630    0.0000 C.ar    1  LIG1        0.1205
      2 N          -0.7580   -0.8630    0.0000 N.ar    1  LIG1       -0.1445
      3 N          -1.2500    0.0080    0.0000 N.ar    1  LIG1       -0.1218
      4 C          -0.7580    0.8670    0.0000 C.ar    1  LIG1        0.2110
      5 N           0.2380    0.8670    0.0000 N.ar    1  LIG1       -0.2183
      6 C           0.7460    0.0080    0.0000 C.ar    1  LIG1        0.1028
      7 C           1.7460    0.0080    0.0000 C.ar    1  LIG1        0.0193
      8 C           2.2380   -0.8630    0.0000 C.ar    1  LIG1        0.0015
      9 C           3.2460   -0.8630    0.0000 C.ar    1  LIG1        0.0000
     10 C           3.7460    0.0080    0.0000 C.ar    1  LIG1        0.0000
     11 C           3.2460    0.8670    0.0000 C.ar    1  LIG1        0.0000
     12 C           2.2380    0.8670    0.0000 C.ar    1  LIG1        0.0015
     13 S          -1.2500    1.7290    0.0000 S.3     1  LIG1       -0.0641
     14 C          -2.2580    1.7290    0.0000 C.3     1  LIG1        0.1533
     15 C          -2.7580    2.5960    0.0000 C.2     1  LIG1        0.2722
     16 O          -3.7500    2.5960    0.0000 O.2     1  LIG1       -0.2707
     17 N          -2.2580    3.4670    0.0000 N.am    1  LIG1       -0.0870
     18 C           0.7460   -1.7290    0.0000 C.ar    1  LIG1        0.0209
     19 C           0.2380   -2.5920    0.0000 C.ar    1  LIG1        0.0016
     20 C           0.7460   -3.4630    0.0000 C.ar    1  LIG1        0.0000
     21 C           1.7460   -3.4630    0.0000 C.ar    1  LIG1        0.0000
     22 C           2.2380   -2.5920    0.0000 C.ar    1  LIG1        0.0000
     23 C           1.7460   -1.7290    0.0000 C.ar    1  LIG1        0.0016
@<TRIPOS>BOND
     1     1     2   ar
     2     1     6   ar
     3     1    18    1
     4     2     3   ar
     5     3     4   ar
     6     4     5   ar
     7     4    13    1
     8     5     6   ar
     9     6     7    1
    10     7     8   ar
    11     7    12   ar
    12     8     9   ar
    13     9    10   ar
    14    10    11   ar
    15    11    12   ar
    16    13    14    1
    17    14    15    1
    18    15    16    2
    19    15    17   am
    20    18    19   ar
    21    18    23   ar
    22    19    20   ar
    23    20    21   ar
    24    21    22   ar
    25    22    23   ar
