@<TRIPOS>MOLECULE
28192_ChemDiv_K216-2559
 35 37 0 0 0
SMALL
GASTEIGER
Energy = 0

@<TRIPOS>ATOM
      1 C           2.1630    0.9880    0.0000 C.ar    1  LIG1        0.1206
      2 C           1.2880    0.4880    0.0000 C.ar    1  LIG1        0.1029
      3 N           1.3000   -0.5170    0.0000 N.ar    1  LIG1       -0.2183
      4 C           2.1710   -1.0040    0.0000 C.ar    1  LIG1        0.2110
      5 N           3.0330   -0.5040    0.0000 N.ar    1  LIG1       -0.1218
      6 N           3.0330    0.4880    0.0000 N.ar    1  LIG1       -0.1445
      7 S           2.1710   -2.0000    0.0000 S.3     1  LIG1       -0.0642
      8 C           1.3000   -2.4920    0.0000 C.3     1  LIG1        0.1516
      9 C           0.4330   -1.9880    0.0000 C.2     1  LIG1        0.2529
     10 O           0.4330   -1.0040    0.0000 O.2     1  LIG1       -0.2724
     11 N          -0.4250   -2.4920    0.0000 N.am    1  LIG1       -0.2020
     12 C          -0.4250   -3.4960    0.0000 C.3     1  LIG1        0.1471
     13 C          -1.2790   -4.0080    0.0000 C.3     1  LIG1        0.1656
     14 O          -1.2790   -5.0040    0.0000 O.3     1  LIG1       -0.3492
     15 C          -2.1500   -5.4880    0.0000 C.3     1  LIG1        0.1742
     16 C           0.4290    0.9830    0.0000 C.ar    1  LIG1        0.0225
     17 C           0.4210    1.9920    0.0000 C.ar    1  LIG1        0.0416
     18 C          -0.4380    2.4790    0.0000 C.ar    1  LIG1        0.1724
     19 C          -1.2960    1.9790    0.0000 C.ar    1  LIG1        0.1724
     20 C          -1.2960    0.9750    0.0000 C.ar    1  LIG1        0.0401
     21 C          -0.4250    0.4880    0.0000 C.ar    1  LIG1        0.0049
     22 O          -2.1750    2.4790    0.0000 O.3     1  LIG1       -0.4684
     23 C          -3.0420    1.9630    0.0000 C.3     1  LIG1        0.2526
     24 O          -0.4380    3.4830    0.0000 O.3     1  LIG1       -0.4684
     25 C          -1.2960    3.9830    0.0000 C.3     1  LIG1        0.2526
     26 C           2.1630    1.9880    0.0000 C.ar    1  LIG1        0.0241
     27 C           1.2880    2.4790    0.0000 C.ar    1  LIG1        0.0416
     28 C           1.2880    3.4830    0.0000 C.ar    1  LIG1        0.1724
     29 C           2.1540    3.9880    0.0000 C.ar    1  LIG1        0.1724
     30 C           3.0210    3.4830    0.0000 C.ar    1  LIG1        0.0401
     31 C           3.0380    2.4790    0.0000 C.ar    1  LIG1        0.0049
     32 O           2.1540    4.9880    0.0000 O.3     1  LIG1       -0.4684
     33 C           1.2880    5.4880    0.0000 C.3     1  LIG1        0.2526
     34 O           0.4130    3.9960    0.0000 O.3     1  LIG1       -0.4684
     35 C           0.4040    5.0040    0.0000 C.3     1  LIG1        0.2526
@<TRIPOS>BOND
     1     1     2   ar
     2     1     6   ar
     3     1    26    1
     4     2     3   ar
     5     2    16    1
     6     3     4   ar
     7     4     5   ar
     8     4     7    1
     9     5     6   ar
    10     7     8    1
    11     8     9    1
    12     9    10    2
    13     9    11   am
    14    11    12    1
    15    12    13    1
    16    13    14    1
    17    14    15    1
    18    16    17   ar
    19    16    21   ar
    20    17    18   ar
    21    18    19   ar
    22    18    24    1
    23    19    20   ar
    24    19    22    1
    25    20    21   ar
    26    22    23    1
    27    24    25    1
    28    26    27   ar
    29    26    31   ar
    30    27    28   ar
    31    28    29   ar
    32    28    34    1
    33    29    30   ar
    34    29    32    1
    35    30    31   ar
    36    32    33    1
    37    34    35    1
