@<TRIPOS>MOLECULE
28190_ChemDiv_K216-0710
 23 25 0 0 0
SMALL
GASTEIGER
Energy = 0

@<TRIPOS>ATOM
      1 C           0.8130    1.0040    0.0000 C.ar    1  LIG1        0.1203
      2 N           1.6790    1.5040    0.0000 N.ar    1  LIG1       -0.1473
      3 N           2.5460    1.0040    0.0000 N.ar    1  LIG1       -0.1612
      4 C           2.5460    0.0000    0.0000 C.ar    1  LIG1        0.0143
      5 N           1.6790   -0.4960    0.0000 N.ar    1  LIG1       -0.2551
      6 C           0.8130    0.0000    0.0000 C.ar    1  LIG1        0.0996
      7 C          -0.0500   -0.4960    0.0000 C.ar    1  LIG1        0.0194
      8 C          -0.0500   -1.5000    0.0000 C.ar    1  LIG1        0.0047
      9 C          -0.9130   -2.0000    0.0000 C.ar    1  LIG1        0.0369
     10 C          -1.7880   -1.5000    0.0000 C.ar    1  LIG1        0.1387
     11 C          -1.7880   -0.4960    0.0000 C.ar    1  LIG1        0.0369
     12 C          -0.9250    0.0000    0.0000 C.ar    1  LIG1        0.0047
     13 O          -2.6500   -2.0000    0.0000 O.3     1  LIG1       -0.4714
     14 C          -2.6500   -3.0000    0.0000 C.3     1  LIG1        0.2525
     15 S           3.5130   -0.2540    0.0000 S.3     1  LIG1       -0.7172
     16 C          -0.0500    1.5040    0.0000 C.ar    1  LIG1        0.0211
     17 C          -0.0500    2.5040    0.0000 C.ar    1  LIG1        0.0047
     18 C          -0.9130    3.0040    0.0000 C.ar    1  LIG1        0.0370
     19 C          -1.7880    2.5040    0.0000 C.ar    1  LIG1        0.1387
     20 C          -1.7790    1.5040    0.0000 C.ar    1  LIG1        0.0370
     21 C          -0.9080    1.0040    0.0000 C.ar    1  LIG1        0.0047
     22 O          -2.6500    3.0040    0.0000 O.3     1  LIG1       -0.4714
     23 C          -3.5170    2.5040    0.0000 C.3     1  LIG1        0.2525
@<TRIPOS>BOND
     1     1     2   ar
     2     1     6   ar
     3     1    16    1
     4     2     3   ar
     5     3     4   ar
     6     4     5   ar
     7     4    15    1
     8     5     6   ar
     9     6     7    1
    10     7     8   ar
    11     7    12   ar
    12     8     9   ar
    13     9    10   ar
    14    10    11   ar
    15    10    13    1
    16    11    12   ar
    17    13    14    1
    18    16    17   ar
    19    16    21   ar
    20    17    18   ar
    21    18    19   ar
    22    19    20   ar
    23    19    22    1
    24    20    21   ar
    25    22    23    1
