@<TRIPOS>MOLECULE
28191_ChemDiv_6640-0002
 17 17 0 0 0
SMALL
GASTEIGER
Energy = 0

@<TRIPOS>ATOM
      1 N          -0.7500   -0.4250    0.0000 N.ar    1  LIG1       -0.1828
      2 C          -1.7460   -0.4250    0.0000 C.ar    1  LIG1        0.2816
      3 C          -2.2500    0.4330    0.0000 C.ar    1  LIG1        0.0930
      4 C          -1.7460    1.3040    0.0000 C.ar    1  LIG1        0.2816
      5 N          -0.7500    1.3040    0.0000 N.ar    1  LIG1       -0.1828
      6 C          -0.2500    0.4330    0.0000 C.ar    1  LIG1        0.1958
      7 S           0.7500    0.4330    0.0000 S.3     1  LIG1       -0.0692
      8 C           1.2540   -0.4250    0.0000 C.3     1  LIG1        0.1276
      9 C           2.2540   -0.4330    0.0000 C.3     1  LIG1        0.1515
     10 N           2.7500   -1.3000    0.0000 N.4     1  LIG1        0.3874
     11 C           3.7500   -1.3000    0.0000 C.3     1  LIG1        0.2026
     12 C           2.2540   -2.1710    0.0000 C.3     1  LIG1        0.2026
     13 O          -2.2500    2.1750    0.0000 O.2     1  LIG1       -0.2653
     14 C          -3.2540    0.4330    0.0000 C.3     1  LIG1        0.0319
     15 C          -3.7540    1.3040    0.0000 C.3     1  LIG1        0.0050
     16 C          -3.7540   -0.4250    0.0000 C.3     1  LIG1        0.0050
     17 O          -2.2500   -1.2920    0.0000 O.3     1  LIG1       -0.2653
@<TRIPOS>BOND
     1     1     2   ar
     2     1     6   ar
     3     2     3   ar
     4     2    17    1
     5     3     4   ar
     6     3    14    1
     7     4     5   ar
     8     4    13    2
     9     5     6   ar
    10     6     7    1
    11     7     8    1
    12     8     9    1
    13     9    10    1
    14    10    11    1
    15    10    12    1
    16    14    15    1
    17    14    16    1
