@<TRIPOS>MOLECULE
28209_ChemDiv_2529-0063
 18 18 0 0 0
SMALL
GASTEIGER
Energy = 0

@<TRIPOS>ATOM
      1 N           0.9880   -0.8670    0.0000 N.ar    1  LIG1       -0.1828
      2 C          -0.0040   -0.8670    0.0000 C.ar    1  LIG1        0.2816
      3 C          -0.4960   -0.0130    0.0000 C.ar    1  LIG1        0.0934
      4 C          -0.0170    0.8710    0.0000 C.ar    1  LIG1        0.2816
      5 N           0.9880    0.8710    0.0000 N.ar    1  LIG1       -0.1828
      6 C           1.4880    0.0000    0.0000 C.ar    1  LIG1        0.1959
      7 S           2.4880    0.0000    0.0000 S.3     1  LIG1       -0.0695
      8 C           2.9790    0.8710    0.0000 C.3     1  LIG1        0.1066
      9 C           3.9960    0.8710    0.0000 C.2     1  LIG1        0.0617
     10 O           4.4880    1.7380    0.0000 O.co2   1  LIG1       -0.5483
     11 O           4.4880    0.0000    0.0000 O.co2   1  LIG1       -0.5483
     12 O          -0.5330    1.7330    0.0000 O.2     1  LIG1       -0.2653
     13 C          -1.5000   -0.0130    0.0000 C.3     1  LIG1        0.0362
     14 C          -1.9960    0.8670    0.0000 C.3     1  LIG1        0.0050
     15 C          -2.9880    0.8670    0.0000 C.3     1  LIG1        0.0003
     16 C          -3.5000    1.7210    0.0000 C.3     1  LIG1        0.0000
     17 C          -4.4920    1.7210    0.0000 C.3     1  LIG1        0.0000
     18 O          -0.5210   -1.7330    0.0000 O.3     1  LIG1       -0.2653
@<TRIPOS>BOND
     1     1     2   ar
     2     1     6   ar
     3     2     3   ar
     4     2    18    1
     5     3     4   ar
     6     3    13    1
     7     4     5   ar
     8     4    12    2
     9     5     6   ar
    10     6     7    1
    11     7     8    1
    12     8     9    1
    13     9    10   ar
    14     9    11   ar
    15    13    14    1
    16    14    15    1
    17    15    16    1
    18    16    17    1
