@<TRIPOS>MOLECULE
28208_ChemDiv_6645-0197
 25 27 0 0 0
SMALL
GASTEIGER
Energy = 0

@<TRIPOS>ATOM
      1 C          -2.6080    1.0040    0.0000 C.3     1  LIG1        0.3067
      2 O          -3.4710    0.5000    0.0000 O.3     1  LIG1       -0.4611
      3 C          -3.4710   -0.5000    0.0000 C.ar    1  LIG1        0.1730
      4 C          -2.6080   -1.0000    0.0000 C.ar    1  LIG1        0.1724
      5 O          -1.7380   -0.5040    0.0000 O.3     1  LIG1       -0.4679
      6 C          -1.7290    0.4960    0.0000 C.3     1  LIG1        0.2605
      7 C          -2.6080   -1.9920    0.0000 C.ar    1  LIG1        0.0400
      8 C          -3.4710   -2.4920    0.0000 C.ar    1  LIG1        0.0033
      9 C          -4.3380   -1.9920    0.0000 C.ar    1  LIG1        0.0033
     10 C          -4.3290   -0.9920    0.0000 C.ar    1  LIG1        0.0401
     11 C          -2.6080    1.9960    0.0000 C.2     1  LIG1        0.3616
     12 O          -1.7380    2.4960    0.0000 O.3     1  LIG1       -0.4435
     13 C          -0.8750    1.9960    0.0000 C.3     1  LIG1        0.2253
     14 C          -0.0080    2.4960    0.0000 C.3     1  LIG1        0.1834
     15 N           0.8540    1.9960    0.0000 N.4     1  LIG1        0.3883
     16 C           1.7250    2.4960    0.0000 C.3     1  LIG1        0.1667
     17 C           2.5960    1.9960    0.0000 C.ar    1  LIG1        0.0344
     18 C           2.5960    0.9960    0.0000 C.ar    1  LIG1        0.0014
     19 C           3.4580    0.4960    0.0000 C.ar    1  LIG1       -0.0001
     20 C           4.3330    0.9960    0.0000 C.ar    1  LIG1       -0.0000
     21 C           4.3250    2.0040    0.0000 C.ar    1  LIG1       -0.0001
     22 C           3.4580    2.4960    0.0000 C.ar    1  LIG1        0.0014
     23 C           0.8540    0.9960    0.0000 C.3     1  LIG1        0.2029
     24 C          -0.8750    0.9960    0.0000 C.3     1  LIG1        0.0539
     25 O          -3.4750    2.4960    0.0000 O.2     1  LIG1       -0.2459
@<TRIPOS>BOND
     1     1     2    1
     2     1     6    1
     3     1    11    1
     4     2     3    1
     5     3     4   ar
     6     3    10   ar
     7     4     5    1
     8     4     7   ar
     9     5     6    1
    10     7     8   ar
    11     8     9   ar
    12     9    10   ar
    13    11    12    1
    14    11    25    2
    15    12    13    1
    16    13    14    1
    17    13    24    1
    18    14    15    1
    19    15    16    1
    20    15    23    1
    21    16    17    1
    22    17    18   ar
    23    17    22   ar
    24    18    19   ar
    25    19    20   ar
    26    20    21   ar
    27    21    22   ar
