@<TRIPOS>MOLECULE
28206_ChemDiv_2712-4569
 22 24 0 0 0
SMALL
GASTEIGER
Energy = 0

@<TRIPOS>ATOM
      1 C           1.3040    0.5130    0.0000 C.3     1  LIG1        0.3071
      2 O           2.1630    1.0080    0.0000 O.3     1  LIG1       -0.4611
      3 C           2.1630    2.0210    0.0000 C.ar    1  LIG1        0.1730
      4 C           1.2880    2.5250    0.0000 C.ar    1  LIG1        0.1724
      5 O           0.4250    2.0210    0.0000 O.3     1  LIG1       -0.4679
      6 C           0.4250    1.0080    0.0000 C.3     1  LIG1        0.2605
      7 C           1.2790    3.5080    0.0000 C.ar    1  LIG1        0.0400
      8 C           2.1420    4.0040    0.0000 C.ar    1  LIG1        0.0033
      9 C           3.0130    3.5080    0.0000 C.ar    1  LIG1        0.0033
     10 C           3.0130    2.5290    0.0000 C.ar    1  LIG1        0.0401
     11 C           1.3040   -0.4920    0.0000 C.2     1  LIG1        0.3660
     12 O           0.4500   -1.0040    0.0000 O.3     1  LIG1       -0.4216
     13 C          -0.4170   -1.5080    0.0000 C.ar    1  LIG1        0.1480
     14 C          -0.4170   -2.5080    0.0000 C.ar    1  LIG1        0.0342
     15 C          -1.2920   -3.0130    0.0000 C.ar    1  LIG1       -0.0085
     16 C          -2.1580   -2.5080    0.0000 C.ar    1  LIG1        0.0499
     17 C          -2.1580   -1.5080    0.0000 C.ar    1  LIG1       -0.0085
     18 C          -1.2920   -1.0040    0.0000 C.ar    1  LIG1        0.0342
     19 C          -3.0170   -1.0080    0.0000 C.3     1  LIG1        0.0320
     20 CL         -3.0170   -3.0130    0.0000 Cl      1  LIG1       -0.0829
     21 C          -1.2920   -4.0040    0.0000 C.3     1  LIG1        0.0320
     22 O           2.1630   -1.0040    0.0000 O.2     1  LIG1       -0.2455
@<TRIPOS>BOND
     1     1     2    1
     2     1     6    1
     3     1    11    1
     4     2     3    1
     5     3     4   ar
     6     3    10   ar
     7     4     5    1
     8     4     7   ar
     9     5     6    1
    10     7     8   ar
    11     8     9   ar
    12     9    10   ar
    13    11    12    1
    14    11    22    2
    15    12    13    1
    16    13    14   ar
    17    13    18   ar
    18    14    15   ar
    19    15    16   ar
    20    15    21    1
    21    16    17   ar
    22    16    20    1
    23    17    18   ar
    24    17    19    1
