@<TRIPOS>MOLECULE
28205_ChemDiv_2449-0137
 18 19 0 0 0
SMALL
GASTEIGER
Energy = 0

@<TRIPOS>ATOM
      1 C          -2.3540   -1.6830    0.0000 C.ar    1  LIG1        0.2152
      2 N          -1.3710   -1.6750    0.0000 N.am    1  LIG1       -0.1189
      3 C          -0.8750   -0.8130    0.0000 C.2     1  LIG1        0.4270
      4 O          -1.3830    0.0330    0.0000 O.2     1  LIG1       -0.2241
      5 O           0.1290   -0.8130    0.0000 O.3     1  LIG1       -0.4314
      6 C           0.6290    0.0500    0.0000 C.3     1  LIG1        0.2317
      7 C           1.6420    0.0500    0.0000 C.3     1  LIG1        0.1442
      8 N           2.1380    0.9210    0.0000 N.am    1  LIG1       -0.2384
      9 C           3.1460    1.1290    0.0000 C.2     1  LIG1        0.4051
     10 O           3.2290    2.1080    0.0000 O.3     1  LIG1       -0.4326
     11 C           2.3460    2.5210    0.0000 C.3     1  LIG1        0.2316
     12 C           1.6420    1.7830    0.0000 C.3     1  LIG1        0.1442
     13 O           3.9040    0.4920    0.0000 O.2     1  LIG1       -0.2262
     14 N          -2.9750   -2.5170    0.0000 N.ar    1  LIG1       -0.0315
     15 O          -3.9080   -2.1420    0.0000 O.2     1  LIG1       -0.2405
     16 N          -3.8920   -1.1290    0.0000 N.ar    1  LIG1       -0.0512
     17 C          -2.9380   -0.8710    0.0000 C.ar    1  LIG1        0.1370
     18 C          -2.6250    0.0500    0.0000 C.3     1  LIG1        0.0589
@<TRIPOS>BOND
     1     1     2    1
     2     1    14   ar
     3     1    17   ar
     4     2     3   am
     5     3     4    2
     6     3     5    1
     7     5     6    1
     8     6     7    1
     9     7     8    1
    10     8     9   am
    11     8    12    1
    12     9    10    1
    13     9    13    2
    14    10    11    1
    15    11    12    1
    16    14    15   ar
    17    15    16   ar
    18    16    17   ar
    19    17    18    1
