@<TRIPOS>MOLECULE
28203_ChemDiv_2447-2822
 25 28 0 0 0
SMALL
GASTEIGER
Energy = 0

@<TRIPOS>ATOM
      1 N          -1.2130   -1.0920    0.0000 N.am    1  LIG1       -0.2463
      2 C          -2.2710   -1.0920    0.0000 C.3     1  LIG1        0.1524
      3 S          -2.5540   -2.0210    0.0000 S.3     1  LIG1       -0.1066
      4 C          -1.7500   -2.5960    0.0000 C.3     1  LIG1        0.1448
      5 C          -0.9420   -1.9630    0.0000 C.2     1  LIG1        0.2412
      6 O           0.0330   -2.2710    0.0000 O.2     1  LIG1       -0.2736
      7 C          -2.8290   -0.2790    0.0000 C.ar    1  LIG1        0.0255
      8 C          -3.8380   -0.3710    0.0000 C.ar    1  LIG1        0.0970
      9 N          -4.4210    0.4080    0.0000 N.ar    1  LIG1       -0.2426
     10 C          -4.0420    1.3290    0.0000 C.ar    1  LIG1        0.0989
     11 C          -3.0420    1.4170    0.0000 C.ar    1  LIG1        0.0204
     12 C          -2.4750    0.6290    0.0000 C.ar    1  LIG1        0.0013
     13 C          -0.5380   -0.3130    0.0000 C.ar    1  LIG1        0.0551
     14 C           0.4540   -0.5000    0.0000 C.ar    1  LIG1        0.0181
     15 C           1.1330    0.2630    0.0000 C.ar    1  LIG1        0.0388
     16 C           0.7960    1.2210    0.0000 C.ar    1  LIG1        0.1454
     17 O           1.4170    1.9960    0.0000 O.3     1  LIG1       -0.4535
     18 C           2.4170    1.8500    0.0000 C.ar    1  LIG1        0.1453
     19 C           2.7920    0.8750    0.0000 C.ar    1  LIG1        0.0375
     20 C           3.7880    0.7290    0.0000 C.ar    1  LIG1        0.0031
     21 C           4.4170    1.5330    0.0000 C.ar    1  LIG1        0.0002
     22 C           4.0370    2.4380    0.0000 C.ar    1  LIG1        0.0031
     23 C           3.0580    2.6000    0.0000 C.ar    1  LIG1        0.0375
     24 C          -0.1670    1.3880    0.0000 C.ar    1  LIG1        0.0388
     25 C          -0.8460    0.6290    0.0000 C.ar    1  LIG1        0.0181
@<TRIPOS>BOND
     1     1     2    1
     2     1     5   am
     3     1    13    1
     4     2     3    1
     5     2     7    1
     6     3     4    1
     7     4     5    1
     8     5     6    2
     9     7     8   ar
    10     7    12   ar
    11     8     9   ar
    12     9    10   ar
    13    10    11   ar
    14    11    12   ar
    15    13    14   ar
    16    13    25   ar
    17    14    15   ar
    18    15    16   ar
    19    16    17    1
    20    16    24   ar
    21    17    18    1
    22    18    19   ar
    23    18    23   ar
    24    19    20   ar
    25    20    21   ar
    26    21    22   ar
    27    22    23   ar
    28    24    25   ar
