@<TRIPOS>MOLECULE
28218_ChemDiv_K784-3154
 37 40 0 0 0
SMALL
GASTEIGER
Energy = 0

@<TRIPOS>ATOM
      1 C          -1.2580    0.4920    0.0000 C.ar    1  LIG1        0.1206
      2 C          -1.2630   -0.5130    0.0000 C.ar    1  LIG1        0.1029
      3 N          -0.3960   -1.0290    0.0000 N.ar    1  LIG1       -0.2183
      4 C           0.4790   -0.5210    0.0000 C.ar    1  LIG1        0.2110
      5 N           0.4830    0.4880    0.0000 N.ar    1  LIG1       -0.1218
      6 N          -0.3880    0.9880    0.0000 N.ar    1  LIG1       -0.1445
      7 S           1.3460   -1.0290    0.0000 S.3     1  LIG1       -0.0642
      8 C           2.2080   -1.5250    0.0000 C.3     1  LIG1        0.1516
      9 C           3.0710   -1.0290    0.0000 C.2     1  LIG1        0.2531
     10 N           3.9330   -1.5250    0.0000 N.am    1  LIG1       -0.1993
     11 C           4.7960   -1.0210    0.0000 C.3     1  LIG1        0.1479
     12 C           4.7830   -0.0290    0.0000 C.ar    1  LIG1        0.0290
     13 S           5.5830    0.5630    0.0000 S.2     1  LIG1       -0.0890
     14 C           5.2670    1.5000    0.0000 C.ar    1  LIG1        0.0352
     15 C           4.2790    1.5000    0.0000 C.ar    1  LIG1        0.0072
     16 C           3.9790    0.5460    0.0000 C.ar    1  LIG1        0.0044
     17 O           3.0670   -0.0290    0.0000 O.2     1  LIG1       -0.2724
     18 C          -2.1380   -1.0130    0.0000 C.ar    1  LIG1        0.0225
     19 C          -2.1500   -2.0130    0.0000 C.ar    1  LIG1        0.0416
     20 C          -3.0130   -2.5130    0.0000 C.ar    1  LIG1        0.1724
     21 C          -3.8790   -2.0080    0.0000 C.ar    1  LIG1        0.1724
     22 C          -3.8670   -0.9960    0.0000 C.ar    1  LIG1        0.0401
     23 C          -3.0000   -0.5080    0.0000 C.ar    1  LIG1        0.0049
     24 O          -4.7420   -2.5040    0.0000 O.3     1  LIG1       -0.4684
     25 C          -4.7420   -3.5040    0.0000 C.3     1  LIG1        0.2526
     26 O          -3.0130   -3.5080    0.0000 O.3     1  LIG1       -0.4684
     27 C          -2.1500   -4.0080    0.0000 C.3     1  LIG1        0.2526
     28 C          -2.1210    1.0000    0.0000 C.ar    1  LIG1        0.0241
     29 C          -2.1210    2.0000    0.0000 C.ar    1  LIG1        0.0416
     30 C          -2.9880    2.5040    0.0000 C.ar    1  LIG1        0.1724
     31 C          -3.8630    2.0040    0.0000 C.ar    1  LIG1        0.1724
     32 C          -3.8630    1.0000    0.0000 C.ar    1  LIG1        0.0401
     33 C          -2.9880    0.5000    0.0000 C.ar    1  LIG1        0.0049
     34 O          -4.7250    2.5000    0.0000 O.3     1  LIG1       -0.4684
     35 C          -5.5880    2.0000    0.0000 C.3     1  LIG1        0.2526
     36 O          -2.9880    3.5000    0.0000 O.3     1  LIG1       -0.4684
     37 C          -3.8540    4.0080    0.0000 C.3     1  LIG1        0.2526
@<TRIPOS>BOND
     1     1     2   ar
     2     1     6   ar
     3     1    28    1
     4     2     3   ar
     5     2    18    1
     6     3     4   ar
     7     4     5   ar
     8     4     7    1
     9     5     6   ar
    10     7     8    1
    11     8     9    1
    12     9    10   am
    13     9    17    2
    14    10    11    1
    15    11    12    1
    16    12    13   ar
    17    12    16   ar
    18    13    14   ar
    19    14    15   ar
    20    15    16   ar
    21    18    19   ar
    22    18    23   ar
    23    19    20   ar
    24    20    21   ar
    25    20    26    1
    26    21    22   ar
    27    21    24    1
    28    22    23   ar
    29    24    25    1
    30    26    27    1
    31    28    29   ar
    32    28    33   ar
    33    29    30   ar
    34    30    31   ar
    35    30    36    1
    36    31    32   ar
    37    31    34    1
    38    32    33   ar
    39    34    35    1
    40    36    37    1
