@<TRIPOS>MOLECULE
28210_ChemDiv_K216-2562
 35 37 0 0 0
SMALL
GASTEIGER
Energy = 0

@<TRIPOS>ATOM
      1 C           2.1630    0.7460    0.0000 C.ar    1  LIG1        0.1206
      2 C           1.2880    0.2420    0.0000 C.ar    1  LIG1        0.1029
      3 N           1.3000   -0.7630    0.0000 N.ar    1  LIG1       -0.2183
      4 C           2.1670   -1.2500    0.0000 C.ar    1  LIG1        0.2110
      5 N           3.0290   -0.7460    0.0000 N.ar    1  LIG1       -0.1218
      6 N           3.0290    0.2420    0.0000 N.ar    1  LIG1       -0.1445
      7 S           2.1670   -2.2420    0.0000 S.3     1  LIG1       -0.0642
      8 C           1.3000   -2.7330    0.0000 C.3     1  LIG1        0.1516
      9 C           0.4460   -2.2420    0.0000 C.2     1  LIG1        0.2528
     10 N          -0.4170   -2.7330    0.0000 N.am    1  LIG1       -0.2064
     11 C          -0.4170   -3.7380    0.0000 C.3     1  LIG1        0.0954
     12 C          -1.2750   -4.2330    0.0000 C.3     1  LIG1        0.0217
     13 C          -1.2750   -5.2460    0.0000 C.3     1  LIG1        0.0018
     14 C           0.4500   -4.2330    0.0000 C.3     1  LIG1        0.0234
     15 O           0.4460   -1.2500    0.0000 O.2     1  LIG1       -0.2724
     16 C           0.4290    0.7420    0.0000 C.ar    1  LIG1        0.0225
     17 C           0.4210    1.7500    0.0000 C.ar    1  LIG1        0.0416
     18 C          -0.4380    2.2380    0.0000 C.ar    1  LIG1        0.1724
     19 C          -1.2960    1.7330    0.0000 C.ar    1  LIG1        0.1724
     20 C          -1.2960    0.7290    0.0000 C.ar    1  LIG1        0.0401
     21 C          -0.4250    0.2420    0.0000 C.ar    1  LIG1        0.0049
     22 O          -2.1750    2.2380    0.0000 O.3     1  LIG1       -0.4684
     23 C          -3.0420    1.7210    0.0000 C.3     1  LIG1        0.2526
     24 O          -0.4380    3.2420    0.0000 O.3     1  LIG1       -0.4684
     25 C          -1.2960    3.7380    0.0000 C.3     1  LIG1        0.2526
     26 C           2.1630    1.7460    0.0000 C.ar    1  LIG1        0.0241
     27 C           1.2880    2.2380    0.0000 C.ar    1  LIG1        0.0416
     28 C           1.2880    3.2420    0.0000 C.ar    1  LIG1        0.1724
     29 C           2.1540    3.7420    0.0000 C.ar    1  LIG1        0.1724
     30 C           3.0210    3.2420    0.0000 C.ar    1  LIG1        0.0401
     31 C           3.0380    2.2380    0.0000 C.ar    1  LIG1        0.0049
     32 O           2.1540    4.7420    0.0000 O.3     1  LIG1       -0.4684
     33 C           1.2880    5.2460    0.0000 C.3     1  LIG1        0.2526
     34 O           0.4130    3.7540    0.0000 O.3     1  LIG1       -0.4684
     35 C           0.4040    4.7580    0.0000 C.3     1  LIG1        0.2526
@<TRIPOS>BOND
     1     1     2   ar
     2     1     6   ar
     3     1    26    1
     4     2     3   ar
     5     2    16    1
     6     3     4   ar
     7     4     5   ar
     8     4     7    1
     9     5     6   ar
    10     7     8    1
    11     8     9    1
    12     9    10   am
    13     9    15    2
    14    10    11    1
    15    11    12    1
    16    11    14    1
    17    12    13    1
    18    16    17   ar
    19    16    21   ar
    20    17    18   ar
    21    18    19   ar
    22    18    24    1
    23    19    20   ar
    24    19    22    1
    25    20    21   ar
    26    22    23    1
    27    24    25    1
    28    26    27   ar
    29    26    31   ar
    30    27    28   ar
    31    28    29   ar
    32    28    34    1
    33    29    30   ar
    34    29    32    1
    35    30    31   ar
    36    32    33    1
    37    34    35    1
