@<TRIPOS>MOLECULE
28214_ChemDiv_K216-2871
 38 40 0 0 0
SMALL
GASTEIGER
Energy = 0

@<TRIPOS>ATOM
      1 C           2.1460    1.4920    0.0000 C.ar    1  LIG1        0.1206
      2 C           1.2830    0.9790    0.0000 C.ar    1  LIG1        0.1029
      3 N           1.2830   -0.0170    0.0000 N.ar    1  LIG1       -0.2183
      4 C           2.1500   -0.5290    0.0000 C.ar    1  LIG1        0.2110
      5 N           3.0170   -0.0170    0.0000 N.ar    1  LIG1       -0.1218
      6 N           3.0170    0.9790    0.0000 N.ar    1  LIG1       -0.1445
      7 S           2.1500   -1.5080    0.0000 S.3     1  LIG1       -0.0642
      8 C           1.2830   -2.0000    0.0000 C.3     1  LIG1        0.1516
      9 C           0.4170   -1.5080    0.0000 C.2     1  LIG1        0.2528
     10 O           0.4170   -0.5130    0.0000 O.2     1  LIG1       -0.2724
     11 N          -0.4380   -2.0000    0.0000 N.am    1  LIG1       -0.2046
     12 C          -0.4380   -3.0040    0.0000 C.3     1  LIG1        0.1178
     13 C          -1.2830   -3.5040    0.0000 C.3     1  LIG1        0.0555
     14 C          -1.2830   -4.5080    0.0000 C.3     1  LIG1        0.1441
     15 O          -2.1500   -5.0080    0.0000 O.3     1  LIG1       -0.3510
     16 C          -2.1500   -6.0130    0.0000 C.3     1  LIG1        0.1741
     17 C           0.4170    1.4920    0.0000 C.ar    1  LIG1        0.0225
     18 C          -0.4420    0.9920    0.0000 C.ar    1  LIG1        0.0416
     19 C          -1.3000    1.4790    0.0000 C.ar    1  LIG1        0.1722
     20 C          -1.3000    2.4960    0.0000 C.ar    1  LIG1        0.1724
     21 C          -0.4420    2.9880    0.0000 C.ar    1  LIG1        0.0401
     22 C           0.4170    2.4830    0.0000 C.ar    1  LIG1        0.0049
     23 O          -2.1670    2.9880    0.0000 O.3     1  LIG1       -0.4684
     24 C          -3.0330    2.4830    0.0000 C.3     1  LIG1        0.2526
     25 O          -2.1670    0.9790    0.0000 O.3     1  LIG1       -0.4724
     26 C          -2.1670   -0.0130    0.0000 C.3     1  LIG1        0.2057
     27 C          -1.2920   -0.5130    0.0000 C.3     1  LIG1        0.0512
     28 C           2.1500    2.4830    0.0000 C.ar    1  LIG1        0.0241
     29 C           1.2830    2.9710    0.0000 C.ar    1  LIG1        0.0416
     30 C           1.2830    3.9920    0.0000 C.ar    1  LIG1        0.1723
     31 C           2.1630    4.4750    0.0000 C.ar    1  LIG1        0.1724
     32 C           3.0290    3.9750    0.0000 C.ar    1  LIG1        0.0401
     33 C           3.0170    2.9710    0.0000 C.ar    1  LIG1        0.0049
     34 O           2.1750    5.4790    0.0000 O.3     1  LIG1       -0.4684
     35 C           1.3000    5.9920    0.0000 C.3     1  LIG1        0.2526
     36 O           0.4130    4.4920    0.0000 O.3     1  LIG1       -0.4724
     37 C           0.4250    5.5040    0.0000 C.3     1  LIG1        0.2057
     38 C          -0.4420    6.0130    0.0000 C.3     1  LIG1        0.0512
@<TRIPOS>BOND
     1     1     2   ar
     2     1     6   ar
     3     1    28    1
     4     2     3   ar
     5     2    17    1
     6     3     4   ar
     7     4     5   ar
     8     4     7    1
     9     5     6   ar
    10     7     8    1
    11     8     9    1
    12     9    10    2
    13     9    11   am
    14    11    12    1
    15    12    13    1
    16    13    14    1
    17    14    15    1
    18    15    16    1
    19    17    18   ar
    20    17    22   ar
    21    18    19   ar
    22    19    20   ar
    23    19    25    1
    24    20    21   ar
    25    20    23    1
    26    21    22   ar
    27    23    24    1
    28    25    26    1
    29    26    27    1
    30    28    29   ar
    31    28    33   ar
    32    29    30   ar
    33    30    31   ar
    34    30    36    1
    35    31    32   ar
    36    31    34    1
    37    32    33   ar
    38    34    35    1
    39    36    37    1
    40    37    38    1
