@<TRIPOS>MOLECULE
28212_ChemDiv_K216-2568
 36 39 0 0 0
SMALL
GASTEIGER
Energy = 0

@<TRIPOS>ATOM
      1 C           2.1630   -0.5080    0.0000 C.ar    1  LIG1        0.1206
      2 C           1.2880   -1.0130    0.0000 C.ar    1  LIG1        0.1029
      3 N           1.3000   -2.0170    0.0000 N.ar    1  LIG1       -0.2183
      4 C           2.1710   -2.5040    0.0000 C.ar    1  LIG1        0.2110
      5 N           3.0330   -2.0040    0.0000 N.ar    1  LIG1       -0.1218
      6 N           3.0330   -1.0130    0.0000 N.ar    1  LIG1       -0.1445
      7 S           2.1710   -3.5000    0.0000 S.3     1  LIG1       -0.0642
      8 C           1.3000   -3.9920    0.0000 C.3     1  LIG1        0.1516
      9 C           0.4330   -3.4880    0.0000 C.2     1  LIG1        0.2528
     10 N          -0.4250   -3.9920    0.0000 N.am    1  LIG1       -0.2064
     11 C          -1.2960   -3.4880    0.0000 C.3     1  LIG1        0.0953
     12 C          -1.4040   -2.5040    0.0000 C.3     1  LIG1        0.0217
     13 C          -2.3920   -2.3080    0.0000 C.3     1  LIG1        0.0018
     14 C          -2.8790   -3.1750    0.0000 C.3     1  LIG1        0.0018
     15 C          -2.2040   -3.9080    0.0000 C.3     1  LIG1        0.0217
     16 O           0.4460   -2.5210    0.0000 O.2     1  LIG1       -0.2724
     17 C           0.4290   -0.5170    0.0000 C.ar    1  LIG1        0.0225
     18 C           0.4210    0.4960    0.0000 C.ar    1  LIG1        0.0416
     19 C          -0.4380    0.9830    0.0000 C.ar    1  LIG1        0.1724
     20 C          -1.2960    0.4790    0.0000 C.ar    1  LIG1        0.1724
     21 C          -1.2960   -0.5250    0.0000 C.ar    1  LIG1        0.0401
     22 C          -0.4250   -1.0130    0.0000 C.ar    1  LIG1        0.0049
     23 O          -2.1750    0.9830    0.0000 O.3     1  LIG1       -0.4684
     24 C          -3.0420    0.4630    0.0000 C.3     1  LIG1        0.2526
     25 O          -0.4380    1.9880    0.0000 O.3     1  LIG1       -0.4684
     26 C          -1.2960    2.4830    0.0000 C.3     1  LIG1        0.2526
     27 C           2.1630    0.4880    0.0000 C.ar    1  LIG1        0.0241
     28 C           1.2880    0.9830    0.0000 C.ar    1  LIG1        0.0416
     29 C           1.2880    1.9880    0.0000 C.ar    1  LIG1        0.1724
     30 C           2.1540    2.4880    0.0000 C.ar    1  LIG1        0.1724
     31 C           3.0210    1.9880    0.0000 C.ar    1  LIG1        0.0401
     32 C           3.0380    0.9830    0.0000 C.ar    1  LIG1        0.0049
     33 O           2.1540    3.4920    0.0000 O.3     1  LIG1       -0.4684
     34 C           1.2880    3.9960    0.0000 C.3     1  LIG1        0.2526
     35 O           0.4130    2.5000    0.0000 O.3     1  LIG1       -0.4684
     36 C           0.4040    3.5080    0.0000 C.3     1  LIG1        0.2526
@<TRIPOS>BOND
     1     1     2   ar
     2     1     6   ar
     3     1    27    1
     4     2     3   ar
     5     2    17    1
     6     3     4   ar
     7     4     5   ar
     8     4     7    1
     9     5     6   ar
    10     7     8    1
    11     8     9    1
    12     9    10   am
    13     9    16    2
    14    10    11    1
    15    11    12    1
    16    11    15    1
    17    12    13    1
    18    13    14    1
    19    14    15    1
    20    17    18   ar
    21    17    22   ar
    22    18    19   ar
    23    19    20   ar
    24    19    25    1
    25    20    21   ar
    26    20    23    1
    27    21    22   ar
    28    23    24    1
    29    25    26    1
    30    27    28   ar
    31    27    32   ar
    32    28    29   ar
    33    29    30   ar
    34    29    35    1
    35    30    31   ar
    36    30    33    1
    37    31    32   ar
    38    33    34    1
    39    35    36    1
