@<TRIPOS>MOLECULE
28211_ChemDiv_D058-0083
 26 28 0 0 0
SMALL
GASTEIGER
Energy = 0

@<TRIPOS>ATOM
      1 C          -3.4750   -0.2630    0.0000 C.ar    1  LIG1        0.0537
      2 C          -2.6000    0.2380    0.0000 C.ar    1  LIG1        0.2784
      3 N          -1.7380   -0.2580    0.0000 N.ar    1  LIG1       -0.1830
      4 C          -1.7290   -1.2580    0.0000 C.ar    1  LIG1        0.1926
      5 N          -2.6000   -1.7670    0.0000 N.ar    1  LIG1       -0.2257
      6 C          -3.4750   -1.2580    0.0000 C.ar    1  LIG1        0.0625
      7 C          -4.3330   -1.7670    0.0000 C.3     1  LIG1        0.0520
      8 S          -0.8630   -1.7580    0.0000 S.3     1  LIG1       -0.0717
      9 C           0.0000   -1.2580    0.0000 C.3     1  LIG1        0.1124
     10 C           0.8670   -1.7580    0.0000 C.3     1  LIG1        0.2174
     11 O           1.7330   -1.2540    0.0000 O.3     1  LIG1       -0.4745
     12 C           2.5960   -1.7500    0.0000 C.ar    1  LIG1        0.1386
     13 C           3.4540   -1.2420    0.0000 C.ar    1  LIG1        0.0378
     14 C           4.3170   -1.7420    0.0000 C.ar    1  LIG1        0.0145
     15 C           4.3250   -2.7380    0.0000 C.ar    1  LIG1        0.0579
     16 CL          5.1920   -3.2380    0.0000 Cl      1  LIG1       -0.0822
     17 C           3.4540   -3.2380    0.0000 C.ar    1  LIG1        0.0145
     18 C           2.5960   -2.7500    0.0000 C.ar    1  LIG1        0.0378
     19 O          -2.6000    1.2380    0.0000 O.2     1  LIG1       -0.2654
     20 C          -4.3330    0.2380    0.0000 C.3     1  LIG1        0.0587
     21 C          -4.3250    1.2380    0.0000 C.ar    1  LIG1       -0.0176
     22 C          -3.4580    1.7330    0.0000 C.ar    1  LIG1       -0.0039
     23 C          -3.4500    2.7420    0.0000 C.ar    1  LIG1       -0.0003
     24 C          -4.3210    3.2420    0.0000 C.ar    1  LIG1       -0.0000
     25 C          -5.1960    2.7420    0.0000 C.ar    1  LIG1       -0.0003
     26 C          -5.1960    1.7460    0.0000 C.ar    1  LIG1       -0.0039
@<TRIPOS>BOND
     1     1     2   ar
     2     1     6   ar
     3     1    20    1
     4     2     3   ar
     5     2    19    2
     6     3     4   ar
     7     4     5   ar
     8     4     8    1
     9     5     6   ar
    10     6     7    1
    11     8     9    1
    12     9    10    1
    13    10    11    1
    14    11    12    1
    15    12    13   ar
    16    12    18   ar
    17    13    14   ar
    18    14    15   ar
    19    15    16    1
    20    15    17   ar
    21    17    18   ar
    22    20    21    1
    23    21    22   ar
    24    21    26   ar
    25    22    23   ar
    26    23    24   ar
    27    24    25   ar
    28    25    26   ar
