@<TRIPOS>MOLECULE
28216_ChemDiv_K784-2898
 29 31 0 0 0
SMALL
GASTEIGER
Energy = 0

@<TRIPOS>ATOM
      1 C          -2.5920    0.4920    0.0000 C.ar    1  LIG1        0.1205
      2 N          -1.7290    1.0040    0.0000 N.ar    1  LIG1       -0.1445
      3 N          -0.8580    0.5040    0.0000 N.ar    1  LIG1       -0.1218
      4 C          -0.8580   -0.5080    0.0000 C.ar    1  LIG1        0.2110
      5 N          -1.7290   -1.0080    0.0000 N.ar    1  LIG1       -0.2183
      6 C          -2.5920   -0.5080    0.0000 C.ar    1  LIG1        0.1028
      7 C          -3.4540   -1.0080    0.0000 C.ar    1  LIG1        0.0192
      8 C          -3.4540   -2.0000    0.0000 C.ar    1  LIG1        0.0012
      9 C          -4.3210   -2.5000    0.0000 C.ar    1  LIG1       -0.0042
     10 C          -5.1920   -2.0000    0.0000 C.ar    1  LIG1       -0.0218
     11 C          -5.1920   -1.0000    0.0000 C.ar    1  LIG1       -0.0042
     12 C          -4.3290   -0.5000    0.0000 C.ar    1  LIG1        0.0012
     13 C          -6.0540   -2.5000    0.0000 C.3     1  LIG1        0.0310
     14 S           0.0040   -1.0080    0.0000 S.3     1  LIG1       -0.0642
     15 C           0.8710   -1.5000    0.0000 C.3     1  LIG1        0.1516
     16 C           1.7330   -1.0000    0.0000 C.2     1  LIG1        0.2529
     17 O           1.7290    0.0000    0.0000 O.2     1  LIG1       -0.2724
     18 N           2.5960   -1.5000    0.0000 N.am    1  LIG1       -0.2020
     19 C           3.4630   -1.9920    0.0000 C.3     1  LIG1        0.1471
     20 C           4.3250   -1.4920    0.0000 C.3     1  LIG1        0.1656
     21 O           5.1880   -1.9830    0.0000 O.3     1  LIG1       -0.3492
     22 C           6.0540   -1.4830    0.0000 C.3     1  LIG1        0.1742
     23 C          -3.4540    0.9920    0.0000 C.ar    1  LIG1        0.0209
     24 C          -3.4540    2.0040    0.0000 C.ar    1  LIG1        0.0013
     25 C          -4.3210    2.5040    0.0000 C.ar    1  LIG1       -0.0042
     26 C          -5.1920    2.0040    0.0000 C.ar    1  LIG1       -0.0218
     27 C          -5.1830    0.9920    0.0000 C.ar    1  LIG1       -0.0042
     28 C          -4.3130    0.5040    0.0000 C.ar    1  LIG1        0.0013
     29 C          -6.0540    2.4920    0.0000 C.3     1  LIG1        0.0310
@<TRIPOS>BOND
     1     1     2   ar
     2     1     6   ar
     3     1    23    1
     4     2     3   ar
     5     3     4   ar
     6     4     5   ar
     7     4    14    1
     8     5     6   ar
     9     6     7    1
    10     7     8   ar
    11     7    12   ar
    12     8     9   ar
    13     9    10   ar
    14    10    11   ar
    15    10    13    1
    16    11    12   ar
    17    14    15    1
    18    15    16    1
    19    16    17    2
    20    16    18   am
    21    18    19    1
    22    19    20    1
    23    20    21    1
    24    21    22    1
    25    23    24   ar
    26    23    28   ar
    27    24    25   ar
    28    25    26   ar
    29    26    27   ar
    30    26    29    1
    31    27    28   ar
