@<TRIPOS>MOLECULE
28225_ChemDiv_3105-0027
 33 35 0 0 0
SMALL
GASTEIGER
Energy = 0

@<TRIPOS>ATOM
      1 C           2.2330   -1.0130    0.0000 C.ar    1  LIG1        0.1056
      2 C           3.0380   -1.5880    0.0000 C.ar    1  LIG1        0.0846
      3 S           2.7330   -2.5420    0.0000 S.2     1  LIG1        0.0205
      4 N           1.7170   -2.5420    0.0000 N.ar    1  LIG1       -0.2017
      5 C           1.4330   -1.6380    0.0000 C.ar    1  LIG1        0.1255
      6 S           0.4540   -1.3710    0.0000 S.3     1  LIG1       -0.0837
      7 C          -0.2790   -2.0580    0.0000 C.3     1  LIG1        0.1505
      8 C          -1.2170   -1.8540    0.0000 C.2     1  LIG1        0.2570
      9 N          -1.9330   -2.5420    0.0000 N.am    1  LIG1       -0.1785
     10 C          -2.9040   -2.3250    0.0000 C.ar    1  LIG1        0.0736
     11 C          -3.1420   -1.3710    0.0000 C.ar    1  LIG1        0.0197
     12 C          -4.1250   -1.0710    0.0000 C.ar    1  LIG1        0.0382
     13 C          -4.8170   -1.8040    0.0000 C.ar    1  LIG1        0.1388
     14 C          -4.5460   -2.7920    0.0000 C.ar    1  LIG1        0.0382
     15 C          -3.6080   -3.0130    0.0000 C.ar    1  LIG1        0.0197
     16 O          -5.8380   -1.5880    0.0000 O.3     1  LIG1       -0.4714
     17 C          -6.5040   -2.3750    0.0000 C.3     1  LIG1        0.2525
     18 O          -1.4960   -0.9000    0.0000 O.2     1  LIG1       -0.2720
     19 S           3.9540   -1.1710    0.0000 S.3     1  LIG1       -0.0952
     20 C           4.7960   -1.7500    0.0000 C.3     1  LIG1        0.1495
     21 C           5.6670   -1.3380    0.0000 C.2     1  LIG1        0.2569
     22 N           5.7330   -0.3330    0.0000 N.am    1  LIG1       -0.1785
     23 C           4.8960    0.2420    0.0000 C.ar    1  LIG1        0.0736
     24 C           5.0080    1.2460    0.0000 C.ar    1  LIG1        0.0197
     25 C           4.2040    1.8750    0.0000 C.ar    1  LIG1        0.0382
     26 C           3.2920    1.4460    0.0000 C.ar    1  LIG1        0.1388
     27 C           3.1880    0.4580    0.0000 C.ar    1  LIG1        0.0382
     28 C           3.9540   -0.1170    0.0000 C.ar    1  LIG1        0.0197
     29 O           2.4880    2.0290    0.0000 O.3     1  LIG1       -0.4714
     30 C           2.6000    3.0170    0.0000 C.3     1  LIG1        0.2525
     31 O           6.5040   -1.9040    0.0000 O.2     1  LIG1       -0.2720
     32 C           2.2330   -0.0250    0.0000 C.1     1  LIG1        0.1035
     33 N           2.2330    0.9790    0.0000 N.1     1  LIG1       -0.1907
@<TRIPOS>BOND
     1     1     2   ar
     2     1     5   ar
     3     1    32    1
     4     2     3   ar
     5     2    19    1
     6     3     4   ar
     7     4     5   ar
     8     5     6    1
     9     6     7    1
    10     7     8    1
    11     8     9   am
    12     8    18    2
    13     9    10    1
    14    10    11   ar
    15    10    15   ar
    16    11    12   ar
    17    12    13   ar
    18    13    14   ar
    19    13    16    1
    20    14    15   ar
    21    16    17    1
    22    19    20    1
    23    20    21    1
    24    21    22   am
    25    21    31    2
    26    22    23    1
    27    23    24   ar
    28    23    28   ar
    29    24    25   ar
    30    25    26   ar
    31    26    27   ar
    32    26    29    1
    33    27    28   ar
    34    29    30    1
    35    32    33    3
