@<TRIPOS>MOLECULE
28226_ChemDiv_8016-5011
 14 15 0 0 0
SMALL
GASTEIGER
Energy = 0

@<TRIPOS>ATOM
      1 C           0.8540   -0.2500    0.0000 C.3     1  LIG1        0.3067
      2 O           0.0000    0.2540    0.0000 O.3     1  LIG1       -0.4611
      3 C          -0.8670   -0.2500    0.0000 C.ar    1  LIG1        0.1730
      4 C          -0.8670   -1.2500    0.0000 C.ar    1  LIG1        0.1724
      5 O           0.0000   -1.7500    0.0000 O.3     1  LIG1       -0.4679
      6 C           0.8540   -1.2500    0.0000 C.3     1  LIG1        0.2605
      7 C          -1.7330   -1.7500    0.0000 C.ar    1  LIG1        0.0400
      8 C          -2.5960   -1.2500    0.0000 C.ar    1  LIG1        0.0033
      9 C          -2.5960   -0.2500    0.0000 C.ar    1  LIG1        0.0033
     10 C          -1.7330    0.2460    0.0000 C.ar    1  LIG1        0.0401
     11 C           1.7290    0.2540    0.0000 C.2     1  LIG1        0.3616
     12 O           2.5920   -0.2500    0.0000 O.2     1  LIG1       -0.2459
     13 O           1.7290    1.2540    0.0000 O.3     1  LIG1       -0.4419
     14 C           0.8540    1.7540    0.0000 C.3     1  LIG1        0.2557
@<TRIPOS>BOND
     1     1     2    1
     2     1     6    1
     3     1    11    1
     4     2     3    1
     5     3     4   ar
     6     3    10   ar
     7     4     5    1
     8     4     7   ar
     9     5     6    1
    10     7     8   ar
    11     8     9   ar
    12     9    10   ar
    13    11    12    2
    14    11    13    1
    15    13    14    1
