@<TRIPOS>MOLECULE
28229_ChemDiv_3105-0097
 31 33 0 0 0
SMALL
GASTEIGER
Energy = 0

@<TRIPOS>ATOM
      1 C           1.9830   -0.5460    0.0000 C.ar    1  LIG1        0.1056
      2 C           2.6750   -1.2710    0.0000 C.ar    1  LIG1        0.0846
      3 S           2.1960   -2.1420    0.0000 S.2     1  LIG1        0.0205
      4 N           1.2290   -1.9330    0.0000 N.ar    1  LIG1       -0.2017
      5 C           1.1130   -0.9670    0.0000 C.ar    1  LIG1        0.1255
      6 S           0.1920   -0.5040    0.0000 S.3     1  LIG1       -0.0837
      7 C          -0.6750   -1.0080    0.0000 C.3     1  LIG1        0.1505
      8 C          -1.5380   -0.5460    0.0000 C.2     1  LIG1        0.2570
      9 N          -2.3960   -1.0460    0.0000 N.am    1  LIG1       -0.1785
     10 C          -3.2830   -0.5460    0.0000 C.ar    1  LIG1        0.0734
     11 C          -3.2830    0.4750    0.0000 C.ar    1  LIG1        0.0163
     12 C          -4.1500    0.9580    0.0000 C.ar    1  LIG1       -0.0029
     13 C          -5.0500    0.4330    0.0000 C.ar    1  LIG1       -0.0218
     14 C          -5.0210   -0.5460    0.0000 C.ar    1  LIG1       -0.0029
     15 C          -4.1250   -1.0460    0.0000 C.ar    1  LIG1        0.0163
     16 C          -5.9670    0.8960    0.0000 C.3     1  LIG1        0.0310
     17 O          -1.5380    0.4750    0.0000 O.2     1  LIG1       -0.2720
     18 S           3.6380   -1.0460    0.0000 S.3     1  LIG1       -0.0952
     19 C           4.3420   -1.7460    0.0000 C.3     1  LIG1        0.1495
     20 C           5.2630   -1.5130    0.0000 C.2     1  LIG1        0.2569
     21 N           5.5330   -0.5460    0.0000 N.am    1  LIG1       -0.1785
     22 C           4.8380    0.1580    0.0000 C.ar    1  LIG1        0.0734
     23 C           5.0790    1.1330    0.0000 C.ar    1  LIG1        0.0163
     24 C           4.3920    1.8250    0.0000 C.ar    1  LIG1       -0.0029
     25 C           3.4130    1.5540    0.0000 C.ar    1  LIG1       -0.0218
     26 C           3.1500    0.5790    0.0000 C.ar    1  LIG1       -0.0029
     27 C           3.8500   -0.1130    0.0000 C.ar    1  LIG1        0.0163
     28 C           2.6460    2.2170    0.0000 C.3     1  LIG1        0.0310
     29 O           5.9630   -2.2130    0.0000 O.2     1  LIG1       -0.2720
     30 C           2.1750    0.4750    0.0000 C.1     1  LIG1        0.1035
     31 N           2.3460    1.4420    0.0000 N.1     1  LIG1       -0.1907
@<TRIPOS>BOND
     1     1     2   ar
     2     1     5   ar
     3     1    30    1
     4     2     3   ar
     5     2    18    1
     6     3     4   ar
     7     4     5   ar
     8     5     6    1
     9     6     7    1
    10     7     8    1
    11     8     9   am
    12     8    17    2
    13     9    10    1
    14    10    11   ar
    15    10    15   ar
    16    11    12   ar
    17    12    13   ar
    18    13    14   ar
    19    13    16    1
    20    14    15   ar
    21    18    19    1
    22    19    20    1
    23    20    21   am
    24    20    29    2
    25    21    22    1
    26    22    23   ar
    27    22    27   ar
    28    23    24   ar
    29    24    25   ar
    30    25    26   ar
    31    25    28    1
    32    26    27   ar
    33    30    31    3
