@<TRIPOS>MOLECULE
28231_ChemDiv_3105-0127
 31 33 0 0 0
SMALL
GASTEIGER
Energy = 0

@<TRIPOS>ATOM
      1 C           1.5170   -0.9130    0.0000 C.ar    1  LIG1        0.1056
      2 C           2.2290   -1.5920    0.0000 C.ar    1  LIG1        0.0846
      3 S           1.7830   -2.4920    0.0000 S.2     1  LIG1        0.0205
      4 N           0.8000   -2.3500    0.0000 N.ar    1  LIG1       -0.2017
      5 C           0.6380   -1.3420    0.0000 C.ar    1  LIG1        0.1255
      6 S          -0.3000   -0.9130    0.0000 S.3     1  LIG1       -0.0837
      7 C          -1.1380   -1.4460    0.0000 C.3     1  LIG1        0.1505
      8 C          -2.0130   -1.0210    0.0000 C.2     1  LIG1        0.2570
      9 N          -2.8630   -1.5920    0.0000 N.am    1  LIG1       -0.1785
     10 C          -3.7580   -1.1250    0.0000 C.ar    1  LIG1        0.0731
     11 C          -3.8080   -0.1630    0.0000 C.ar    1  LIG1        0.0123
     12 C          -4.7040    0.3170    0.0000 C.ar    1  LIG1       -0.0206
     13 C          -5.5630   -0.2670    0.0000 C.ar    1  LIG1       -0.0042
     14 C          -5.4790   -1.2710    0.0000 C.ar    1  LIG1        0.0010
     15 C          -4.6000   -1.6960    0.0000 C.ar    1  LIG1        0.0166
     16 C          -4.7210    1.3040    0.0000 C.3     1  LIG1        0.0311
     17 O          -2.0880   -0.0170    0.0000 O.2     1  LIG1       -0.2720
     18 S           3.1920   -1.3420    0.0000 S.3     1  LIG1       -0.0952
     19 C           3.8750   -2.0630    0.0000 C.3     1  LIG1        0.1495
     20 C           4.8330   -1.7670    0.0000 C.2     1  LIG1        0.2569
     21 N           5.1000   -0.8420    0.0000 N.am    1  LIG1       -0.1785
     22 C           4.4080   -0.1250    0.0000 C.ar    1  LIG1        0.0731
     23 C           4.6710    0.8500    0.0000 C.ar    1  LIG1        0.0123
     24 C           3.9540    1.5330    0.0000 C.ar    1  LIG1       -0.0206
     25 C           3.0000    1.3040    0.0000 C.ar    1  LIG1       -0.0042
     26 C           2.7330    0.3420    0.0000 C.ar    1  LIG1        0.0010
     27 C           3.4290   -0.3750    0.0000 C.ar    1  LIG1        0.0166
     28 C           4.1880    2.4960    0.0000 C.3     1  LIG1        0.0311
     29 O           5.5580   -2.4920    0.0000 O.2     1  LIG1       -0.2720
     30 C           1.6630    0.0880    0.0000 C.1     1  LIG1        0.1035
     31 N           1.8000    1.0920    0.0000 N.1     1  LIG1       -0.1907
@<TRIPOS>BOND
     1     1     2   ar
     2     1     5   ar
     3     1    30    1
     4     2     3   ar
     5     2    18    1
     6     3     4   ar
     7     4     5   ar
     8     5     6    1
     9     6     7    1
    10     7     8    1
    11     8     9   am
    12     8    17    2
    13     9    10    1
    14    10    11   ar
    15    10    15   ar
    16    11    12   ar
    17    12    13   ar
    18    12    16    1
    19    13    14   ar
    20    14    15   ar
    21    18    19    1
    22    19    20    1
    23    20    21   am
    24    20    29    2
    25    21    22    1
    26    22    23   ar
    27    22    27   ar
    28    23    24   ar
    29    24    25   ar
    30    24    28    1
    31    25    26   ar
    32    26    27   ar
    33    30    31    3
