@<TRIPOS>MOLECULE
28239_ChemDiv_7218-1625
 15 15 0 0 0
SMALL
GASTEIGER
Energy = 0

@<TRIPOS>ATOM
      1 C           1.6670   -0.0210    0.0000 C.ar    1  LIG1        0.1397
      2 C           1.6670   -0.9630    0.0000 C.ar    1  LIG1        0.0870
      3 S           2.4710   -1.4250    0.0000 S.2     1  LIG1        0.0234
      4 N           3.2830   -0.9630    0.0000 N.ar    1  LIG1       -0.1689
      5 C           3.2830   -0.0210    0.0000 C.ar    1  LIG1        0.2962
      6 O           4.0170    0.7040    0.0000 O.3     1  LIG1       -0.2639
      7 S           0.8500   -1.4250    0.0000 S.3     1  LIG1       -0.1050
      8 C           0.0460   -0.9630    0.0000 C.3     1  LIG1        0.0627
      9 C          -0.7750   -1.4250    0.0000 C.3     1  LIG1        0.0120
     10 C          -1.5830   -0.9580    0.0000 C.3     1  LIG1        0.0009
     11 C          -2.3960   -1.4250    0.0000 C.3     1  LIG1        0.0000
     12 C          -3.2130   -0.9580    0.0000 C.3     1  LIG1        0.0000
     13 C          -4.0210   -1.4250    0.0000 C.3     1  LIG1        0.0000
     14 C           0.9420    0.6960    0.0000 C.1     1  LIG1        0.1064
     15 N           0.2170    1.4290    0.0000 N.1     1  LIG1       -0.1906
@<TRIPOS>BOND
     1     1     2   ar
     2     1     5   ar
     3     1    14    1
     4     2     3   ar
     5     2     7    1
     6     3     4   ar
     7     4     5   ar
     8     5     6    1
     9     7     8    1
    10     8     9    1
    11     9    10    1
    12    10    11    1
    13    11    12    1
    14    12    13    1
    15    14    15    3
