@<TRIPOS>MOLECULE
28234_ChemDiv_3601-0178
 26 29 0 0 0
SMALL
GASTEIGER
Energy = 0

@<TRIPOS>ATOM
      1 C          -2.4380    0.7290    0.0000 C.ar    1  LIG1        0.1700
      2 C          -2.4380   -0.2460    0.0000 C.ar    1  LIG1        0.1531
      3 C          -3.3000   -0.7420    0.0000 C.ar    1  LIG1        0.2832
      4 N          -4.1380   -0.2460    0.0000 N.ar    1  LIG1       -0.2454
      5 C          -4.1380    0.7290    0.0000 C.ar    1  LIG1        0.3350
      6 N          -3.3000    1.2290    0.0000 N.ar    1  LIG1       -0.2628
      7 C          -3.3000    2.2040    0.0000 C.3     1  LIG1        0.1366
      8 O          -4.9830    1.2290    0.0000 O.2     1  LIG1       -0.2461
      9 C          -4.9830   -0.7420    0.0000 C.3     1  LIG1        0.1383
     10 O          -3.3000   -1.7000    0.0000 O.2     1  LIG1       -0.2652
     11 N          -1.5920   -0.7420    0.0000 N.ar    1  LIG1       -0.2995
     12 C          -0.7460   -0.2460    0.0000 C.ar    1  LIG1        0.1732
     13 N          -0.7460    0.7290    0.0000 N.ar    1  LIG1       -0.2035
     14 S           0.1000   -0.7420    0.0000 S.3     1  LIG1       -0.0724
     15 C           0.9420   -0.2460    0.0000 C.3     1  LIG1        0.0922
     16 C           1.7920   -0.7420    0.0000 C.ar    1  LIG1        0.0029
     17 C           1.7920   -1.7000    0.0000 C.ar    1  LIG1        0.0578
     18 C           2.6330   -2.1880    0.0000 C.ar    1  LIG1        0.0513
     19 C           3.4790   -1.7000    0.0000 C.ar    1  LIG1        0.1772
     20 C           3.4790   -0.7420    0.0000 C.ar    1  LIG1        0.1762
     21 C           2.6330   -0.2460    0.0000 C.ar    1  LIG1        0.0376
     22 O           4.4080   -0.4420    0.0000 O.3     1  LIG1       -0.4346
     23 C           4.9790   -1.2130    0.0000 C.3     1  LIG1        0.4294
     24 O           4.4250   -2.0040    0.0000 O.3     1  LIG1       -0.4346
     25 CL          0.9420   -2.2000    0.0000 Cl      1  LIG1       -0.0824
     26 C          -1.5920   -1.7000    0.0000 C.3     1  LIG1        0.1326
@<TRIPOS>BOND
     1     1     2   ar
     2     1     6   ar
     3     1    13   ar
     4     2     3   ar
     5     2    11   ar
     6     3     4   ar
     7     3    10    2
     8     4     5   ar
     9     4     9    1
    10     5     6   ar
    11     5     8    2
    12     6     7    1
    13    11    12   ar
    14    11    26    1
    15    12    13   ar
    16    12    14    1
    17    14    15    1
    18    15    16    1
    19    16    17   ar
    20    16    21   ar
    21    17    18   ar
    22    17    25    1
    23    18    19   ar
    24    19    20   ar
    25    19    24    1
    26    20    21   ar
    27    20    22    1
    28    22    23    1
    29    23    24    1
