@<TRIPOS>MOLECULE
28233_ChemDiv_3419-0124
 27 29 0 0 0
SMALL
GASTEIGER
Energy = 0

@<TRIPOS>ATOM
      1 C           0.5000   -0.0040    0.0000 C.ar    1  LIG1        0.1056
      2 C           1.2250   -0.7130    0.0000 C.ar    1  LIG1        0.0846
      3 S           0.7790   -1.6000    0.0000 S.2     1  LIG1        0.0205
      4 N          -0.2080   -1.4920    0.0000 N.ar    1  LIG1       -0.2017
      5 C          -0.3710   -0.5000    0.0000 C.ar    1  LIG1        0.1255
      6 S          -1.2210    0.0330    0.0000 S.3     1  LIG1       -0.0838
      7 C          -2.0960   -0.4580    0.0000 C.3     1  LIG1        0.1486
      8 C          -2.9460    0.0750    0.0000 C.2     1  LIG1        0.2372
      9 N          -3.8380   -0.4290    0.0000 N.am    1  LIG1       -0.2737
     10 C          -3.8380   -1.4170    0.0000 C.3     1  LIG1        0.1255
     11 C          -4.7130   -1.9170    0.0000 C.3     1  LIG1        0.1636
     12 O          -5.5920   -1.4170    0.0000 O.3     1  LIG1       -0.3501
     13 C          -5.5920   -0.4290    0.0000 C.3     1  LIG1        0.1636
     14 C          -4.7130    0.0750    0.0000 C.3     1  LIG1        0.1255
     15 O          -2.9250    1.0630    0.0000 O.2     1  LIG1       -0.2739
     16 S           2.2130   -0.5670    0.0000 S.3     1  LIG1       -0.0953
     17 C           2.8540   -1.3380    0.0000 C.3     1  LIG1        0.1476
     18 C           3.8460   -1.2040    0.0000 C.2     1  LIG1        0.2371
     19 N           4.2210   -0.2880    0.0000 N.am    1  LIG1       -0.2737
     20 C           3.6130    0.5000    0.0000 C.3     1  LIG1        0.1255
     21 C           3.9830    1.4170    0.0000 C.3     1  LIG1        0.1636
     22 O           4.9670    1.5540    0.0000 O.3     1  LIG1       -0.3501
     23 C           5.5880    0.8170    0.0000 C.3     1  LIG1        0.1636
     24 C           5.2170   -0.1420    0.0000 C.3     1  LIG1        0.1255
     25 O           4.4630   -1.9750    0.0000 O.2     1  LIG1       -0.2739
     26 C           0.6420    0.9920    0.0000 C.1     1  LIG1        0.1035
     27 N           0.7580    1.9790    0.0000 N.1     1  LIG1       -0.1907
@<TRIPOS>BOND
     1     1     2   ar
     2     1     5   ar
     3     1    26    1
     4     2     3   ar
     5     2    16    1
     6     3     4   ar
     7     4     5   ar
     8     5     6    1
     9     6     7    1
    10     7     8    1
    11     8     9   am
    12     8    15    2
    13     9    10    1
    14     9    14    1
    15    10    11    1
    16    11    12    1
    17    12    13    1
    18    13    14    1
    19    16    17    1
    20    17    18    1
    21    18    19   am
    22    18    25    2
    23    19    20    1
    24    19    24    1
    25    20    21    1
    26    21    22    1
    27    22    23    1
    28    23    24    1
    29    26    27    3
