@<TRIPOS>MOLECULE
28236_ChemDiv_3601-0233
 30 33 0 0 0
SMALL
GASTEIGER
Energy = 0

@<TRIPOS>ATOM
      1 C          -1.1670    1.4750    0.0000 C.ar    1  LIG1        0.1700
      2 C          -1.1670    0.4960    0.0000 C.ar    1  LIG1        0.1533
      3 N          -0.3210   -0.0040    0.0000 N.ar    1  LIG1       -0.2973
      4 C           0.5290    0.4960    0.0000 C.ar    1  LIG1        0.1734
      5 N           0.5290    1.4750    0.0000 N.ar    1  LIG1       -0.2035
      6 S           1.3750   -0.0040    0.0000 S.3     1  LIG1       -0.0725
      7 C           2.2210    0.4960    0.0000 C.3     1  LIG1        0.0910
      8 C           2.2210    1.4750    0.0000 C.2     1  LIG1        0.0605
      9 O           1.3750    1.9500    0.0000 O.co2   1  LIG1       -0.5483
     10 O           3.0670    1.9500    0.0000 O.co2   1  LIG1       -0.5483
     11 C           3.0670   -0.0040    0.0000 C.3     1  LIG1        0.0181
     12 C          -0.3210   -0.9710    0.0000 C.3     1  LIG1        0.1358
     13 C           0.5290   -1.4580    0.0000 C.ar    1  LIG1        0.0142
     14 C           0.5290   -2.4540    0.0000 C.ar    1  LIG1        0.0587
     15 C           1.3750   -2.9380    0.0000 C.ar    1  LIG1        0.0513
     16 C           2.2210   -2.4380    0.0000 C.ar    1  LIG1        0.1772
     17 C           2.2210   -1.4580    0.0000 C.ar    1  LIG1        0.1762
     18 C           1.3750   -0.9710    0.0000 C.ar    1  LIG1        0.0386
     19 O           3.1380   -1.1670    0.0000 O.3     1  LIG1       -0.4346
     20 C           3.7210   -1.9580    0.0000 C.3     1  LIG1        0.4294
     21 O           3.1380   -2.7420    0.0000 O.3     1  LIG1       -0.4346
     22 CL         -0.3210   -2.9380    0.0000 Cl      1  LIG1       -0.0824
     23 C          -2.0290   -0.0040    0.0000 C.ar    1  LIG1        0.2832
     24 N          -2.8630    0.4960    0.0000 N.ar    1  LIG1       -0.2454
     25 C          -2.8630    1.4750    0.0000 C.ar    1  LIG1        0.3350
     26 N          -2.0290    1.9630    0.0000 N.ar    1  LIG1       -0.2628
     27 C          -2.0290    2.9420    0.0000 C.3     1  LIG1        0.1366
     28 O          -3.7250    1.9630    0.0000 O.2     1  LIG1       -0.2461
     29 C          -3.7080   -0.0040    0.0000 C.3     1  LIG1        0.1383
     30 O          -2.0130   -0.9710    0.0000 O.2     1  LIG1       -0.2652
@<TRIPOS>BOND
     1     1     2   ar
     2     1     5   ar
     3     1    26   ar
     4     2     3   ar
     5     2    23   ar
     6     3     4   ar
     7     3    12    1
     8     4     5   ar
     9     4     6    1
    10     6     7    1
    11     7     8    1
    12     7    11    1
    13     8     9   ar
    14     8    10   ar
    15    12    13    1
    16    13    14   ar
    17    13    18   ar
    18    14    15   ar
    19    14    22    1
    20    15    16   ar
    21    16    17   ar
    22    16    21    1
    23    17    18   ar
    24    17    19    1
    25    19    20    1
    26    20    21    1
    27    23    24   ar
    28    23    30    2
    29    24    25   ar
    30    24    29    1
    31    25    26   ar
    32    25    28    2
    33    26    27    1
