@<TRIPOS>MOLECULE
28235_ChemDiv_3524-0047
 25 25 0 0 0
SMALL
GASTEIGER
Energy = 0

@<TRIPOS>ATOM
      1 C           0.5880   -0.1080    0.0000 C.ar    1  LIG1        0.1056
      2 C           1.2130   -0.8290    0.0000 C.ar    1  LIG1        0.0846
      3 S           0.7040   -1.6960    0.0000 S.2     1  LIG1        0.0205
      4 N          -0.2420   -1.4830    0.0000 N.ar    1  LIG1       -0.2017
      5 C          -0.3420   -0.4880    0.0000 C.ar    1  LIG1        0.1255
      6 S          -1.2250   -0.0210    0.0000 S.3     1  LIG1       -0.0838
      7 C          -2.1210   -0.5330    0.0000 C.3     1  LIG1        0.1486
      8 C          -2.9790   -0.0210    0.0000 C.2     1  LIG1        0.2370
      9 N          -3.8420   -0.5330    0.0000 N.am    1  LIG1       -0.2788
     10 C          -4.7080   -0.0210    0.0000 C.3     1  LIG1        0.0935
     11 C          -5.5670   -0.5330    0.0000 C.3     1  LIG1        0.0233
     12 C          -3.8130   -1.5290    0.0000 C.3     1  LIG1        0.0935
     13 C          -2.9420   -2.0420    0.0000 C.3     1  LIG1        0.0233
     14 O          -3.0040    0.9710    0.0000 O.2     1  LIG1       -0.2739
     15 S           2.2250   -0.8000    0.0000 S.3     1  LIG1       -0.0953
     16 C           2.6920    0.1130    0.0000 C.3     1  LIG1        0.1476
     17 C           3.6630    0.1920    0.0000 C.2     1  LIG1        0.2370
     18 N           4.1250    1.0540    0.0000 N.am    1  LIG1       -0.2788
     19 C           3.5460    1.8830    0.0000 C.3     1  LIG1        0.0935
     20 C           2.5460    1.8330    0.0000 C.3     1  LIG1        0.0233
     21 C           5.1330    1.1420    0.0000 C.3     1  LIG1        0.0935
     22 C           5.5630    2.0460    0.0000 C.3     1  LIG1        0.0233
     23 O           4.2330   -0.6210    0.0000 O.2     1  LIG1       -0.2739
     24 C           0.7920    0.8880    0.0000 C.1     1  LIG1        0.1035
     25 N           0.9920    1.8830    0.0000 N.1     1  LIG1       -0.1907
@<TRIPOS>BOND
     1     1     2   ar
     2     1     5   ar
     3     1    24    1
     4     2     3   ar
     5     2    15    1
     6     3     4   ar
     7     4     5   ar
     8     5     6    1
     9     6     7    1
    10     7     8    1
    11     8     9   am
    12     8    14    2
    13     9    10    1
    14     9    12    1
    15    10    11    1
    16    12    13    1
    17    15    16    1
    18    16    17    1
    19    17    18   am
    20    17    23    2
    21    18    19    1
    22    18    21    1
    23    19    20    1
    24    21    22    1
    25    24    25    3
