@<TRIPOS>MOLECULE
28249_ChemDiv_2548-0896
 22 23 0 0 0
SMALL
GASTEIGER
Energy = 0

@<TRIPOS>ATOM
      1 S          -0.2330    0.7960    0.0000 S.O2    1  LIG1        0.0795
      2 N           0.7880    0.7960    0.0000 N.3     1  LIG1       -0.0451
      3 C           1.2830   -0.0710    0.0000 C.3     1  LIG1        0.2057
      4 C           1.7290    0.8080    0.0000 C.2     1  LIG1        0.0042
      5 C           2.7920    0.8080    0.0000 C.2     1  LIG1        0.0375
      6 C           3.2750   -0.0170    0.0000 C.2     1  LIG1        0.1948
      7 C           2.7920   -0.9080    0.0000 C.2     1  LIG1        0.0375
      8 C           1.8210   -0.9080    0.0000 C.2     1  LIG1        0.0042
      9 C           1.3880   -1.8000    0.0000 C.3     1  LIG1        0.0307
     10 O           4.2500   -0.0170    0.0000 O.2     1  LIG1       -0.2866
     11 C           1.1880    1.6250    0.0000 C.3     1  LIG1        0.0307
     12 O           0.7880   -0.9750    0.0000 O.3     1  LIG1       -0.3326
     13 C          -0.1540   -0.9750    0.0000 C.3     1  LIG1        0.1764
     14 C          -1.2420    0.7960    0.0000 C.ar    1  LIG1        0.1236
     15 C          -1.7420   -0.0790    0.0000 C.ar    1  LIG1        0.0196
     16 C          -2.7540   -0.0790    0.0000 C.ar    1  LIG1       -0.0029
     17 C          -3.2580    0.7960    0.0000 C.ar    1  LIG1       -0.0218
     18 C          -2.7540    1.6670    0.0000 C.ar    1  LIG1       -0.0029
     19 C          -1.7420    1.6670    0.0000 C.ar    1  LIG1        0.0196
     20 C          -4.2540    0.7960    0.0000 C.3     1  LIG1        0.0310
     21 O          -0.2330    1.8040    0.0000 O.2     1  LIG1       -0.1515
     22 O          -0.2330   -0.2130    0.0000 O.2     1  LIG1       -0.1515
@<TRIPOS>BOND
     1     1     2    1
     2     1    14    1
     3     1    21    2
     4     1    22    2
     5     2     3    1
     6     3     4    1
     7     3     8    1
     8     3    12    1
     9     4     5    2
    10     4    11    1
    11     5     6    1
    12     6     7    1
    13     6    10    2
    14     7     8    2
    15     8     9    1
    16    12    13    1
    17    14    15   ar
    18    14    19   ar
    19    15    16   ar
    20    16    17   ar
    21    17    18   ar
    22    17    20    1
    23    18    19   ar
