@<TRIPOS>MOLECULE
28246_ChemDiv_2650-7164
 20 23 0 0 0
SMALL
GASTEIGER
Energy = 0

@<TRIPOS>ATOM
      1 N           1.3750    1.9290    0.0000 N.ar    1  LIG1       -0.1087
      2 C           0.5130    2.4330    0.0000 C.ar    1  LIG1        0.2078
      3 N           0.6960    3.4170    0.0000 N.ar    1  LIG1       -0.1060
      4 N           1.6790    3.5710    0.0000 N.ar    1  LIG1       -0.0210
      5 N           2.0670    2.6080    0.0000 N.ar    1  LIG1       -0.0210
      6 C          -0.3540    1.9290    0.0000 C.ar    1  LIG1        0.0409
      7 C          -0.3540    0.9290    0.0000 C.ar    1  LIG1        0.0225
      8 C           0.5130    0.3920    0.0000 C.ar    1  LIG1        0.1030
      9 N           1.3750    0.9290    0.0000 N.ar    1  LIG1       -0.1452
     10 C           0.5130   -0.5750    0.0000 C.ar    1  LIG1        0.0194
     11 C           1.3750   -1.0670    0.0000 C.ar    1  LIG1        0.0012
     12 C           1.3750   -2.0580    0.0000 C.ar    1  LIG1       -0.0042
     13 C           0.5130   -2.5630    0.0000 C.ar    1  LIG1       -0.0218
     14 C          -0.3540   -2.0580    0.0000 C.ar    1  LIG1       -0.0042
     15 C          -0.3540   -1.0670    0.0000 C.ar    1  LIG1        0.0012
     16 C           0.5130   -3.5670    0.0000 C.3     1  LIG1        0.0310
     17 C          -1.2130    0.3920    0.0000 C.ar    1  LIG1        0.0017
     18 C          -2.0710    0.9290    0.0000 C.ar    1  LIG1        0.0001
     19 C          -2.0710    1.9290    0.0000 C.ar    1  LIG1        0.0001
     20 C          -1.2130    2.4330    0.0000 C.ar    1  LIG1        0.0032
@<TRIPOS>BOND
     1     1     2   ar
     2     1     5   ar
     3     1     9   ar
     4     2     3   ar
     5     2     6   ar
     6     3     4   ar
     7     4     5   ar
     8     6     7   ar
     9     6    20   ar
    10     7     8   ar
    11     7    17   ar
    12     8     9   ar
    13     8    10    1
    14    10    11   ar
    15    10    15   ar
    16    11    12   ar
    17    12    13   ar
    18    13    14   ar
    19    13    16    1
    20    14    15   ar
    21    17    18   ar
    22    18    19   ar
    23    19    20   ar
