@<TRIPOS>MOLECULE
28240_ChemDiv_3736-0426
 22 24 0 0 0
SMALL
GASTEIGER
Energy = 0

@<TRIPOS>ATOM
      1 C          -0.8580    1.7080    0.0000 C.ar    1  LIG1        0.1696
      2 C          -0.6920    0.6580    0.0000 C.ar    1  LIG1        0.1530
      3 C          -1.4460    0.0380    0.0000 C.ar    1  LIG1        0.2832
      4 N          -2.4330    0.4170    0.0000 N.ar    1  LIG1       -0.2454
      5 C          -2.5960    1.4540    0.0000 C.ar    1  LIG1        0.3350
      6 N          -1.8460    2.0960    0.0000 N.ar    1  LIG1       -0.2628
      7 C          -2.0170    3.0790    0.0000 C.3     1  LIG1        0.1366
      8 O          -3.5040    1.8080    0.0000 O.2     1  LIG1       -0.2461
      9 C          -3.2630   -0.2500    0.0000 C.3     1  LIG1        0.1383
     10 O          -1.3000   -0.9040    0.0000 O.2     1  LIG1       -0.2652
     11 N           0.1790    0.4960    0.0000 N.ar    1  LIG1       -0.2998
     12 C           0.6540    1.3830    0.0000 C.ar    1  LIG1        0.1804
     13 N          -0.0710    2.1330    0.0000 N.ar    1  LIG1       -0.2063
     14 C           0.9750   -0.1080    0.0000 C.3     1  LIG1        0.1351
     15 C           0.8710   -1.0960    0.0000 C.ar    1  LIG1        0.0101
     16 C           1.6830   -1.6830    0.0000 C.ar    1  LIG1        0.0663
     17 C           2.5920   -1.2790    0.0000 C.1     1  LIG1        0.1002
     18 N           3.5000   -0.8710    0.0000 N.1     1  LIG1       -0.1908
     19 C           1.5630   -2.6710    0.0000 C.ar    1  LIG1        0.0100
     20 C           0.6540   -3.0750    0.0000 C.ar    1  LIG1        0.0007
     21 C          -0.1580   -2.4790    0.0000 C.ar    1  LIG1       -0.0002
     22 C          -0.0540   -1.4880    0.0000 C.ar    1  LIG1       -0.0017
@<TRIPOS>BOND
     1     1     2   ar
     2     1     6   ar
     3     1    13   ar
     4     2     3   ar
     5     2    11   ar
     6     3     4   ar
     7     3    10    2
     8     4     5   ar
     9     4     9    1
    10     5     6   ar
    11     5     8    2
    12     6     7    1
    13    11    12   ar
    14    11    14    1
    15    12    13   ar
    16    14    15    1
    17    15    16   ar
    18    15    22   ar
    19    16    17    1
    20    16    19   ar
    21    17    18    3
    22    19    20   ar
    23    20    21   ar
    24    21    22   ar
