@<TRIPOS>MOLECULE
28244_ChemDiv_2639-0119
 22 25 0 0 0
SMALL
GASTEIGER
Energy = 0

@<TRIPOS>ATOM
      1 N           0.4380    0.0130    0.0000 N.ar    1  LIG1       -0.2951
      2 C           1.3000    0.5210    0.0000 C.ar    1  LIG1        0.2051
      3 C           1.3000    1.5210    0.0000 C.ar    1  LIG1        0.0719
      4 C           0.4380    2.0130    0.0000 C.ar    1  LIG1        0.1975
      5 C          -0.4420    1.5210    0.0000 C.ar    1  LIG1        0.0547
      6 C          -0.4420    0.5210    0.0000 C.ar    1  LIG1        0.0665
      7 C          -1.3040    0.0130    0.0000 C.ar    1  LIG1        0.0288
      8 C          -2.1750    0.5210    0.0000 C.ar    1  LIG1        0.0591
      9 C          -2.1750    1.5210    0.0000 C.ar    1  LIG1        0.0116
     10 C          -1.3040    2.0130    0.0000 C.ar    1  LIG1        0.0055
     11 CL         -3.0330    0.0130    0.0000 Cl      1  LIG1       -0.0822
     12 O           0.4380    3.0080    0.0000 O.2     1  LIG1       -0.2867
     13 C           2.2500    1.8210    0.0000 C.3     1  LIG1        0.0817
     14 C           2.8210    1.0290    0.0000 C.3     1  LIG1        0.2120
     15 O           2.2500    0.2130    0.0000 O.3     1  LIG1       -0.4611
     16 C           0.4380   -0.9880    0.0000 C.3     1  LIG1        0.1356
     17 C           1.3000   -1.4960    0.0000 C.ar    1  LIG1        0.0005
     18 C           2.1670   -0.9880    0.0000 C.ar    1  LIG1       -0.0024
     19 C           3.0290   -1.4960    0.0000 C.ar    1  LIG1       -0.0003
     20 C           3.0290   -2.4960    0.0000 C.ar    1  LIG1       -0.0000
     21 C           2.1670   -3.0040    0.0000 C.ar    1  LIG1       -0.0003
     22 C           1.3000   -2.4960    0.0000 C.ar    1  LIG1       -0.0024
@<TRIPOS>BOND
     1     1     2   ar
     2     1     6   ar
     3     1    16    1
     4     2     3   ar
     5     2    15    1
     6     3     4   ar
     7     3    13    1
     8     4     5   ar
     9     4    12    2
    10     5     6   ar
    11     5    10   ar
    12     6     7   ar
    13     7     8   ar
    14     8     9   ar
    15     8    11    1
    16     9    10   ar
    17    13    14    1
    18    14    15    1
    19    16    17    1
    20    17    18   ar
    21    17    22   ar
    22    18    19   ar
    23    19    20   ar
    24    20    21   ar
    25    21    22   ar
