@<TRIPOS>MOLECULE
28250_ChemDiv_2683-0097
 33 37 0 0 0
SMALL
GASTEIGER
Energy = 0

@<TRIPOS>ATOM
      1 C          -2.6580   -0.4420    0.0000 C.ar    1  LIG1        0.1656
      2 C          -3.1460    0.4130    0.0000 C.ar    1  LIG1        0.1383
      3 C          -4.1420    0.2130    0.0000 C.ar    1  LIG1        0.0382
      4 C          -4.2290   -0.7540    0.0000 C.ar    1  LIG1        0.0626
      5 N          -3.3210   -1.1750    0.0000 N.ar    1  LIG1       -0.3114
      6 C          -3.1460   -2.2000    0.0000 C.3     1  LIG1        0.1076
      7 C          -2.1960   -2.5460    0.0000 C.3     1  LIG1        0.0265
      8 C          -5.1290   -1.1920    0.0000 C.ar    1  LIG1        0.0173
      9 C          -5.9580   -0.6290    0.0000 C.ar    1  LIG1        0.0015
     10 C          -5.8630    0.3540    0.0000 C.ar    1  LIG1        0.0001
     11 C          -4.9670    0.7710    0.0000 C.ar    1  LIG1        0.0031
     12 N          -2.6580    1.2790    0.0000 N.ar    1  LIG1       -0.1429
     13 N          -1.6420    1.2790    0.0000 N.ar    1  LIG1       -0.1217
     14 C          -1.1540    0.4130    0.0000 C.ar    1  LIG1        0.2123
     15 N          -1.6420   -0.4420    0.0000 N.ar    1  LIG1       -0.2008
     16 S          -0.1380    0.4130    0.0000 S.3     1  LIG1       -0.0641
     17 C           0.3670   -0.4420    0.0000 C.3     1  LIG1        0.1520
     18 C           1.3790   -0.4420    0.0000 C.2     1  LIG1        0.2575
     19 N           1.8830   -1.3080    0.0000 N.am    1  LIG1       -0.1717
     20 C           2.8830   -1.3080    0.0000 C.ar    1  LIG1        0.1084
     21 C           3.5630   -0.5580    0.0000 C.ar    1  LIG1        0.0933
     22 C           4.4540   -0.9750    0.0000 C.ar    1  LIG1       -0.0121
     23 C           4.3540   -1.9580    0.0000 C.ar    1  LIG1        0.0048
     24 S           3.3880   -2.1750    0.0000 S.2     1  LIG1       -0.0749
     25 C           5.2960   -2.3630    0.0000 C.3     1  LIG1        0.0330
     26 C           5.9540   -1.6130    0.0000 C.3     1  LIG1        0.0099
     27 C           5.4130   -0.7290    0.0000 C.3     1  LIG1        0.0272
     28 C           3.3880    0.4250    0.0000 C.2     1  LIG1        0.3427
     29 O           2.4290    0.7710    0.0000 O.2     1  LIG1       -0.2448
     30 O           4.1790    0.9920    0.0000 O.3     1  LIG1       -0.4454
     31 C           4.0830    1.9880    0.0000 C.3     1  LIG1        0.2089
     32 C           4.8750    2.5500    0.0000 C.3     1  LIG1        0.0513
     33 O           1.8830    0.4130    0.0000 O.2     1  LIG1       -0.2720
@<TRIPOS>BOND
     1     1     2   ar
     2     1     5   ar
     3     1    15   ar
     4     2     3   ar
     5     2    12   ar
     6     3     4   ar
     7     3    11   ar
     8     4     5   ar
     9     4     8   ar
    10     5     6    1
    11     6     7    1
    12     8     9   ar
    13     9    10   ar
    14    10    11   ar
    15    12    13   ar
    16    13    14   ar
    17    14    15   ar
    18    14    16    1
    19    16    17    1
    20    17    18    1
    21    18    19   am
    22    18    33    2
    23    19    20    1
    24    20    21   ar
    25    20    24   ar
    26    21    22   ar
    27    21    28    1
    28    22    23   ar
    29    22    27    1
    30    23    24   ar
    31    23    25    1
    32    25    26    1
    33    26    27    1
    34    28    29    2
    35    28    30    1
    36    30    31    1
    37    31    32    1
