@<TRIPOS>MOLECULE
28256_ChemDiv_3929-0013
 27 29 0 0 0
SMALL
GASTEIGER
Energy = 0

@<TRIPOS>ATOM
      1 N          -1.2830   -0.4330    0.0000 N.am    1  LIG1        0.1626
      2 C          -2.2960   -0.4330    0.0000 C.2     1  LIG1        0.4865
      3 C          -2.7750    0.4380    0.0000 C.3     1  LIG1        0.3084
      4 C          -2.2960    1.3130    0.0000 C.2     1  LIG1        0.2853
      5 N          -1.2830    1.3130    0.0000 N.am    1  LIG1       -0.1053
      6 C          -0.7630    0.4380    0.0000 C.2     1  LIG1        0.3992
      7 S           0.2460    0.4380    0.0000 S.3     1  LIG1       -0.0118
      8 C           0.7290   -0.4330    0.0000 C.3     1  LIG1        0.1564
      9 C           1.7380   -0.4330    0.0000 C.2     1  LIG1        0.2572
     10 N           2.2210   -1.2920    0.0000 N.am    1  LIG1       -0.1785
     11 C           3.2330   -1.2920    0.0000 C.ar    1  LIG1        0.0734
     12 C           3.7080   -0.4330    0.0000 C.ar    1  LIG1        0.0153
     13 C           4.7170   -0.4330    0.0000 C.ar    1  LIG1        0.0013
     14 C           5.2170   -1.2920    0.0000 C.ar    1  LIG1        0.0001
     15 C           4.7170   -2.1630    0.0000 C.ar    1  LIG1        0.0013
     16 C           3.7080   -2.1630    0.0000 C.ar    1  LIG1        0.0166
     17 C           5.2170    0.4330    0.0000 C.ar    1  LIG1        0.0000
     18 C           4.7250    1.2960    0.0000 C.ar    1  LIG1        0.0000
     19 C           3.7080    1.3130    0.0000 C.ar    1  LIG1        0.0000
     20 C           3.2130    0.4380    0.0000 C.ar    1  LIG1        0.0013
     21 O           2.2210    0.4380    0.0000 O.2     1  LIG1       -0.2720
     22 O          -2.8080    2.1670    0.0000 O.2     1  LIG1       -0.2702
     23 N          -3.7750    0.4380    0.0000 N.am    1  LIG1       -0.1837
     24 C          -4.2790   -0.4170    0.0000 C.2     1  LIG1        0.2428
     25 O          -3.8830   -1.3710    0.0000 O.2     1  LIG1       -0.2733
     26 C          -5.2210   -0.3960    0.0000 C.3     1  LIG1        0.0965
     27 O          -2.8080   -1.2790    0.0000 O.2     1  LIG1       -0.2093
@<TRIPOS>BOND
     1     1     2   am
     2     1     6    2
     3     2     3    1
     4     2    27    2
     5     3     4    1
     6     3    23    1
     7     4     5   am
     8     4    22    2
     9     5     6    1
    10     6     7    1
    11     7     8    1
    12     8     9    1
    13     9    10   am
    14     9    21    2
    15    10    11    1
    16    11    12   ar
    17    11    16   ar
    18    12    13   ar
    19    12    20   ar
    20    13    14   ar
    21    13    17   ar
    22    14    15   ar
    23    15    16   ar
    24    17    18   ar
    25    18    19   ar
    26    19    20   ar
    27    23    24   am
    28    24    25    2
    29    24    26    1
