@<TRIPOS>MOLECULE
28252_ChemDiv_2692-0038
 22 23 0 0 0
SMALL
GASTEIGER
Energy = 0

@<TRIPOS>ATOM
      1 N          -0.7500    1.7330    0.0000 N.am    1  LIG1        0.1606
      2 C          -1.2670    0.8580    0.0000 C.2     1  LIG1        0.3990
      3 N          -2.2330    0.8580    0.0000 N.am    1  LIG1       -0.1068
      4 C          -2.7460    1.7330    0.0000 C.2     1  LIG1        0.2644
      5 C          -2.2330    2.5960    0.0000 C.3     1  LIG1        0.2139
      6 C          -1.2670    2.5960    0.0000 C.2     1  LIG1        0.4664
      7 O          -0.7500    3.4830    0.0000 O.2     1  LIG1       -0.2113
      8 C          -2.7460    3.4830    0.0000 C.3     1  LIG1        0.0240
      9 C          -2.2330    4.3500    0.0000 C.3     1  LIG1        0.0012
     10 O          -3.7380    1.7330    0.0000 O.2     1  LIG1       -0.2721
     11 S          -0.7500    0.0000    0.0000 S.3     1  LIG1       -0.0118
     12 C           0.2500    0.0000    0.0000 C.3     1  LIG1        0.1564
     13 C           0.7330   -0.9000    0.0000 C.2     1  LIG1        0.2585
     14 N           1.7330   -0.9000    0.0000 N.am    1  LIG1       -0.1596
     15 C           2.2170   -1.7500    0.0000 C.ar    1  LIG1        0.1545
     16 N           1.7330   -2.6080    0.0000 N.ar    1  LIG1       -0.2268
     17 C           2.2170   -3.4920    0.0000 C.ar    1  LIG1        0.1070
     18 C           3.2170   -3.4920    0.0000 C.ar    1  LIG1        0.0538
     19 BR          3.6790   -4.3500    0.0000 Br      1  LIG1       -0.0474
     20 C           3.7330   -2.6080    0.0000 C.ar    1  LIG1        0.0112
     21 C           3.2170   -1.7500    0.0000 C.ar    1  LIG1        0.0367
     22 O           0.2500   -1.7500    0.0000 O.2     1  LIG1       -0.2720
@<TRIPOS>BOND
     1     1     2    2
     2     1     6   am
     3     2     3    1
     4     2    11    1
     5     3     4   am
     6     4     5    1
     7     4    10    2
     8     5     6    1
     9     5     8    1
    10     6     7    2
    11     8     9    1
    12    11    12    1
    13    12    13    1
    14    13    14   am
    15    13    22    2
    16    14    15    1
    17    15    16   ar
    18    15    21   ar
    19    16    17   ar
    20    17    18   ar
    21    18    19    1
    22    18    20   ar
    23    20    21   ar
