@<TRIPOS>MOLECULE
28254_ChemDiv_3929-0006
 28 30 0 0 0
SMALL
GASTEIGER
Energy = 0

@<TRIPOS>ATOM
      1 N          -1.4920   -0.4330    0.0000 N.am    1  LIG1        0.1606
      2 C          -2.5040   -0.4330    0.0000 C.2     1  LIG1        0.4667
      3 C          -2.9790    0.4380    0.0000 C.3     1  LIG1        0.2182
      4 C          -2.5040    1.3080    0.0000 C.2     1  LIG1        0.2648
      5 N          -1.4920    1.3080    0.0000 N.am    1  LIG1       -0.1068
      6 C          -0.9710    0.4380    0.0000 C.2     1  LIG1        0.3990
      7 S           0.0380    0.4380    0.0000 S.3     1  LIG1       -0.0118
      8 C           0.5210   -0.4330    0.0000 C.3     1  LIG1        0.1564
      9 C           1.5290   -0.4330    0.0000 C.2     1  LIG1        0.2585
     10 N           2.0080   -1.2920    0.0000 N.am    1  LIG1       -0.1591
     11 C           3.0210   -1.2920    0.0000 C.ar    1  LIG1        0.1606
     12 N           3.5000   -2.1580    0.0000 N.ar    1  LIG1       -0.2263
     13 C           4.5040   -2.1580    0.0000 C.ar    1  LIG1        0.1070
     14 C           5.0040   -1.2920    0.0000 C.ar    1  LIG1        0.0543
     15 C           4.5040   -0.4330    0.0000 C.ar    1  LIG1        0.0178
     16 C           3.5000   -0.4330    0.0000 C.ar    1  LIG1        0.0684
     17 BR          2.9920    0.4170    0.0000 Br      1  LIG1       -0.0460
     18 BR          5.9960   -1.2920    0.0000 Br      1  LIG1       -0.0474
     19 O           2.0080    0.4380    0.0000 O.2     1  LIG1       -0.2720
     20 O          -3.0170    2.1630    0.0000 O.2     1  LIG1       -0.2721
     21 C          -3.9790    0.4380    0.0000 C.3     1  LIG1        0.0503
     22 C          -4.4920   -0.4330    0.0000 C.ar    1  LIG1       -0.0210
     23 C          -5.4830   -0.4330    0.0000 C.ar    1  LIG1       -0.0042
     24 C          -6.0000   -1.2920    0.0000 C.ar    1  LIG1       -0.0003
     25 C          -5.4830   -2.1580    0.0000 C.ar    1  LIG1       -0.0000
     26 C          -4.4920   -2.1580    0.0000 C.ar    1  LIG1       -0.0003
     27 C          -3.9790   -1.2920    0.0000 C.ar    1  LIG1       -0.0042
     28 O          -3.0170   -1.2750    0.0000 O.2     1  LIG1       -0.2113
@<TRIPOS>BOND
     1     1     2   am
     2     1     6    2
     3     2     3    1
     4     2    28    2
     5     3     4    1
     6     3    21    1
     7     4     5   am
     8     4    20    2
     9     5     6    1
    10     6     7    1
    11     7     8    1
    12     8     9    1
    13     9    10   am
    14     9    19    2
    15    10    11    1
    16    11    12   ar
    17    11    16   ar
    18    12    13   ar
    19    13    14   ar
    20    14    15   ar
    21    14    18    1
    22    15    16   ar
    23    16    17    1
    24    21    22    1
    25    22    23   ar
    26    22    27   ar
    27    23    24   ar
    28    24    25   ar
    29    25    26   ar
    30    26    27   ar
