@<TRIPOS>MOLECULE
28259_ChemDiv_7954-0926
 19 19 0 0 0
SMALL
GASTEIGER
Energy = 0

@<TRIPOS>ATOM
      1 C           0.1040   -0.1830    0.0000 C.ar    1  LIG1        0.1056
      2 C           0.7960   -0.9170    0.0000 C.ar    1  LIG1        0.0847
      3 S           0.3170   -1.7630    0.0000 S.2     1  LIG1        0.0205
      4 N          -0.6710   -1.6000    0.0000 N.ar    1  LIG1       -0.2017
      5 C          -0.7750   -0.6170    0.0000 C.ar    1  LIG1        0.1256
      6 S          -1.6960   -0.1380    0.0000 S.3     1  LIG1       -0.0817
      7 C          -2.5170   -0.6920    0.0000 C.3     1  LIG1        0.1728
      8 C          -3.4250   -0.2580    0.0000 C.2     1  LIG1        0.3286
      9 O          -3.4250    0.7460    0.0000 O.2     1  LIG1       -0.2491
     10 O          -4.2630   -0.7790    0.0000 O.3     1  LIG1       -0.4438
     11 C          -5.1250   -0.3170    0.0000 C.3     1  LIG1        0.2556
     12 S           1.7630   -0.6460    0.0000 S.3     1  LIG1       -0.0932
     13 C           2.4500   -1.3170    0.0000 C.3     1  LIG1        0.1720
     14 C           3.4170   -1.0500    0.0000 C.2     1  LIG1        0.3286
     15 O           3.6880   -0.0920    0.0000 O.2     1  LIG1       -0.2491
     16 O           4.0920   -1.7960    0.0000 O.3     1  LIG1       -0.4438
     17 C           5.1210   -1.4960    0.0000 C.3     1  LIG1        0.2556
     18 C           0.2580    0.8290    0.0000 C.1     1  LIG1        0.1035
     19 N           0.4170    1.8000    0.0000 N.1     1  LIG1       -0.1907
@<TRIPOS>BOND
     1     1     2   ar
     2     1     5   ar
     3     1    18    1
     4     2     3   ar
     5     2    12    1
     6     3     4   ar
     7     4     5   ar
     8     5     6    1
     9     6     7    1
    10     7     8    1
    11     8     9    2
    12     8    10    1
    13    10    11    1
    14    12    13    1
    15    13    14    1
    16    14    15    2
    17    14    16    1
    18    16    17    1
    19    18    19    3
