@<TRIPOS>MOLECULE
28258_ChemDiv_5339-0200
 24 27 0 0 0
SMALL
GASTEIGER
Energy = 0

@<TRIPOS>ATOM
      1 C          -0.8040   -1.9000    0.0000 C.ar    1  LIG1        0.1696
      2 C          -0.8040   -0.9040    0.0000 C.ar    1  LIG1        0.1530
      3 C          -1.6790   -0.4000    0.0000 C.ar    1  LIG1        0.2832
      4 N          -2.5460   -0.9040    0.0000 N.ar    1  LIG1       -0.2454
      5 C          -2.5460   -1.9170    0.0000 C.ar    1  LIG1        0.3350
      6 N          -1.6790   -2.4080    0.0000 N.ar    1  LIG1       -0.2628
      7 C          -1.6790   -3.4170    0.0000 C.3     1  LIG1        0.1366
      8 O          -3.4000   -2.4080    0.0000 O.2     1  LIG1       -0.2461
      9 C          -3.4000   -0.4040    0.0000 C.3     1  LIG1        0.1383
     10 O          -1.6790    0.5960    0.0000 O.2     1  LIG1       -0.2652
     11 N           0.1380   -0.5880    0.0000 N.ar    1  LIG1       -0.2998
     12 C           0.7290   -1.3920    0.0000 C.ar    1  LIG1        0.1804
     13 N           0.1540   -2.2210    0.0000 N.ar    1  LIG1       -0.2063
     14 C           0.4580    0.3540    0.0000 C.3     1  LIG1        0.1345
     15 C           1.4380    0.5710    0.0000 C.ar    1  LIG1        0.0004
     16 C           1.7330    1.5210    0.0000 C.ar    1  LIG1       -0.0021
     17 C           2.7130    1.7250    0.0000 C.ar    1  LIG1       -0.0002
     18 C           3.3960    0.9920    0.0000 C.ar    1  LIG1       -0.0000
     19 C           3.0750    0.0420    0.0000 C.ar    1  LIG1       -0.0003
     20 C           2.1080   -0.1630    0.0000 C.ar    1  LIG1       -0.0024
     21 C           3.0170    2.6880    0.0000 C.ar    1  LIG1       -0.0000
     22 C           2.3500    3.4210    0.0000 C.ar    1  LIG1       -0.0000
     23 C           1.3670    3.2040    0.0000 C.ar    1  LIG1       -0.0000
     24 C           1.0670    2.2670    0.0000 C.ar    1  LIG1       -0.0003
@<TRIPOS>BOND
     1     1     2   ar
     2     1     6   ar
     3     1    13   ar
     4     2     3   ar
     5     2    11   ar
     6     3     4   ar
     7     3    10    2
     8     4     5   ar
     9     4     9    1
    10     5     6   ar
    11     5     8    2
    12     6     7    1
    13    11    12   ar
    14    11    14    1
    15    12    13   ar
    16    14    15    1
    17    15    16   ar
    18    15    20   ar
    19    16    17   ar
    20    16    24   ar
    21    17    18   ar
    22    17    21   ar
    23    18    19   ar
    24    19    20   ar
    25    21    22   ar
    26    22    23   ar
    27    23    24   ar
