@<TRIPOS>MOLECULE
28257_ChemDiv_7218-1626
 13 13 0 0 0
SMALL
GASTEIGER
Energy = 0

@<TRIPOS>ATOM
      1 C           0.8460   -0.0210    0.0000 C.ar    1  LIG1        0.1397
      2 C           0.8460   -0.9540    0.0000 C.ar    1  LIG1        0.0870
      3 S           1.6460   -1.4130    0.0000 S.2     1  LIG1        0.0234
      4 N           2.4420   -0.9540    0.0000 N.ar    1  LIG1       -0.1689
      5 C           2.4420   -0.0210    0.0000 C.ar    1  LIG1        0.2962
      6 O           3.1750    0.7000    0.0000 O.3     1  LIG1       -0.2639
      7 S           0.0420   -1.4130    0.0000 S.3     1  LIG1       -0.1050
      8 C          -0.7630   -0.9540    0.0000 C.3     1  LIG1        0.0627
      9 C          -1.5670   -1.4130    0.0000 C.3     1  LIG1        0.0120
     10 C          -2.3790   -0.9500    0.0000 C.3     1  LIG1        0.0009
     11 C          -3.1790   -1.4130    0.0000 C.3     1  LIG1        0.0000
     12 C           0.1290    0.6880    0.0000 C.1     1  LIG1        0.1064
     13 N          -0.5880    1.4170    0.0000 N.1     1  LIG1       -0.1906
@<TRIPOS>BOND
     1     1     2   ar
     2     1     5   ar
     3     1    12    1
     4     2     3   ar
     5     2     7    1
     6     3     4   ar
     7     4     5   ar
     8     5     6    1
     9     7     8    1
    10     8     9    1
    11     9    10    1
    12    10    11    1
    13    12    13    3
