@<TRIPOS>MOLECULE
28269_ChemDiv_8006-4747
 29 31 0 0 0
SMALL
GASTEIGER
Energy = 0

@<TRIPOS>ATOM
      1 C           0.7290    0.4290    0.0000 C.ar    1  LIG1        0.1056
      2 C           0.7290   -0.3830    0.0000 C.ar    1  LIG1        0.0846
      3 S          -0.0710   -0.8670    0.0000 S.2     1  LIG1        0.0205
      4 N          -0.8920   -0.3830    0.0000 N.ar    1  LIG1       -0.2017
      5 C          -0.8920    0.4290    0.0000 C.ar    1  LIG1        0.1255
      6 S          -1.7750    0.9380    0.0000 S.3     1  LIG1       -0.0837
      7 C          -2.6250    0.4460    0.0000 C.3     1  LIG1        0.1505
      8 C          -3.4790    0.9710    0.0000 C.2     1  LIG1        0.2570
      9 N          -4.2920    0.4460    0.0000 N.am    1  LIG1       -0.1785
     10 C          -5.1250    0.9250    0.0000 C.ar    1  LIG1        0.0734
     11 C          -5.9880    0.4210    0.0000 C.ar    1  LIG1        0.0166
     12 C          -6.8540    0.9250    0.0000 C.ar    1  LIG1        0.0013
     13 C          -6.8540    1.9130    0.0000 C.ar    1  LIG1        0.0001
     14 C          -5.9880    2.3960    0.0000 C.ar    1  LIG1        0.0013
     15 C          -5.1250    1.9130    0.0000 C.ar    1  LIG1        0.0166
     16 O          -3.4790    1.9580    0.0000 O.2     1  LIG1       -0.2720
     17 S           1.5920   -0.8670    0.0000 S.3     1  LIG1       -0.0952
     18 C           2.4580   -0.4000    0.0000 C.3     1  LIG1        0.1495
     19 C           3.3380   -0.9080    0.0000 C.2     1  LIG1        0.2569
     20 N           4.2580   -0.4000    0.0000 N.am    1  LIG1       -0.1785
     21 C           5.1380   -0.9080    0.0000 C.ar    1  LIG1        0.0734
     22 C           5.9920   -0.3750    0.0000 C.ar    1  LIG1        0.0166
     23 C           6.8540   -0.9080    0.0000 C.ar    1  LIG1        0.0013
     24 C           6.8540   -1.8960    0.0000 C.ar    1  LIG1        0.0001
     25 C           5.9920   -2.3920    0.0000 C.ar    1  LIG1        0.0013
     26 C           5.1380   -1.8960    0.0000 C.ar    1  LIG1        0.0166
     27 O           3.3380   -1.8380    0.0000 O.2     1  LIG1       -0.2720
     28 C           1.6250    0.8960    0.0000 C.1     1  LIG1        0.1035
     29 N           2.5210    1.3630    0.0000 N.1     1  LIG1       -0.1907
@<TRIPOS>BOND
     1     1     2   ar
     2     1     5   ar
     3     1    28    1
     4     2     3   ar
     5     2    17    1
     6     3     4   ar
     7     4     5   ar
     8     5     6    1
     9     6     7    1
    10     7     8    1
    11     8     9   am
    12     8    16    2
    13     9    10    1
    14    10    11   ar
    15    10    15   ar
    16    11    12   ar
    17    12    13   ar
    18    13    14   ar
    19    14    15   ar
    20    17    18    1
    21    18    19    1
    22    19    20   am
    23    19    27    2
    24    20    21    1
    25    21    22   ar
    26    21    26   ar
    27    22    23   ar
    28    23    24   ar
    29    24    25   ar
    30    25    26   ar
    31    28    29    3
