@<TRIPOS>MOLECULE
28261_ChemDiv_7954-3075
 21 21 0 0 0
SMALL
GASTEIGER
Energy = 0

@<TRIPOS>ATOM
      1 C           0.1630    0.2920    0.0000 C.ar    1  LIG1        0.1056
      2 C           0.4750   -0.6540    0.0000 C.ar    1  LIG1        0.0847
      3 S          -0.3500   -1.2460    0.0000 S.2     1  LIG1        0.0205
      4 N          -1.1630   -0.6540    0.0000 N.ar    1  LIG1       -0.2017
      5 C          -0.8500    0.2920    0.0000 C.ar    1  LIG1        0.1256
      6 S          -1.3460    1.1540    0.0000 S.3     1  LIG1       -0.0817
      7 C          -2.3460    1.1540    0.0000 C.3     1  LIG1        0.1728
      8 C          -2.8460    2.0210    0.0000 C.2     1  LIG1        0.3285
      9 O          -2.3460    2.8880    0.0000 O.2     1  LIG1       -0.2491
     10 O          -3.8420    2.0210    0.0000 O.3     1  LIG1       -0.4479
     11 C          -4.3420    1.1540    0.0000 C.3     1  LIG1        0.2086
     12 C          -5.3380    1.1580    0.0000 C.3     1  LIG1        0.0513
     13 S           1.3420   -1.1540    0.0000 S.3     1  LIG1       -0.0932
     14 C           2.3380   -1.1540    0.0000 C.3     1  LIG1        0.1720
     15 C           2.8380   -2.0170    0.0000 C.2     1  LIG1        0.3285
     16 O           2.3380   -2.8830    0.0000 O.2     1  LIG1       -0.2491
     17 O           3.8330   -2.0170    0.0000 O.3     1  LIG1       -0.4479
     18 C           4.3380   -1.1540    0.0000 C.3     1  LIG1        0.2086
     19 C           5.3330   -1.1540    0.0000 C.3     1  LIG1        0.0513
     20 C           0.6630    1.1540    0.0000 C.1     1  LIG1        0.1035
     21 N           1.6630    1.1540    0.0000 N.1     1  LIG1       -0.1907
@<TRIPOS>BOND
     1     1     2   ar
     2     1     5   ar
     3     1    20    1
     4     2     3   ar
     5     2    13    1
     6     3     4   ar
     7     4     5   ar
     8     5     6    1
     9     6     7    1
    10     7     8    1
    11     8     9    2
    12     8    10    1
    13    10    11    1
    14    11    12    1
    15    13    14    1
    16    14    15    1
    17    15    16    2
    18    15    17    1
    19    17    18    1
    20    18    19    1
    21    20    21    3
