@<TRIPOS>MOLECULE
28266_ChemDiv_8013-5669
 33 35 0 0 0
SMALL
GASTEIGER
Energy = 0

@<TRIPOS>ATOM
      1 C           2.4040   -2.4250    0.0000 C.ar    1  LIG1        0.1700
      2 C           2.4330   -1.4210    0.0000 C.ar    1  LIG1        0.1533
      3 N           1.4960   -1.0830    0.0000 N.ar    1  LIG1       -0.2973
      4 C           0.8790   -1.8710    0.0000 C.ar    1  LIG1        0.1731
      5 N           1.4380   -2.7040    0.0000 N.ar    1  LIG1       -0.2035
      6 S          -0.1250   -1.8500    0.0000 S.3     1  LIG1       -0.0773
      7 C          -0.8580   -2.5420    0.0000 C.3     1  LIG1        0.0651
      8 C          -1.8500   -2.5040    0.0000 C.3     1  LIG1        0.0132
      9 C          -2.3250   -1.6250    0.0000 C.3     1  LIG1        0.0171
     10 C          -3.3250   -1.5920    0.0000 C.3     1  LIG1        0.1054
     11 C          -4.0540   -2.2790    0.0000 C.1     1  LIG1        0.0731
     12 N          -5.0540   -2.2540    0.0000 N.1     1  LIG1       -0.1959
     13 C           1.2210   -0.1210    0.0000 C.3     1  LIG1        0.1350
     14 C           1.9130    0.5960    0.0000 C.ar    1  LIG1        0.0037
     15 C           1.6330    1.5460    0.0000 C.ar    1  LIG1        0.0377
     16 C           2.3210    2.2750    0.0000 C.ar    1  LIG1        0.1719
     17 C           3.3040    2.0290    0.0000 C.ar    1  LIG1        0.1722
     18 C           3.5790    1.0670    0.0000 C.ar    1  LIG1        0.0398
     19 C           2.8880    0.3580    0.0000 C.ar    1  LIG1        0.0009
     20 O           3.9920    2.7540    0.0000 O.3     1  LIG1       -0.4724
     21 C           3.7130    3.7130    0.0000 C.3     1  LIG1        0.2057
     22 C           2.7420    3.9540    0.0000 C.3     1  LIG1        0.0512
     23 O           2.0420    3.2290    0.0000 O.3     1  LIG1       -0.4724
     24 C           1.0630    3.4670    0.0000 C.3     1  LIG1        0.2057
     25 C           0.3460    2.7750    0.0000 C.3     1  LIG1        0.0512
     26 C           3.3210   -0.9540    0.0000 C.ar    1  LIG1        0.2832
     27 N           4.1670   -1.4750    0.0000 N.ar    1  LIG1       -0.2454
     28 C           4.1330   -2.4790    0.0000 C.ar    1  LIG1        0.3350
     29 N           3.2540   -2.9540    0.0000 N.ar    1  LIG1       -0.2628
     30 C           3.2210   -3.9500    0.0000 C.3     1  LIG1        0.1366
     31 O           4.9830   -3.0080    0.0000 O.2     1  LIG1       -0.2461
     32 C           5.0500   -1.0130    0.0000 C.3     1  LIG1        0.1383
     33 O           3.3540    0.0380    0.0000 O.2     1  LIG1       -0.2652
@<TRIPOS>BOND
     1     1     2   ar
     2     1     5   ar
     3     1    29   ar
     4     2     3   ar
     5     2    26   ar
     6     3     4   ar
     7     3    13    1
     8     4     5   ar
     9     4     6    1
    10     6     7    1
    11     7     8    1
    12     8     9    1
    13     9    10    1
    14    10    11    1
    15    11    12    3
    16    13    14    1
    17    14    15   ar
    18    14    19   ar
    19    15    16   ar
    20    16    17   ar
    21    16    23    1
    22    17    18   ar
    23    17    20    1
    24    18    19   ar
    25    20    21    1
    26    21    22    1
    27    23    24    1
    28    24    25    1
    29    26    27   ar
    30    26    33    2
    31    27    28   ar
    32    27    32    1
    33    28    29   ar
    34    28    31    2
    35    29    30    1
