@<TRIPOS>MOLECULE
28272_ChemDiv_D090-0136
 25 27 0 0 0
SMALL
GASTEIGER
Energy = 0

@<TRIPOS>ATOM
      1 C          -0.6210   -0.8000    0.0000 C.ar    1  LIG1        0.1699
      2 N          -1.4790   -1.3000    0.0000 N.ar    1  LIG1       -0.2592
      3 C          -2.3540   -0.8000    0.0000 C.ar    1  LIG1        0.3542
      4 N          -2.3540    0.2000    0.0000 N.ar    1  LIG1       -0.1518
      5 C          -1.4790    0.7000    0.0000 C.ar    1  LIG1        0.3019
      6 C          -0.6210    0.2000    0.0000 C.ar    1  LIG1        0.1546
      7 N           0.3290    0.5040    0.0000 N.ar    1  LIG1       -0.2980
      8 C           0.9130   -0.3130    0.0000 C.ar    1  LIG1        0.1803
      9 N           0.3290   -1.1130    0.0000 N.ar    1  LIG1       -0.2063
     10 C           0.6420    1.4540    0.0000 C.3     1  LIG1        0.1703
     11 C           1.6170    1.6630    0.0000 C.3     1  LIG1        0.1635
     12 N           1.9290    2.6130    0.0000 N.4     1  LIG1        0.3788
     13 C           2.9130    2.8130    0.0000 C.3     1  LIG1        0.1389
     14 C           3.2250    3.7630    0.0000 C.3     1  LIG1        0.0688
     15 C           1.2670    3.3540    0.0000 C.3     1  LIG1        0.1389
     16 C           1.5790    4.3000    0.0000 C.3     1  LIG1        0.0688
     17 O          -1.4790    1.7000    0.0000 O.2     1  LIG1       -0.2634
     18 O          -3.2290   -1.3130    0.0000 O.2     1  LIG1       -0.2443
     19 C          -1.4920   -2.3000    0.0000 C.3     1  LIG1        0.1388
     20 C          -0.6210   -2.8000    0.0000 C.ar    1  LIG1        0.0006
     21 C           0.2290   -2.3000    0.0000 C.ar    1  LIG1       -0.0024
     22 C           1.0920   -2.8000    0.0000 C.ar    1  LIG1       -0.0003
     23 C           1.1000   -3.8000    0.0000 C.ar    1  LIG1       -0.0000
     24 C           0.2290   -4.3000    0.0000 C.ar    1  LIG1       -0.0003
     25 C          -0.6290   -3.8000    0.0000 C.ar    1  LIG1       -0.0024
@<TRIPOS>BOND
     1     1     2   ar
     2     1     6   ar
     3     1     9   ar
     4     2     3   ar
     5     2    19    1
     6     3     4   ar
     7     3    18    2
     8     4     5   ar
     9     5     6   ar
    10     5    17    2
    11     6     7   ar
    12     7     8   ar
    13     7    10    1
    14     8     9   ar
    15    10    11    1
    16    11    12    1
    17    12    13    1
    18    12    15    1
    19    13    14    1
    20    15    16    1
    21    19    20    1
    22    20    21   ar
    23    20    25   ar
    24    21    22   ar
    25    22    23   ar
    26    23    24   ar
    27    24    25   ar
