@<TRIPOS>MOLECULE
28275_ChemDiv_8013-1567
 32 36 0 0 0
SMALL
GASTEIGER
Energy = 0

@<TRIPOS>ATOM
      1 S          -0.9460   -0.1670    0.0000 S.O2    1  LIG1        0.0768
      2 C          -0.0330    0.4710    0.0000 C.ar    1  LIG1        0.1237
      3 C           0.8880    0.2460    0.0000 C.ar    1  LIG1        0.0254
      4 C           1.5250    0.9290    0.0000 C.ar    1  LIG1        0.0673
      5 C           2.4920    0.6580    0.0000 C.2     1  LIG1        0.2698
      6 N           2.7130   -0.2580    0.0000 N.am    1  LIG1       -0.1754
      7 C           3.6290   -0.5330    0.0000 C.ar    1  LIG1        0.0737
      8 C           4.2670    0.1500    0.0000 C.ar    1  LIG1        0.0166
      9 C           5.1830   -0.1250    0.0000 C.ar    1  LIG1        0.0013
     10 C           5.4130   -1.0380    0.0000 C.ar    1  LIG1        0.0001
     11 C           4.7750   -1.6790    0.0000 C.ar    1  LIG1        0.0013
     12 C           3.8580   -1.4500    0.0000 C.ar    1  LIG1        0.0166
     13 O           3.1250    1.3460    0.0000 O.2     1  LIG1       -0.2680
     14 C           1.2080    1.8460    0.0000 C.ar    1  LIG1        0.0622
     15 C           0.3330    2.0750    0.0000 C.ar    1  LIG1        0.0129
     16 C          -0.3040    1.3880    0.0000 C.ar    1  LIG1        0.0208
     17 CL          1.9380    2.6880    0.0000 Cl      1  LIG1       -0.0821
     18 O          -0.1670   -0.8790    0.0000 O.2     1  LIG1       -0.1516
     19 O          -1.7040    0.5420    0.0000 O.2     1  LIG1       -0.1516
     20 N          -2.0250   -1.0130    0.0000 N.3     1  LIG1       -0.0778
     21 C          -1.4920   -2.1380    0.0000 C.3     1  LIG1        0.1155
     22 C          -2.2750   -2.5750    0.0000 C.3     1  LIG1        0.0208
     23 C          -3.0080   -2.0250    0.0000 C.3     1  LIG1        0.0014
     24 C          -3.8290   -2.3830    0.0000 C.3     1  LIG1        0.0000
     25 C          -4.8420   -2.0250    0.0000 C.3     1  LIG1        0.0000
     26 C          -4.8420   -0.9250    0.0000 C.3     1  LIG1        0.0000
     27 C          -3.8750   -0.4170    0.0000 C.3     1  LIG1        0.0000
     28 C          -3.0080   -0.9920    0.0000 C.3     1  LIG1        0.0000
     29 C          -4.4750   -0.9250    0.0000 C.3     1  LIG1        0.0000
     30 C          -4.4500   -2.2960    0.0000 C.3     1  LIG1        0.0000
     31 C          -3.5580   -2.6830    0.0000 C.3     1  LIG1        0.0000
     32 C          -5.4170   -2.6830    0.0000 C.3     1  LIG1        0.0000
@<TRIPOS>BOND
     1     1     2    1
     2     1    18    2
     3     1    19    2
     4     1    20    1
     5     2     3   ar
     6     2    16   ar
     7     3     4   ar
     8     4     5    1
     9     4    14   ar
    10     5     6   am
    11     5    13    2
    12     6     7    1
    13     7     8   ar
    14     7    12   ar
    15     8     9   ar
    16     9    10   ar
    17    10    11   ar
    18    11    12   ar
    19    14    15   ar
    20    14    17    1
    21    15    16   ar
    22    20    21    1
    23    21    22    1
    24    22    23    1
    25    23    24    1
    26    23    28    1
    27    23    31    1
    28    24    25    1
    29    25    26    1
    30    25    32    1
    31    26    27    1
    32    27    28    1
    33    27    29    1
    34    29    30    1
    35    30    31    1
    36    30    32    1
