@<TRIPOS>MOLECULE
28273_ChemDiv_2552-0049
 25 27 0 0 0
SMALL
GASTEIGER
Energy = 0

@<TRIPOS>ATOM
      1 S          -1.5170   -1.6500    0.0000 S.O2    1  LIG1        0.0633
      2 N          -2.5170   -1.6500    0.0000 N.3     1  LIG1       -0.1537
      3 C          -3.0290   -2.5130    0.0000 C.3     1  LIG1        0.1074
      4 C          -4.0250   -2.4920    0.0000 C.3     1  LIG1        0.0767
      5 S          -4.5210   -1.6330    0.0000 S.3     1  LIG1       -0.1372
      6 C          -4.0130   -0.7710    0.0000 C.3     1  LIG1        0.0767
      7 C          -3.0080   -0.7710    0.0000 C.3     1  LIG1        0.1074
      8 C          -0.5170   -1.6500    0.0000 C.ar    1  LIG1        0.1224
      9 C          -0.0040   -0.7880    0.0000 C.ar    1  LIG1        0.0253
     10 C           0.9920   -0.7880    0.0000 C.ar    1  LIG1        0.0673
     11 C           1.5000    0.0880    0.0000 C.2     1  LIG1        0.2698
     12 N           2.5000    0.0750    0.0000 N.am    1  LIG1       -0.1754
     13 C           3.0080    0.9080    0.0000 C.ar    1  LIG1        0.0737
     14 C           4.0130    0.8960    0.0000 C.ar    1  LIG1        0.0166
     15 C           4.5170    1.7540    0.0000 C.ar    1  LIG1        0.0013
     16 C           4.0290    2.6330    0.0000 C.ar    1  LIG1        0.0001
     17 C           3.0250    2.6500    0.0000 C.ar    1  LIG1        0.0013
     18 C           2.5210    1.7880    0.0000 C.ar    1  LIG1        0.0166
     19 O           1.0080    0.9670    0.0000 O.2     1  LIG1       -0.2680
     20 C           1.4880   -1.6500    0.0000 C.ar    1  LIG1        0.0622
     21 C           0.9750   -2.5250    0.0000 C.ar    1  LIG1        0.0129
     22 C          -0.0250   -2.5130    0.0000 C.ar    1  LIG1        0.0208
     23 CL          2.4830   -1.6500    0.0000 Cl      1  LIG1       -0.0821
     24 O          -1.5170   -0.6500    0.0000 O.2     1  LIG1       -0.1528
     25 O          -1.5170   -2.6460    0.0000 O.2     1  LIG1       -0.1528
@<TRIPOS>BOND
     1     1     2    1
     2     1     8    1
     3     1    24    2
     4     1    25    2
     5     2     3    1
     6     2     7    1
     7     3     4    1
     8     4     5    1
     9     5     6    1
    10     6     7    1
    11     8     9   ar
    12     8    22   ar
    13     9    10   ar
    14    10    11    1
    15    10    20   ar
    16    11    12   am
    17    11    19    2
    18    12    13    1
    19    13    14   ar
    20    13    18   ar
    21    14    15   ar
    22    15    16   ar
    23    16    17   ar
    24    17    18   ar
    25    20    21   ar
    26    20    23    1
    27    21    22   ar
