@<TRIPOS>MOLECULE
28279_ChemDiv_K784-0145
 30 32 0 0 0
SMALL
GASTEIGER
Energy = 0

@<TRIPOS>ATOM
      1 S          -2.4540    0.9960    0.0000 S.O2    1  LIG1        0.0768
      2 C          -1.5880    1.4880    0.0000 C.ar    1  LIG1        0.1238
      3 C          -0.7170    0.9920    0.0000 C.ar    1  LIG1        0.0268
      4 C           0.1500    1.4880    0.0000 C.ar    1  LIG1        0.0841
      5 C           1.0170    0.9960    0.0000 C.2     1  LIG1        0.2713
      6 N           1.0170    0.0000    0.0000 N.am    1  LIG1       -0.1723
      7 C           1.8880   -0.4830    0.0000 C.ar    1  LIG1        0.1083
      8 C           2.7500    0.0080    0.0000 C.ar    1  LIG1        0.0311
      9 C           3.6170   -0.4830    0.0000 C.ar    1  LIG1        0.0592
     10 C           3.6210   -1.4920    0.0000 C.ar    1  LIG1        0.0146
     11 C           2.7540   -1.9920    0.0000 C.ar    1  LIG1        0.0391
     12 C           1.8880   -1.4920    0.0000 C.ar    1  LIG1        0.1540
     13 O           1.0170   -2.0040    0.0000 O.3     1  LIG1       -0.4701
     14 C           1.0290   -2.9920    0.0000 C.3     1  LIG1        0.2525
     15 CL          4.4750    0.0170    0.0000 Cl      1  LIG1       -0.0822
     16 O           1.8880    1.5000    0.0000 O.2     1  LIG1       -0.2679
     17 C           0.1500    2.4960    0.0000 C.ar    1  LIG1        0.1446
     18 C          -0.7170    2.9920    0.0000 C.ar    1  LIG1        0.0312
     19 C          -1.5880    2.4880    0.0000 C.ar    1  LIG1        0.0223
     20 F           1.0130    2.9960    0.0000 F       1  LIG1       -0.2040
     21 N          -3.3210    0.5040    0.0000 N.3     1  LIG1       -0.0793
     22 C          -3.3210   -0.5250    0.0000 C.3     1  LIG1        0.0977
     23 C          -4.2670   -1.0040    0.0000 C.3     1  LIG1        0.0193
     24 C          -4.4790   -2.0540    0.0000 C.3     1  LIG1        0.0015
     25 C          -3.7790   -2.8000    0.0000 C.3     1  LIG1        0.0000
     26 C          -2.8830   -2.6880    0.0000 C.3     1  LIG1        0.0000
     27 C          -2.2750   -1.8500    0.0000 C.3     1  LIG1        0.0015
     28 C          -2.4080   -0.9880    0.0000 C.3     1  LIG1        0.0193
     29 O          -1.9540    0.1290    0.0000 O.2     1  LIG1       -0.1516
     30 O          -2.9540    1.8540    0.0000 O.2     1  LIG1       -0.1516
@<TRIPOS>BOND
     1     1     2    1
     2     1    21    1
     3     1    29    2
     4     1    30    2
     5     2     3   ar
     6     2    19   ar
     7     3     4   ar
     8     4     5    1
     9     4    17   ar
    10     5     6   am
    11     5    16    2
    12     6     7    1
    13     7     8   ar
    14     7    12   ar
    15     8     9   ar
    16     9    10   ar
    17     9    15    1
    18    10    11   ar
    19    11    12   ar
    20    12    13    1
    21    13    14    1
    22    17    18   ar
    23    17    20    1
    24    18    19   ar
    25    21    22    1
    26    22    23    1
    27    22    28    1
    28    23    24    1
    29    24    25    1
    30    25    26    1
    31    26    27    1
    32    27    28    1
