@<TRIPOS>MOLECULE
28276_ChemDiv_3929-0023
 32 35 0 0 0
SMALL
GASTEIGER
Energy = 0

@<TRIPOS>ATOM
      1 N          -2.4210    0.5040    0.0000 N.am    1  LIG1        0.1606
      2 C          -3.4330    0.5040    0.0000 C.2     1  LIG1        0.4667
      3 C          -3.9040    1.3790    0.0000 C.3     1  LIG1        0.2182
      4 C          -3.4330    2.2460    0.0000 C.2     1  LIG1        0.2648
      5 N          -2.4210    2.2460    0.0000 N.am    1  LIG1       -0.1068
      6 C          -1.8960    1.3790    0.0000 C.2     1  LIG1        0.3990
      7 S          -0.8880    1.3790    0.0000 S.3     1  LIG1       -0.0118
      8 C          -0.4080    0.5040    0.0000 C.3     1  LIG1        0.1564
      9 C           0.5960    0.5040    0.0000 C.2     1  LIG1        0.2589
     10 N           1.0750   -0.3420    0.0000 N.am    1  LIG1       -0.1535
     11 C           2.0830   -0.3420    0.0000 C.ar    1  LIG1        0.1858
     12 N           2.5960   -1.1670    0.0000 N.ar    1  LIG1       -0.2225
     13 C           3.5920   -0.8830    0.0000 C.ar    1  LIG1        0.0898
     14 C           3.6210    0.0960    0.0000 C.ar    1  LIG1        0.0573
     15 S           2.6630    0.4750    0.0000 S.2     1  LIG1       -0.0492
     16 C           4.4000   -1.4540    0.0000 C.ar    1  LIG1        0.0183
     17 C           4.3500   -2.4670    0.0000 C.ar    1  LIG1        0.0020
     18 C           5.1630   -3.0210    0.0000 C.ar    1  LIG1        0.0067
     19 C           6.0750   -2.5710    0.0000 C.ar    1  LIG1        0.0346
     20 C           6.1170   -1.5920    0.0000 C.ar    1  LIG1        0.0067
     21 C           5.3080   -1.0330    0.0000 C.ar    1  LIG1        0.0020
     22 BR          6.9170   -3.1040    0.0000 Br      1  LIG1       -0.0490
     23 O           1.0750    1.3790    0.0000 O.2     1  LIG1       -0.2720
     24 O          -3.9460    3.1080    0.0000 O.2     1  LIG1       -0.2721
     25 C          -4.9000    1.3790    0.0000 C.3     1  LIG1        0.0503
     26 C          -5.4250    0.5040    0.0000 C.ar    1  LIG1       -0.0210
     27 C          -6.4000    0.5040    0.0000 C.ar    1  LIG1       -0.0042
     28 C          -6.9170   -0.3420    0.0000 C.ar    1  LIG1       -0.0003
     29 C          -6.4000   -1.2130    0.0000 C.ar    1  LIG1       -0.0000
     30 C          -5.4250   -1.2130    0.0000 C.ar    1  LIG1       -0.0003
     31 C          -4.9000   -0.3420    0.0000 C.ar    1  LIG1       -0.0042
     32 O          -3.9460   -0.3380    0.0000 O.2     1  LIG1       -0.2113
@<TRIPOS>BOND
     1     1     2   am
     2     1     6    2
     3     2     3    1
     4     2    32    2
     5     3     4    1
     6     3    25    1
     7     4     5   am
     8     4    24    2
     9     5     6    1
    10     6     7    1
    11     7     8    1
    12     8     9    1
    13     9    10   am
    14     9    23    2
    15    10    11    1
    16    11    12   ar
    17    11    15   ar
    18    12    13   ar
    19    13    14   ar
    20    13    16    1
    21    14    15   ar
    22    16    17   ar
    23    16    21   ar
    24    17    18   ar
    25    18    19   ar
    26    19    20   ar
    27    19    22    1
    28    20    21   ar
    29    25    26    1
    30    26    27   ar
    31    26    31   ar
    32    27    28   ar
    33    28    29   ar
    34    29    30   ar
    35    30    31   ar
