@<TRIPOS>MOLECULE
28285_ChemDiv_2552-0077
 32 36 0 0 0
SMALL
GASTEIGER
Energy = 0

@<TRIPOS>ATOM
      1 S          -1.5500    1.4210    0.0000 S.O2    1  LIG1        0.0633
      2 N          -1.5500    2.4380    0.0000 N.3     1  LIG1       -0.1555
      3 C          -2.4880    2.7880    0.0000 C.3     1  LIG1        0.0958
      4 C          -2.7750    3.7250    0.0000 C.3     1  LIG1        0.0191
      5 C          -2.1830    4.5460    0.0000 C.3     1  LIG1        0.0015
      6 C          -1.2460    4.6290    0.0000 C.3     1  LIG1        0.0015
      7 C          -0.5250    3.9080    0.0000 C.3     1  LIG1        0.0191
      8 C          -0.6830    2.9210    0.0000 C.3     1  LIG1        0.0958
      9 C          -1.5500    0.4250    0.0000 C.ar    1  LIG1        0.1223
     10 C          -0.6830   -0.0750    0.0000 C.ar    1  LIG1        0.0244
     11 C          -0.6830   -1.0960    0.0000 C.ar    1  LIG1        0.0556
     12 C           0.1920   -1.6130    0.0000 C.2     1  LIG1        0.2565
     13 N           0.1920   -2.6210    0.0000 N.am    1  LIG1       -0.2329
     14 C          -0.6630   -3.1330    0.0000 C.ar    1  LIG1        0.0643
     15 C          -0.6630   -4.1290    0.0000 C.ar    1  LIG1        0.0435
     16 S           0.1920   -4.6290    0.0000 S.3     1  LIG1       -0.0844
     17 C           1.0580   -4.1290    0.0000 C.ar    1  LIG1        0.0435
     18 C           1.0580   -3.1330    0.0000 C.ar    1  LIG1        0.0643
     19 C           1.9130   -2.6210    0.0000 C.ar    1  LIG1        0.0157
     20 C           2.7710   -3.1250    0.0000 C.ar    1  LIG1        0.0013
     21 C           2.7710   -4.1290    0.0000 C.ar    1  LIG1        0.0006
     22 C           1.9130   -4.6290    0.0000 C.ar    1  LIG1        0.0077
     23 C          -1.5130   -4.6250    0.0000 C.ar    1  LIG1        0.0077
     24 C          -2.3750   -4.1290    0.0000 C.ar    1  LIG1        0.0006
     25 C          -2.3750   -3.1250    0.0000 C.ar    1  LIG1        0.0013
     26 C          -1.5130   -2.6170    0.0000 C.ar    1  LIG1        0.0157
     27 O           1.0790   -1.0960    0.0000 O.2     1  LIG1       -0.2692
     28 C          -1.5500   -1.5830    0.0000 C.ar    1  LIG1        0.0046
     29 C          -2.4000   -1.0960    0.0000 C.ar    1  LIG1        0.0015
     30 C          -2.4000   -0.0750    0.0000 C.ar    1  LIG1        0.0199
     31 O          -2.5580    1.4210    0.0000 O.2     1  LIG1       -0.1528
     32 O          -0.5250    1.4210    0.0000 O.2     1  LIG1       -0.1528
@<TRIPOS>BOND
     1     1     2    1
     2     1     9    1
     3     1    31    2
     4     1    32    2
     5     2     3    1
     6     2     8    1
     7     3     4    1
     8     4     5    1
     9     5     6    1
    10     6     7    1
    11     7     8    1
    12     9    10   ar
    13     9    30   ar
    14    10    11   ar
    15    11    12    1
    16    11    28   ar
    17    12    13   am
    18    12    27    2
    19    13    14    1
    20    13    18    1
    21    14    15   ar
    22    14    26   ar
    23    15    16    1
    24    15    23   ar
    25    16    17    1
    26    17    18   ar
    27    17    22   ar
    28    18    19   ar
    29    19    20   ar
    30    20    21   ar
    31    21    22   ar
    32    23    24   ar
    33    24    25   ar
    34    25    26   ar
    35    28    29   ar
    36    29    30   ar
