@<TRIPOS>MOLECULE
28284_ChemDiv_6765-0011
 21 23 0 0 0
SMALL
GASTEIGER
Energy = 0

@<TRIPOS>ATOM
      1 C           2.1710    0.2000    0.0000 C.ar    1  LIG1        0.3922
      2 N           2.1750    1.2080    0.0000 N.ar    1  LIG1       -0.2321
      3 C           1.2880    1.7380    0.0000 C.ar    1  LIG1        0.2663
      4 C           0.4500    1.2080    0.0000 C.ar    1  LIG1        0.0722
      5 C           0.4500    0.2000    0.0000 C.ar    1  LIG1        0.0967
      6 S           1.2880   -0.2710    0.0000 S.2     1  LIG1        0.0112
      7 C          -0.4420   -0.2710    0.0000 C.2     1  LIG1        0.2754
      8 N          -1.2830    0.1960    0.0000 N.am    1  LIG1       -0.1750
      9 C          -2.1630   -0.2710    0.0000 C.ar    1  LIG1        0.0745
     10 C          -2.1960   -1.2790    0.0000 C.ar    1  LIG1        0.0280
     11 C          -3.0960   -1.7330    0.0000 C.ar    1  LIG1        0.0590
     12 CL         -3.1210   -2.7210    0.0000 Cl      1  LIG1       -0.0822
     13 C          -3.9290   -1.1960    0.0000 C.ar    1  LIG1        0.0115
     14 C          -3.8710   -0.2130    0.0000 C.ar    1  LIG1        0.0022
     15 C          -3.0040    0.2630    0.0000 C.ar    1  LIG1        0.0167
     16 O          -0.4420   -1.2790    0.0000 O.2     1  LIG1       -0.2675
     17 O           1.2880    2.7250    0.0000 O.2     1  LIG1       -0.2668
     18 C           3.0500    1.7170    0.0000 C.3     1  LIG1        0.1229
     19 C           3.9250    1.2000    0.0000 C.3     1  LIG1        0.1172
     20 C           3.9250    0.1920    0.0000 C.3     1  LIG1        0.3978
     21 N           3.0420   -0.3130    0.0000 N.2     1  LIG1        0.0797
@<TRIPOS>BOND
     1     1     2   ar
     2     1     6   ar
     3     1    21    2
     4     2     3   ar
     5     2    18    1
     6     3     4   ar
     7     3    17    2
     8     4     5   ar
     9     5     6   ar
    10     5     7    1
    11     7     8   am
    12     7    16    2
    13     8     9    1
    14     9    10   ar
    15     9    15   ar
    16    10    11   ar
    17    11    12    1
    18    11    13   ar
    19    13    14   ar
    20    14    15   ar
    21    18    19    1
    22    19    20    1
    23    20    21    1
