@<TRIPOS>MOLECULE
28281_ChemDiv_K838-0076
 34 37 0 0 0
SMALL
GASTEIGER
Energy = 0

@<TRIPOS>ATOM
      1 S          -2.1710   -0.8790    0.0000 S.O2    1  LIG1        0.0633
      2 N          -2.7130   -0.0290    0.0000 N.3     1  LIG1       -0.1555
      3 C          -3.6880   -0.2290    0.0000 C.3     1  LIG1        0.0958
      4 C          -4.4380    0.3920    0.0000 C.3     1  LIG1        0.0191
      5 C          -4.4080    1.4080    0.0000 C.3     1  LIG1        0.0015
      6 C          -3.6250    2.0080    0.0000 C.3     1  LIG1        0.0015
      7 C          -2.6920    1.7750    0.0000 C.3     1  LIG1        0.0191
      8 C          -2.2750    0.8630    0.0000 C.3     1  LIG1        0.0958
      9 C          -1.6210   -1.7460    0.0000 C.ar    1  LIG1        0.1223
     10 C          -0.5790   -1.7460    0.0000 C.ar    1  LIG1        0.0245
     11 C          -0.0830   -2.6080    0.0000 C.ar    1  LIG1        0.0567
     12 C           0.9380   -2.5750    0.0000 C.2     1  LIG1        0.2690
     13 N           1.4330   -1.7250    0.0000 N.am    1  LIG1       -0.1753
     14 C           2.4420   -1.7250    0.0000 C.ar    1  LIG1        0.0781
     15 C           2.9420   -0.8580    0.0000 C.ar    1  LIG1        0.0707
     16 C           2.4210    0.0330    0.0000 C.2     1  LIG1        0.2702
     17 N           2.9170    0.8830    0.0000 N.am    1  LIG1       -0.1754
     18 C           2.4210    1.7500    0.0000 C.ar    1  LIG1        0.0737
     19 C           1.4000    1.7500    0.0000 C.ar    1  LIG1        0.0166
     20 C           0.9130    2.6080    0.0000 C.ar    1  LIG1        0.0013
     21 C           1.4000    3.4710    0.0000 C.ar    1  LIG1        0.0001
     22 C           2.3960    3.4710    0.0000 C.ar    1  LIG1        0.0013
     23 C           2.9170    2.6420    0.0000 C.ar    1  LIG1        0.0166
     24 O           1.4330    0.0540    0.0000 O.2     1  LIG1       -0.2680
     25 C           3.9380   -0.8580    0.0000 C.ar    1  LIG1        0.0059
     26 C           4.4330   -1.7250    0.0000 C.ar    1  LIG1        0.0002
     27 C           3.9580   -2.5750    0.0000 C.ar    1  LIG1        0.0013
     28 C           2.9420   -2.5750    0.0000 C.ar    1  LIG1        0.0168
     29 O           1.4580   -3.4420    0.0000 O.2     1  LIG1       -0.2680
     30 C          -0.5790   -3.4670    0.0000 C.ar    1  LIG1        0.0047
     31 C          -1.6000   -3.4670    0.0000 C.ar    1  LIG1        0.0015
     32 C          -2.0880   -2.6080    0.0000 C.ar    1  LIG1        0.0199
     33 O          -1.3380   -0.3380    0.0000 O.2     1  LIG1       -0.1528
     34 O          -3.0330   -1.4330    0.0000 O.2     1  LIG1       -0.1528
@<TRIPOS>BOND
     1     1     2    1
     2     1     9    1
     3     1    33    2
     4     1    34    2
     5     2     3    1
     6     2     8    1
     7     3     4    1
     8     4     5    1
     9     5     6    1
    10     6     7    1
    11     7     8    1
    12     9    10   ar
    13     9    32   ar
    14    10    11   ar
    15    11    12    1
    16    11    30   ar
    17    12    13   am
    18    12    29    2
    19    13    14    1
    20    14    15   ar
    21    14    28   ar
    22    15    16    1
    23    15    25   ar
    24    16    17   am
    25    16    24    2
    26    17    18    1
    27    18    19   ar
    28    18    23   ar
    29    19    20   ar
    30    20    21   ar
    31    21    22   ar
    32    22    23   ar
    33    25    26   ar
    34    26    27   ar
    35    27    28   ar
    36    30    31   ar
    37    31    32   ar
