@<TRIPOS>MOLECULE
28282_ChemDiv_5493-0034
 26 27 0 0 0
SMALL
GASTEIGER
Energy = 0

@<TRIPOS>ATOM
      1 N           2.0380   -2.1580    0.0000 N.am    1  LIG1        0.1606
      2 C           2.5290   -1.2920    0.0000 C.2     1  LIG1        0.3990
      3 N           3.5210   -1.2670    0.0000 N.am    1  LIG1       -0.1068
      4 C           4.0330   -2.1580    0.0000 C.2     1  LIG1        0.2644
      5 C           3.5500   -3.0290    0.0000 C.3     1  LIG1        0.2139
      6 C           2.5500   -3.0290    0.0000 C.2     1  LIG1        0.4664
      7 O           2.0380   -3.8960    0.0000 O.2     1  LIG1       -0.2113
      8 C           4.0580   -3.8960    0.0000 C.3     1  LIG1        0.0240
      9 C           3.5710   -4.7580    0.0000 C.3     1  LIG1        0.0012
     10 O           5.0210   -2.1830    0.0000 O.2     1  LIG1       -0.2721
     11 S           2.0170   -0.4210    0.0000 S.3     1  LIG1       -0.0118
     12 C           1.0170   -0.4210    0.0000 C.3     1  LIG1        0.1564
     13 C           0.5080    0.4420    0.0000 C.2     1  LIG1        0.2572
     14 N          -0.4880    0.4420    0.0000 N.am    1  LIG1       -0.1785
     15 C          -0.9960    1.3080    0.0000 C.ar    1  LIG1        0.0734
     16 C          -0.4880    2.1540    0.0000 C.ar    1  LIG1        0.0168
     17 C          -0.9750    3.0250    0.0000 C.ar    1  LIG1        0.0078
     18 C          -1.9960    3.0250    0.0000 C.ar    1  LIG1        0.0757
     19 C          -2.5250    3.8830    0.0000 C.2     1  LIG1        0.3412
     20 O          -2.0420    4.7580    0.0000 O.2     1  LIG1       -0.2449
     21 O          -3.5250    3.8580    0.0000 O.3     1  LIG1       -0.4454
     22 C          -4.0370    4.7080    0.0000 C.3     1  LIG1        0.2089
     23 C          -5.0250    4.6790    0.0000 C.3     1  LIG1        0.0513
     24 C          -2.4750    2.1540    0.0000 C.ar    1  LIG1        0.0078
     25 C          -1.9960    1.3080    0.0000 C.ar    1  LIG1        0.0168
     26 O           1.0170    1.3080    0.0000 O.2     1  LIG1       -0.2720
@<TRIPOS>BOND
     1     1     2    2
     2     1     6   am
     3     2     3    1
     4     2    11    1
     5     3     4   am
     6     4     5    1
     7     4    10    2
     8     5     6    1
     9     5     8    1
    10     6     7    2
    11     8     9    1
    12    11    12    1
    13    12    13    1
    14    13    14   am
    15    13    26    2
    16    14    15    1
    17    15    16   ar
    18    15    25   ar
    19    16    17   ar
    20    17    18   ar
    21    18    19    1
    22    18    24   ar
    23    19    20    2
    24    19    21    1
    25    21    22    1
    26    22    23    1
    27    24    25   ar
