@<TRIPOS>MOLECULE
28283_ChemDiv_2552-0050
 27 29 0 0 0
SMALL
GASTEIGER
Energy = 0

@<TRIPOS>ATOM
      1 S          -2.2500   -1.2130    0.0000 S.O2    1  LIG1        0.0633
      2 N          -3.2580   -1.2130    0.0000 N.3     1  LIG1       -0.1537
      3 C          -3.7540   -2.0920    0.0000 C.3     1  LIG1        0.1074
      4 C          -4.7500   -2.0920    0.0000 C.3     1  LIG1        0.0767
      5 S          -5.2420   -1.2130    0.0000 S.3     1  LIG1       -0.1372
      6 C          -4.7500   -0.3540    0.0000 C.3     1  LIG1        0.0767
      7 C          -3.7540   -0.3540    0.0000 C.3     1  LIG1        0.1074
      8 C          -1.2540   -1.2130    0.0000 C.ar    1  LIG1        0.1224
      9 C          -0.7630   -0.3540    0.0000 C.ar    1  LIG1        0.0263
     10 C           0.2460   -0.3540    0.0000 C.ar    1  LIG1        0.0770
     11 C           0.7580    0.5170    0.0000 C.2     1  LIG1        0.3417
     12 O           1.7540    0.5170    0.0000 O.3     1  LIG1       -0.4368
     13 C           2.2460    1.3710    0.0000 C.3     1  LIG1        0.2769
     14 C           3.2540    1.3710    0.0000 C.2     1  LIG1        0.2170
     15 O           3.7420    2.2380    0.0000 O.2     1  LIG1       -0.2874
     16 C           3.7420    0.5000    0.0000 C.ar    1  LIG1        0.0385
     17 C           3.2540   -0.3540    0.0000 C.ar    1  LIG1        0.0030
     18 C           3.7670   -1.2380    0.0000 C.ar    1  LIG1        0.0001
     19 C           4.7460   -1.2380    0.0000 C.ar    1  LIG1        0.0000
     20 C           5.2380   -0.3540    0.0000 C.ar    1  LIG1        0.0001
     21 C           4.7460    0.5000    0.0000 C.ar    1  LIG1        0.0030
     22 O           0.2670    1.3790    0.0000 O.2     1  LIG1       -0.2449
     23 C           0.7380   -1.2130    0.0000 C.ar    1  LIG1        0.0065
     24 C           0.2460   -2.0920    0.0000 C.ar    1  LIG1        0.0016
     25 C          -0.7630   -2.0920    0.0000 C.ar    1  LIG1        0.0199
     26 O          -2.2500   -0.2040    0.0000 O.2     1  LIG1       -0.1528
     27 O          -2.2500   -2.2330    0.0000 O.2     1  LIG1       -0.1528
@<TRIPOS>BOND
     1     1     2    1
     2     1     8    1
     3     1    26    2
     4     1    27    2
     5     2     3    1
     6     2     7    1
     7     3     4    1
     8     4     5    1
     9     5     6    1
    10     6     7    1
    11     8     9   ar
    12     8    25   ar
    13     9    10   ar
    14    10    11    1
    15    10    23   ar
    16    11    12    1
    17    11    22    2
    18    12    13    1
    19    13    14    1
    20    14    15    2
    21    14    16    1
    22    16    17   ar
    23    16    21   ar
    24    17    18   ar
    25    18    19   ar
    26    19    20   ar
    27    20    21   ar
    28    23    24   ar
    29    24    25   ar
