@<TRIPOS>MOLECULE
28280_ChemDiv_4132-0004
 30 32 0 0 0
SMALL
GASTEIGER
Energy = 0

@<TRIPOS>ATOM
      1 N          -2.0000   -0.3670    0.0000 N.am    1  LIG1        0.1606
      2 C          -2.9920   -0.3670    0.0000 C.2     1  LIG1        0.4667
      3 C          -3.5040    0.5000    0.0000 C.3     1  LIG1        0.2182
      4 C          -2.9920    1.3750    0.0000 C.2     1  LIG1        0.2648
      5 N          -2.0000    1.3750    0.0000 N.am    1  LIG1       -0.1068
      6 C          -1.4880    0.5000    0.0000 C.2     1  LIG1        0.3990
      7 S          -0.4880    0.5000    0.0000 S.3     1  LIG1       -0.0118
      8 C           0.0130   -0.3670    0.0000 C.3     1  LIG1        0.1564
      9 C           1.0170   -0.3670    0.0000 C.2     1  LIG1        0.2572
     10 N           1.5250   -1.2330    0.0000 N.am    1  LIG1       -0.1785
     11 C           2.5080   -1.2330    0.0000 C.ar    1  LIG1        0.0735
     12 C           3.0130   -0.3670    0.0000 C.ar    1  LIG1        0.0180
     13 C           4.0080   -0.3670    0.0000 C.ar    1  LIG1        0.0213
     14 C           4.5170   -1.2330    0.0000 C.ar    1  LIG1        0.1251
     15 S           5.5130   -1.2330    0.0000 S.O2    1  LIG1        0.0935
     16 O           5.5130   -0.2330    0.0000 O.2     1  LIG1       -0.1503
     17 O           5.5130   -2.2420    0.0000 O.2     1  LIG1       -0.1503
     18 N           6.4880   -1.2330    0.0000 N.3     1  LIG1        0.0392
     19 C           4.0080   -2.1080    0.0000 C.ar    1  LIG1        0.0213
     20 C           3.0130   -2.1080    0.0000 C.ar    1  LIG1        0.0180
     21 O           1.5250    0.5000    0.0000 O.2     1  LIG1       -0.2720
     22 O          -3.4540    2.2460    0.0000 O.2     1  LIG1       -0.2721
     23 C          -4.5040    0.5000    0.0000 C.3     1  LIG1        0.0503
     24 C          -4.9790   -0.3670    0.0000 C.ar    1  LIG1       -0.0210
     25 C          -5.9920   -0.3670    0.0000 C.ar    1  LIG1       -0.0042
     26 C          -6.4880   -1.2330    0.0000 C.ar    1  LIG1       -0.0003
     27 C          -5.9920   -2.1080    0.0000 C.ar    1  LIG1       -0.0000
     28 C          -4.9790   -2.1080    0.0000 C.ar    1  LIG1       -0.0003
     29 C          -4.5040   -1.2330    0.0000 C.ar    1  LIG1       -0.0042
     30 O          -3.4540   -1.2460    0.0000 O.2     1  LIG1       -0.2113
@<TRIPOS>BOND
     1     1     2   am
     2     1     6    2
     3     2     3    1
     4     2    30    2
     5     3     4    1
     6     3    23    1
     7     4     5   am
     8     4    22    2
     9     5     6    1
    10     6     7    1
    11     7     8    1
    12     8     9    1
    13     9    10   am
    14     9    21    2
    15    10    11    1
    16    11    12   ar
    17    11    20   ar
    18    12    13   ar
    19    13    14   ar
    20    14    15    1
    21    14    19   ar
    22    15    16    2
    23    15    17    2
    24    15    18    1
    25    19    20   ar
    26    23    24    1
    27    24    25   ar
    28    24    29   ar
    29    25    26   ar
    30    26    27   ar
    31    27    28   ar
    32    28    29   ar
