@<TRIPOS>MOLECULE
28289_ChemDiv_8006-4761
 21 22 0 0 0
SMALL
GASTEIGER
Energy = 0

@<TRIPOS>ATOM
      1 C           0.8750   -0.3210    0.0000 C.ar    1  LIG1        0.1056
      2 C           0.0880   -0.8460    0.0000 C.ar    1  LIG1        0.0845
      3 S           0.0880   -1.7130    0.0000 S.2     1  LIG1        0.0205
      4 N           1.6460   -1.7130    0.0000 N.ar    1  LIG1       -0.2017
      5 C           1.6460   -0.8460    0.0000 C.ar    1  LIG1        0.1255
      6 S           2.5210   -0.3000    0.0000 S.3     1  LIG1       -0.0837
      7 C           3.3250   -0.8250    0.0000 C.3     1  LIG1        0.1518
      8 C           4.1420   -0.3000    0.0000 C.2     1  LIG1        0.2721
      9 O           4.1380    0.7000    0.0000 O.2     1  LIG1       -0.2707
     10 N           4.9380   -0.8670    0.0000 N.am    1  LIG1       -0.0870
     11 S          -0.7330   -0.3210    0.0000 S.3     1  LIG1       -0.1003
     12 C          -1.5380   -0.7750    0.0000 C.3     1  LIG1        0.0889
     13 C          -2.3290   -0.3000    0.0000 C.ar    1  LIG1       -0.0109
     14 C          -2.3290    0.7080    0.0000 C.ar    1  LIG1       -0.0025
     15 C          -3.2130    1.2080    0.0000 C.ar    1  LIG1        0.0111
     16 C          -4.0790    0.7080    0.0000 C.ar    1  LIG1        0.0577
     17 CL         -4.9420    1.2080    0.0000 Cl      1  LIG1       -0.0822
     18 C          -4.0790   -0.3000    0.0000 C.ar    1  LIG1        0.0111
     19 C          -3.2130   -0.7960    0.0000 C.ar    1  LIG1       -0.0025
     20 C           0.8750    0.7080    0.0000 C.1     1  LIG1        0.1035
     21 N           0.8750    1.7170    0.0000 N.1     1  LIG1       -0.1907
@<TRIPOS>BOND
     1     1     2   ar
     2     1     5   ar
     3     1    20    1
     4     2     3   ar
     5     2    11    1
     6     3     4   ar
     7     4     5   ar
     8     5     6    1
     9     6     7    1
    10     7     8    1
    11     8     9    2
    12     8    10   am
    13    11    12    1
    14    12    13    1
    15    13    14   ar
    16    13    19   ar
    17    14    15   ar
    18    15    16   ar
    19    16    17    1
    20    16    18   ar
    21    18    19   ar
    22    20    21    3
