@<TRIPOS>MOLECULE
28297_ChemDiv_8013-0868
 10 10 0 0 0
SMALL
GASTEIGER
Energy = 0

@<TRIPOS>ATOM
      1 C          -0.7000   -0.0330    0.0000 C.ar    1  LIG1        0.1355
      2 C          -1.0040   -1.0000    0.0000 C.ar    1  LIG1        0.0960
      3 S          -0.1750   -1.5710    0.0000 S.2     1  LIG1        0.0238
      4 N           0.6170   -0.9750    0.0000 N.ar    1  LIG1       -0.1727
      5 C           0.2880   -0.0330    0.0000 C.ar    1  LIG1        0.2423
      6 O           0.9170    0.7790    0.0000 O.3     1  LIG1       -0.4553
      7 C           1.9290    0.6420    0.0000 C.3     1  LIG1        0.2543
      8 BR         -1.9330   -1.3250    0.0000 Br      1  LIG1       -0.0395
      9 C          -1.2710    0.7710    0.0000 C.1     1  LIG1        0.1062
     10 N          -1.8420    1.5750    0.0000 N.1     1  LIG1       -0.1906
@<TRIPOS>BOND
     1     1     2   ar
     2     1     5   ar
     3     1     9    1
     4     2     3   ar
     5     2     8    1
     6     3     4   ar
     7     4     5   ar
     8     5     6    1
     9     6     7    1
    10     9    10    3
