@<TRIPOS>MOLECULE
28299_ChemDiv_8016-7679
 13 13 0 0 0
SMALL
GASTEIGER
Energy = 0

@<TRIPOS>ATOM
      1 C          -0.9580    0.1380    0.0000 C.ar    1  LIG1        0.1350
      2 C          -0.8040   -0.8500    0.0000 C.ar    1  LIG1        0.0869
      3 S           0.1830   -1.0040    0.0000 S.2     1  LIG1        0.0233
      4 N           0.6380   -0.1130    0.0000 N.ar    1  LIG1       -0.1727
      5 C          -0.0670    0.5960    0.0000 C.ar    1  LIG1        0.2422
      6 O           0.1920    1.5580    0.0000 O.3     1  LIG1       -0.4594
      7 C           1.1880    1.5580    0.0000 C.3     1  LIG1        0.2071
      8 C           1.6880    0.6960    0.0000 C.3     1  LIG1        0.0474
      9 C           2.6880    0.6960    0.0000 C.3     1  LIG1        0.0040
     10 S          -1.5080   -1.5540    0.0000 S.3     1  LIG1       -0.1041
     11 C          -2.3790   -1.0540    0.0000 C.3     1  LIG1        0.0747
     12 C          -1.8210    0.6380    0.0000 C.1     1  LIG1        0.1062
     13 N          -2.6920    1.1380    0.0000 N.1     1  LIG1       -0.1906
@<TRIPOS>BOND
     1     1     2   ar
     2     1     5   ar
     3     1    12    1
     4     2     3   ar
     5     2    10    1
     6     3     4   ar
     7     4     5   ar
     8     5     6    1
     9     6     7    1
    10     7     8    1
    11     8     9    1
    12    10    11    1
    13    12    13    3
