@<TRIPOS>MOLECULE
28291_ChemDiv_8006-4763
 21 22 0 0 0
SMALL
GASTEIGER
Energy = 0

@<TRIPOS>ATOM
      1 C           0.4500   -0.3170    0.0000 C.ar    1  LIG1        0.1056
      2 C          -0.3380   -0.8460    0.0000 C.ar    1  LIG1        0.0845
      3 S          -0.3380   -1.7130    0.0000 S.2     1  LIG1        0.0205
      4 N           1.2170   -1.7130    0.0000 N.ar    1  LIG1       -0.2017
      5 C           1.2170   -0.8460    0.0000 C.ar    1  LIG1        0.1255
      6 S           2.0960   -0.2920    0.0000 S.3     1  LIG1       -0.0837
      7 C           2.8960   -0.8210    0.0000 C.3     1  LIG1        0.1518
      8 C           3.7250   -0.2920    0.0000 C.2     1  LIG1        0.2721
      9 O           3.7130    0.7040    0.0000 O.2     1  LIG1       -0.2707
     10 N           4.5130   -0.8630    0.0000 N.am    1  LIG1       -0.0870
     11 S          -1.1710   -0.3170    0.0000 S.3     1  LIG1       -0.1003
     12 C          -1.9790   -0.7750    0.0000 C.3     1  LIG1        0.0898
     13 C          -2.7710   -0.2920    0.0000 C.ar    1  LIG1       -0.0004
     14 C          -2.7710    0.7040    0.0000 C.ar    1  LIG1        0.0545
     15 CL         -1.9040    1.1880    0.0000 Cl      1  LIG1       -0.0825
     16 C          -3.6500    1.1960    0.0000 C.ar    1  LIG1        0.0111
     17 C          -4.5170    0.7040    0.0000 C.ar    1  LIG1        0.0008
     18 C          -4.5170   -0.2920    0.0000 C.ar    1  LIG1       -0.0002
     19 C          -3.6500   -0.7920    0.0000 C.ar    1  LIG1       -0.0026
     20 C           0.4500    0.7040    0.0000 C.1     1  LIG1        0.1035
     21 N           0.4500    1.7170    0.0000 N.1     1  LIG1       -0.1907
@<TRIPOS>BOND
     1     1     2   ar
     2     1     5   ar
     3     1    20    1
     4     2     3   ar
     5     2    11    1
     6     3     4   ar
     7     4     5   ar
     8     5     6    1
     9     6     7    1
    10     7     8    1
    11     8     9    2
    12     8    10   am
    13    11    12    1
    14    12    13    1
    15    13    14   ar
    16    13    19   ar
    17    14    15    1
    18    14    16   ar
    19    16    17   ar
    20    17    18   ar
    21    18    19   ar
    22    20    21    3
