@<TRIPOS>MOLECULE
28290_ChemDiv_D226-0117
 26 28 0 0 0
SMALL
GASTEIGER
Energy = 0

@<TRIPOS>ATOM
      1 C          -1.6080   -0.9920    0.0000 C.ar    1  LIG1        0.1700
      2 C          -1.6080   -0.0420    0.0000 C.ar    1  LIG1        0.1533
      3 N           0.0580   -0.0420    0.0000 N.ar    1  LIG1       -0.2973
      4 C           0.0420   -1.0130    0.0000 C.ar    1  LIG1        0.1735
      5 N          -0.7880   -1.4790    0.0000 N.ar    1  LIG1       -0.2035
      6 S           0.7040   -1.6790    0.0000 S.3     1  LIG1       -0.0712
      7 C           1.5210   -2.1500    0.0000 C.3     1  LIG1        0.1065
      8 C           2.3420   -1.6790    0.0000 C.2     1  LIG1        0.0617
      9 O           2.3420   -0.7380    0.0000 O.co2   1  LIG1       -0.5483
     10 O           3.1460   -2.1500    0.0000 O.co2   1  LIG1       -0.5483
     11 C           0.3170    0.9460    0.0000 C.3     1  LIG1        0.1349
     12 C           1.2960    1.2080    0.0000 C.ar    1  LIG1        0.0004
     13 C           2.0170    0.4830    0.0000 C.ar    1  LIG1       -0.0027
     14 C           2.9920    0.7460    0.0000 C.ar    1  LIG1       -0.0045
     15 C           3.2540    1.7250    0.0000 C.ar    1  LIG1       -0.0219
     16 C           2.5290    2.4460    0.0000 C.ar    1  LIG1       -0.0045
     17 C           1.5540    2.1830    0.0000 C.ar    1  LIG1       -0.0027
     18 C           4.2330    1.9880    0.0000 C.3     1  LIG1        0.0310
     19 C          -2.4500    0.4580    0.0000 C.ar    1  LIG1        0.2832
     20 N          -3.2750   -0.0420    0.0000 N.ar    1  LIG1       -0.2454
     21 C          -3.2750   -1.0000    0.0000 C.ar    1  LIG1        0.3350
     22 N          -2.4500   -1.4750    0.0000 N.ar    1  LIG1       -0.2628
     23 C          -2.4500   -2.4420    0.0000 C.3     1  LIG1        0.1366
     24 O          -4.1080   -1.4790    0.0000 O.2     1  LIG1       -0.2461
     25 C          -4.2380   -0.0420    0.0000 C.3     1  LIG1        0.1383
     26 O          -2.4500    1.4210    0.0000 O.2     1  LIG1       -0.2652
@<TRIPOS>BOND
     1     1     2   ar
     2     1     5   ar
     3     1    22   ar
     4     2     3   ar
     5     2    19   ar
     6     3     4   ar
     7     3    11    1
     8     4     5   ar
     9     4     6    1
    10     6     7    1
    11     7     8    1
    12     8     9   ar
    13     8    10   ar
    14    11    12    1
    15    12    13   ar
    16    12    17   ar
    17    13    14   ar
    18    14    15   ar
    19    15    16   ar
    20    15    18    1
    21    16    17   ar
    22    19    20   ar
    23    19    26    2
    24    20    21   ar
    25    20    25    1
    26    21    22   ar
    27    21    24    2
    28    22    23    1
