@<TRIPOS>MOLECULE
28298_ChemDiv_2723-0008
 16 17 0 0 0
SMALL
GASTEIGER
Energy = 0

@<TRIPOS>ATOM
      1 C           0.4210   -0.0080    0.0000 C.ar    1  LIG1        0.0168
      2 C           0.4210    0.9960    0.0000 C.ar    1  LIG1        0.0055
      3 C          -0.4420    1.4960    0.0000 C.ar    1  LIG1        0.0401
      4 C          -1.3080    0.9790    0.0000 C.ar    1  LIG1        0.1724
      5 C          -1.3080    0.0080    0.0000 C.ar    1  LIG1        0.1724
      6 C          -0.4420   -0.5040    0.0000 C.ar    1  LIG1        0.0412
      7 O          -2.1920   -0.4880    0.0000 O.3     1  LIG1       -0.4684
      8 C          -3.0420    0.0420    0.0000 C.3     1  LIG1        0.2526
      9 O          -2.1920    1.4750    0.0000 O.3     1  LIG1       -0.4684
     10 C          -3.0420    0.9460    0.0000 C.3     1  LIG1        0.2526
     11 C           1.2920    1.4960    0.0000 C.ar    1  LIG1        0.0148
     12 C           2.1540    0.9790    0.0000 C.ar    1  LIG1        0.0590
     13 N           2.1540    0.0080    0.0000 N.ar    1  LIG1       -0.2540
     14 C           1.2920   -0.5040    0.0000 C.ar    1  LIG1        0.0590
     15 C           1.2920   -1.4920    0.0000 C.3     1  LIG1        0.0521
     16 C           3.0380    1.4750    0.0000 C.3     1  LIG1        0.0521
@<TRIPOS>BOND
     1     1     2   ar
     2     1     6   ar
     3     1    14   ar
     4     2     3   ar
     5     2    11   ar
     6     3     4   ar
     7     4     5   ar
     8     4     9    1
     9     5     6   ar
    10     5     7    1
    11     7     8    1
    12     9    10    1
    13    11    12   ar
    14    12    13   ar
    15    12    16    1
    16    13    14   ar
    17    14    15    1
