@<TRIPOS>MOLECULE
28295_ChemDiv_8012-0647
 33 35 0 0 0
SMALL
GASTEIGER
Energy = 0

@<TRIPOS>ATOM
      1 C          -3.0210   -0.8170    0.0000 C.ar    1  LIG1        0.1056
      2 C          -2.5330    0.0330    0.0000 C.ar    1  LIG1        0.0846
      3 S          -1.4790    0.0210    0.0000 S.2     1  LIG1        0.0205
      4 N          -1.0290   -0.8170    0.0000 N.ar    1  LIG1       -0.2017
      5 C          -1.5330   -1.6790    0.0000 C.ar    1  LIG1        0.1255
      6 S          -0.9630   -2.4960    0.0000 S.3     1  LIG1       -0.0837
      7 C           0.0920   -2.4960    0.0000 C.3     1  LIG1        0.1501
      8 C           0.5920   -1.6460    0.0000 C.2     1  LIG1        0.2528
      9 O           0.0920   -0.7880    0.0000 O.2     1  LIG1       -0.2724
     10 N           1.5880   -1.6460    0.0000 N.am    1  LIG1       -0.2043
     11 C           2.1210   -2.5170    0.0000 C.3     1  LIG1        0.1198
     12 C           3.0920   -2.5170    0.0000 C.3     1  LIG1        0.0498
     13 C           3.6040   -1.6880    0.0000 C.ar    1  LIG1       -0.0204
     14 C           4.5630   -1.6880    0.0000 C.ar    1  LIG1       -0.0042
     15 C           5.0170   -0.8540    0.0000 C.ar    1  LIG1       -0.0003
     16 C           4.5210   -0.0250    0.0000 C.ar    1  LIG1       -0.0000
     17 C           3.6040   -0.0250    0.0000 C.ar    1  LIG1       -0.0003
     18 C           3.1040   -0.8540    0.0000 C.ar    1  LIG1       -0.0042
     19 S          -3.0330    0.8500    0.0000 S.3     1  LIG1       -0.0952
     20 C          -2.6000    1.6960    0.0000 C.3     1  LIG1        0.1492
     21 C          -1.6080    1.6960    0.0000 C.2     1  LIG1        0.2527
     22 O          -1.1380    0.8830    0.0000 O.2     1  LIG1       -0.2724
     23 N          -1.1380    2.5000    0.0000 N.am    1  LIG1       -0.2043
     24 C          -0.1580    2.4920    0.0000 C.3     1  LIG1        0.1198
     25 C           0.3130    1.6710    0.0000 C.3     1  LIG1        0.0498
     26 C           1.3080    1.6710    0.0000 C.ar    1  LIG1       -0.0204
     27 C           1.8000    0.8250    0.0000 C.ar    1  LIG1       -0.0042
     28 C           2.7750    0.8250    0.0000 C.ar    1  LIG1       -0.0003
     29 C           3.2830    1.6710    0.0000 C.ar    1  LIG1       -0.0000
     30 C           2.7830    2.5210    0.0000 C.ar    1  LIG1       -0.0003
     31 C           1.8000    2.5210    0.0000 C.ar    1  LIG1       -0.0042
     32 C          -4.0130   -0.8170    0.0000 C.1     1  LIG1        0.1035
     33 N          -5.0210   -0.8170    0.0000 N.1     1  LIG1       -0.1907
@<TRIPOS>BOND
     1     1     2   ar
     2     1     5   ar
     3     1    32    1
     4     2     3   ar
     5     2    19    1
     6     3     4   ar
     7     4     5   ar
     8     5     6    1
     9     6     7    1
    10     7     8    1
    11     8     9    2
    12     8    10   am
    13    10    11    1
    14    11    12    1
    15    12    13    1
    16    13    14   ar
    17    13    18   ar
    18    14    15   ar
    19    15    16   ar
    20    16    17   ar
    21    17    18   ar
    22    19    20    1
    23    20    21    1
    24    21    22    2
    25    21    23   am
    26    23    24    1
    27    24    25    1
    28    25    26    1
    29    26    27   ar
    30    26    31   ar
    31    27    28   ar
    32    28    29   ar
    33    29    30   ar
    34    30    31   ar
    35    32    33    3
