@<TRIPOS>MOLECULE
28293_ChemDiv_8011-9057
 29 31 0 0 0
SMALL
GASTEIGER
Energy = 0

@<TRIPOS>ATOM
      1 C          -0.8630    0.4750    0.0000 C.ar    1  LIG1        0.1056
      2 C          -0.8630   -0.5170    0.0000 C.ar    1  LIG1        0.0846
      3 S          -0.0130   -1.0080    0.0000 S.2     1  LIG1        0.0205
      4 N           0.8420   -0.5170    0.0000 N.ar    1  LIG1       -0.2017
      5 C           0.8420    0.4750    0.0000 C.ar    1  LIG1        0.1255
      6 S           1.7000    0.9710    0.0000 S.3     1  LIG1       -0.0837
      7 C           2.5580    0.4750    0.0000 C.3     1  LIG1        0.1505
      8 C           3.4250    0.9710    0.0000 C.2     1  LIG1        0.2583
      9 N           4.2630    0.4540    0.0000 N.am    1  LIG1       -0.1596
     10 C           4.2630   -0.4290    0.0000 C.ar    1  LIG1        0.1545
     11 N           5.1670   -0.8920    0.0000 N.ar    1  LIG1       -0.2273
     12 C           5.1670   -1.8880    0.0000 C.ar    1  LIG1        0.1004
     13 C           4.3290   -2.3420    0.0000 C.ar    1  LIG1        0.0208
     14 C           3.4330   -1.8380    0.0000 C.ar    1  LIG1        0.0045
     15 C           3.4460   -0.8920    0.0000 C.ar    1  LIG1        0.0362
     16 O           3.4250    1.9290    0.0000 O.2     1  LIG1       -0.2720
     17 S          -1.7210   -1.0080    0.0000 S.3     1  LIG1       -0.0952
     18 C          -2.5710   -0.5170    0.0000 C.3     1  LIG1        0.1496
     19 C          -3.4330   -1.0080    0.0000 C.2     1  LIG1        0.2582
     20 N          -4.2960   -0.5000    0.0000 N.am    1  LIG1       -0.1596
     21 C          -4.2960    0.3790    0.0000 C.ar    1  LIG1        0.1545
     22 N          -5.1710    0.8580    0.0000 N.ar    1  LIG1       -0.2273
     23 C          -5.1710    1.8330    0.0000 C.ar    1  LIG1        0.1004
     24 C          -4.3330    2.3460    0.0000 C.ar    1  LIG1        0.0208
     25 C          -3.4960    1.8500    0.0000 C.ar    1  LIG1        0.0045
     26 C          -3.4960    0.8580    0.0000 C.ar    1  LIG1        0.0362
     27 O          -3.4330   -2.0040    0.0000 O.2     1  LIG1       -0.2720
     28 C          -1.7210    0.9710    0.0000 C.1     1  LIG1        0.1035
     29 N          -2.5630    1.4460    0.0000 N.1     1  LIG1       -0.1907
@<TRIPOS>BOND
     1     1     2   ar
     2     1     5   ar
     3     1    28    1
     4     2     3   ar
     5     2    17    1
     6     3     4   ar
     7     4     5   ar
     8     5     6    1
     9     6     7    1
    10     7     8    1
    11     8     9   am
    12     8    16    2
    13     9    10    1
    14    10    11   ar
    15    10    15   ar
    16    11    12   ar
    17    12    13   ar
    18    13    14   ar
    19    14    15   ar
    20    17    18    1
    21    18    19    1
    22    19    20   am
    23    19    27    2
    24    20    21    1
    25    21    22   ar
    26    21    26   ar
    27    22    23   ar
    28    23    24   ar
    29    24    25   ar
    30    25    26   ar
    31    28    29    3
