@<TRIPOS>MOLECULE
28301_ChemDiv_8017-0978
 13 13 0 0 0
SMALL
GASTEIGER
Energy = 0

@<TRIPOS>ATOM
      1 C          -0.4580   -0.2920    0.0000 C.ar    1  LIG1        0.1350
      2 C           0.4290    0.1580    0.0000 C.ar    1  LIG1        0.2421
      3 N           1.1380   -0.5420    0.0000 N.ar    1  LIG1       -0.1727
      4 S           0.6790   -1.4380    0.0000 S.2     1  LIG1        0.0233
      5 C          -0.3040   -1.2790    0.0000 C.ar    1  LIG1        0.0869
      6 S          -1.0080   -1.9880    0.0000 S.3     1  LIG1       -0.1041
      7 C          -1.8790   -1.4880    0.0000 C.3     1  LIG1        0.0747
      8 O           0.6880    1.1210    0.0000 O.3     1  LIG1       -0.4632
      9 C           1.6880    1.1210    0.0000 C.3     1  LIG1        0.1678
     10 C           2.1880    1.9920    0.0000 C.3     1  LIG1        0.0473
     11 C           2.1880    0.2540    0.0000 C.3     1  LIG1        0.0473
     12 C          -1.3210    0.2040    0.0000 C.1     1  LIG1        0.1062
     13 N          -2.1920    0.7040    0.0000 N.1     1  LIG1       -0.1906
@<TRIPOS>BOND
     1     1     2   ar
     2     1     5   ar
     3     1    12    1
     4     2     3   ar
     5     2     8    1
     6     3     4   ar
     7     4     5   ar
     8     5     6    1
     9     6     7    1
    10     8     9    1
    11     9    10    1
    12     9    11    1
    13    12    13    3
