@<TRIPOS>MOLECULE
28302_ChemDiv_5222-3460
 20 22 0 0 0
SMALL
GASTEIGER
Energy = 0

@<TRIPOS>ATOM
      1 C           1.7460    0.5000    0.0000 C.ar    1  LIG1        0.1201
      2 C           1.7460   -0.4880    0.0000 C.2     1  LIG1        0.2130
      3 C           0.8790   -1.0040    0.0000 C.ar    1  LIG1        0.0407
      4 C           0.8540   -2.0130    0.0000 C.ar    1  LIG1        0.0063
      5 C           0.0130   -2.4960    0.0000 C.ar    1  LIG1        0.0370
      6 C          -0.8830   -1.9920    0.0000 C.ar    1  LIG1        0.1387
      7 C          -0.8540   -0.9710    0.0000 C.ar    1  LIG1        0.0370
      8 C           0.0130   -0.4880    0.0000 C.ar    1  LIG1        0.0063
      9 O          -1.7540   -2.4960    0.0000 O.3     1  LIG1       -0.4714
     10 C          -2.6210   -1.9670    0.0000 C.3     1  LIG1        0.2525
     11 O           2.5880   -1.0040    0.0000 O.2     1  LIG1       -0.2850
     12 C           0.8790    1.0040    0.0000 C.ar    1  LIG1        0.0209
     13 C           0.8790    1.9920    0.0000 C.ar    1  LIG1        0.0031
     14 C           1.7460    2.5000    0.0000 C.ar    1  LIG1        0.0207
     15 C           2.6170    1.9920    0.0000 C.ar    1  LIG1        0.0989
     16 N           2.6170    1.0040    0.0000 N.ar    1  LIG1       -0.2406
     17 C           0.0330    2.5000    0.0000 C.ar    1  LIG1        0.0001
     18 C          -0.8330    1.9920    0.0000 C.ar    1  LIG1        0.0000
     19 C          -0.8330    1.0040    0.0000 C.ar    1  LIG1        0.0000
     20 C           0.0330    0.5000    0.0000 C.ar    1  LIG1        0.0016
@<TRIPOS>BOND
     1     1     2    1
     2     1    12   ar
     3     1    16   ar
     4     2     3    1
     5     2    11    2
     6     3     4   ar
     7     3     8   ar
     8     4     5   ar
     9     5     6   ar
    10     6     7   ar
    11     6     9    1
    12     7     8   ar
    13     9    10    1
    14    12    13   ar
    15    12    20   ar
    16    13    14   ar
    17    13    17   ar
    18    14    15   ar
    19    15    16   ar
    20    17    18   ar
    21    18    19   ar
    22    19    20   ar
