@<TRIPOS>MOLECULE
28303_ChemDiv_8017-1212
 12 12 0 0 0
SMALL
GASTEIGER
Energy = 0

@<TRIPOS>ATOM
      1 C           0.0670    0.1380    0.0000 C.ar    1  LIG1        0.1350
      2 C           0.2170   -0.8500    0.0000 C.ar    1  LIG1        0.0869
      3 S           1.2040   -1.0040    0.0000 S.2     1  LIG1        0.0233
      4 N           1.6630   -0.1130    0.0000 N.ar    1  LIG1       -0.1727
      5 C           0.9540    0.5960    0.0000 C.ar    1  LIG1        0.2423
      6 O           1.2130    1.5580    0.0000 O.3     1  LIG1       -0.4553
      7 C           2.2130    1.5580    0.0000 C.3     1  LIG1        0.2543
      8 S          -0.4830   -1.5540    0.0000 S.3     1  LIG1       -0.1050
      9 C          -1.3540   -1.0540    0.0000 C.3     1  LIG1        0.0628
     10 C          -2.2170   -1.5540    0.0000 C.3     1  LIG1        0.0129
     11 C          -0.7960    0.6380    0.0000 C.1     1  LIG1        0.1062
     12 N          -1.6670    1.1380    0.0000 N.1     1  LIG1       -0.1906
@<TRIPOS>BOND
     1     1     2   ar
     2     1     5   ar
     3     1    11    1
     4     2     3   ar
     5     2     8    1
     6     3     4   ar
     7     4     5   ar
     8     5     6    1
     9     6     7    1
    10     8     9    1
    11     9    10    1
    12    11    12    3
