@<TRIPOS>MOLECULE
28300_ChemDiv_3448-5718
 24 27 0 0 0
SMALL
GASTEIGER
Energy = 0

@<TRIPOS>ATOM
      1 C           0.9670    1.2000    0.0000 C.ar    1  LIG1        0.2460
      2 N           1.9130    1.5250    0.0000 N.ar    1  LIG1       -0.1733
      3 C           2.6710    0.8790    0.0000 C.ar    1  LIG1        0.2830
      4 C           2.4880   -0.1080    0.0000 C.ar    1  LIG1        0.0753
      5 C           1.5210   -0.4290    0.0000 C.ar    1  LIG1        0.0889
      6 N           0.7920    0.2170    0.0000 N.ar    1  LIG1       -0.2119
      7 C           1.3080   -1.4210    0.0000 C.ar    1  LIG1        0.0190
      8 C           2.0580   -2.0960    0.0000 C.ar    1  LIG1       -0.0027
      9 C           3.0040   -1.7750    0.0000 C.ar    1  LIG1       -0.0216
     10 C           3.2080   -0.7880    0.0000 C.ar    1  LIG1        0.0021
     11 C           3.7380   -2.4380    0.0000 C.3     1  LIG1        0.0310
     12 O           3.6040    1.2130    0.0000 O.3     1  LIG1       -0.2651
     13 N           0.2170    1.8460    0.0000 N.pl3   1  LIG1       -0.1415
     14 C          -0.7540    1.5250    0.0000 C.ar    1  LIG1        0.2430
     15 N          -1.5290    2.1710    0.0000 N.ar    1  LIG1       -0.2164
     16 C          -2.4500    1.7960    0.0000 C.ar    1  LIG1        0.0637
     17 C          -2.6380    0.8210    0.0000 C.ar    1  LIG1        0.0314
     18 C          -1.8750    0.1880    0.0000 C.ar    1  LIG1        0.0854
     19 N          -0.9330    0.5330    0.0000 N.ar    1  LIG1       -0.2121
     20 C          -2.0380   -0.8170    0.0000 C.ar    1  LIG1        0.0192
     21 C          -2.9790   -1.1630    0.0000 C.ar    1  LIG1        0.0015
     22 C          -3.7420   -0.5250    0.0000 C.ar    1  LIG1        0.0001
     23 C          -3.5540    0.4670    0.0000 C.ar    1  LIG1        0.0027
     24 C          -3.2130    2.4420    0.0000 C.3     1  LIG1        0.0522
@<TRIPOS>BOND
     1     1     2   ar
     2     1     6   ar
     3     1    13    1
     4     2     3   ar
     5     3     4   ar
     6     3    12    1
     7     4     5   ar
     8     4    10   ar
     9     5     6   ar
    10     5     7   ar
    11     7     8   ar
    12     8     9   ar
    13     9    10   ar
    14     9    11    1
    15    13    14    1
    16    14    15   ar
    17    14    19   ar
    18    15    16   ar
    19    16    17   ar
    20    16    24    1
    21    17    18   ar
    22    17    23   ar
    23    18    19   ar
    24    18    20   ar
    25    20    21   ar
    26    21    22   ar
    27    22    23   ar
