@<TRIPOS>MOLECULE
28306_ChemDiv_8015-6735
 21 23 0 0 0
SMALL
GASTEIGER
Energy = 0

@<TRIPOS>ATOM
      1 C           2.1670    0.2170    0.0000 C.2     1  LIG1        0.3803
      2 N           2.1750    1.2210    0.0000 N.am    1  LIG1       -0.1956
      3 C           1.2920    1.7330    0.0000 C.2     1  LIG1        0.2354
      4 C           0.4540    1.2210    0.0000 C.3     1  LIG1        0.1064
      5 C           0.4540    0.2130    0.0000 C.3     1  LIG1        0.1462
      6 S           1.2920   -0.2540    0.0000 S.3     1  LIG1       -0.0141
      7 C          -0.4290   -0.2540    0.0000 C.2     1  LIG1        0.2563
      8 N          -1.2670    0.2130    0.0000 N.am    1  LIG1       -0.1785
      9 C          -2.1540   -0.2540    0.0000 C.ar    1  LIG1        0.0739
     10 C          -2.1920   -1.2670    0.0000 C.ar    1  LIG1        0.0233
     11 C          -3.0790   -1.7290    0.0000 C.ar    1  LIG1        0.0359
     12 BR         -3.1080   -2.7250    0.0000 Br      1  LIG1       -0.0490
     13 C          -3.9290   -1.2000    0.0000 C.ar    1  LIG1        0.0068
     14 C          -3.8790   -0.2040    0.0000 C.ar    1  LIG1        0.0018
     15 C          -3.0040    0.2710    0.0000 C.ar    1  LIG1        0.0166
     16 O          -0.4290   -1.2670    0.0000 O.2     1  LIG1       -0.2720
     17 O           1.2920    2.7290    0.0000 O.2     1  LIG1       -0.2743
     18 C           3.0500    1.7210    0.0000 C.3     1  LIG1        0.1120
     19 C           3.9170    1.2040    0.0000 C.3     1  LIG1        0.1145
     20 C           3.9250    0.1960    0.0000 C.3     1  LIG1        0.3973
     21 N           3.0420   -0.2920    0.0000 N.2     1  LIG1        0.0768
@<TRIPOS>BOND
     1     1     2    1
     2     1     6    1
     3     1    21    2
     4     2     3   am
     5     2    18    1
     6     3     4    1
     7     3    17    2
     8     4     5    1
     9     5     6    1
    10     5     7    1
    11     7     8   am
    12     7    16    2
    13     8     9    1
    14     9    10   ar
    15     9    15   ar
    16    10    11   ar
    17    11    12    1
    18    11    13   ar
    19    13    14   ar
    20    14    15   ar
    21    18    19    1
    22    19    20    1
    23    20    21    1
