@<TRIPOS>MOLECULE
28324_ChemDiv_6253-0190
 13 14 0 0 0
SMALL
GASTEIGER
Energy = 0

@<TRIPOS>ATOM
      1 N           1.2830   -0.0250    0.0000 N.ar    1  LIG1       -0.2123
      2 C           0.4080   -0.5080    0.0000 C.ar    1  LIG1        0.0623
      3 C          -0.4420    0.0080    0.0000 C.ar    1  LIG1        0.0099
      4 C          -0.4290    1.0080    0.0000 C.ar    1  LIG1        0.0056
      5 C           0.4420    1.4920    0.0000 C.ar    1  LIG1        0.0625
      6 C           1.3040    0.9830    0.0000 C.ar    1  LIG1        0.2790
      7 O           2.1750    1.4670    0.0000 O.3     1  LIG1       -0.2652
      8 C          -1.2880    1.5130    0.0000 C.ar    1  LIG1        0.0002
      9 C          -2.1630    1.0250    0.0000 C.ar    1  LIG1       -0.0003
     10 C          -2.1790    0.0210    0.0000 C.ar    1  LIG1       -0.0042
     11 C          -1.3170   -0.4880    0.0000 C.ar    1  LIG1       -0.0207
     12 C          -1.3210   -1.4880    0.0000 C.3     1  LIG1        0.0311
     13 C           0.3960   -1.5080    0.0000 C.3     1  LIG1        0.0522
@<TRIPOS>BOND
     1     1     2   ar
     2     1     6   ar
     3     2     3   ar
     4     2    13    1
     5     3     4   ar
     6     3    11   ar
     7     4     5   ar
     8     4     8   ar
     9     5     6   ar
    10     6     7    1
    11     8     9   ar
    12     9    10   ar
    13    10    11   ar
    14    11    12    1
