@<TRIPOS>MOLECULE
28326_ChemDiv_6253-0191
 14 15 0 0 0
SMALL
GASTEIGER
Energy = 0

@<TRIPOS>ATOM
      1 N           2.1380   -0.0380    0.0000 N.ar    1  LIG1       -0.2122
      2 C           1.2670   -0.5210    0.0000 C.ar    1  LIG1        0.0626
      3 C           0.4130   -0.0040    0.0000 C.ar    1  LIG1        0.0140
      4 C           0.4250    0.9960    0.0000 C.ar    1  LIG1        0.0089
      5 C           1.2960    1.4790    0.0000 C.ar    1  LIG1        0.0626
      6 C           2.1580    0.9710    0.0000 C.ar    1  LIG1        0.2790
      7 O           3.0330    1.4540    0.0000 O.3     1  LIG1       -0.2652
      8 C          -0.4290    1.5000    0.0000 C.ar    1  LIG1        0.0371
      9 C          -1.3080    1.0130    0.0000 C.ar    1  LIG1        0.1387
     10 C          -1.3250    0.0080    0.0000 C.ar    1  LIG1        0.0369
     11 C          -0.4630   -0.5000    0.0000 C.ar    1  LIG1        0.0043
     12 O          -2.1630    1.5250    0.0000 O.3     1  LIG1       -0.4714
     13 C          -3.0380    1.0290    0.0000 C.3     1  LIG1        0.2525
     14 C           1.2500   -1.5210    0.0000 C.3     1  LIG1        0.0522
@<TRIPOS>BOND
     1     1     2   ar
     2     1     6   ar
     3     2     3   ar
     4     2    14    1
     5     3     4   ar
     6     3    11   ar
     7     4     5   ar
     8     4     8   ar
     9     5     6   ar
    10     6     7    1
    11     8     9   ar
    12     9    10   ar
    13     9    12    1
    14    10    11   ar
    15    12    13    1
