@<TRIPOS>MOLECULE
28321_ChemDiv_8017-5110
 13 13 0 0 0
SMALL
GASTEIGER
Energy = 0

@<TRIPOS>ATOM
      1 C          -0.2880    0.1380    0.0000 C.ar    1  LIG1        0.1350
      2 C          -0.1330   -0.8500    0.0000 C.ar    1  LIG1        0.0869
      3 S           0.8540   -1.0040    0.0000 S.2     1  LIG1        0.0233
      4 N           1.3040   -0.1130    0.0000 N.ar    1  LIG1       -0.1727
      5 C           0.6000    0.5960    0.0000 C.ar    1  LIG1        0.2422
      6 O           0.8630    1.5580    0.0000 O.3     1  LIG1       -0.4594
      7 C           1.8670    1.5580    0.0000 C.3     1  LIG1        0.2073
      8 C           2.5710    0.8580    0.0000 C.3     1  LIG1        0.0512
      9 S          -0.8460   -1.5540    0.0000 S.3     1  LIG1       -0.1050
     10 C          -1.7130   -1.0540    0.0000 C.3     1  LIG1        0.0628
     11 C          -2.5750   -1.5540    0.0000 C.3     1  LIG1        0.0129
     12 C          -1.1580    0.6380    0.0000 C.1     1  LIG1        0.1062
     13 N          -2.0250    1.1380    0.0000 N.1     1  LIG1       -0.1906
@<TRIPOS>BOND
     1     1     2   ar
     2     1     5   ar
     3     1    12    1
     4     2     3   ar
     5     2     9    1
     6     3     4   ar
     7     4     5   ar
     8     5     6    1
     9     6     7    1
    10     7     8    1
    11     9    10    1
    12    10    11    1
    13    12    13    3
