@<TRIPOS>MOLECULE
28323_ChemDiv_2449-0152
 19 20 0 0 0
SMALL
GASTEIGER
Energy = 0

@<TRIPOS>ATOM
      1 C           0.5830   -0.5630    0.0000 C.ar    1  LIG1        0.1121
      2 C           0.2460   -1.4750    0.0000 C.ar    1  LIG1        0.0900
      3 S           1.0710   -2.1080    0.0000 S.2     1  LIG1        0.0212
      4 N           1.9080   -1.5500    0.0000 N.ar    1  LIG1       -0.2011
      5 C           1.6170   -0.5630    0.0000 C.ar    1  LIG1        0.1309
      6 S           2.2080    0.2290    0.0000 S.3     1  LIG1       -0.0921
      7 C           3.1790    0.1130    0.0000 C.3     1  LIG1        0.0757
      8 S          -0.7130   -1.7130    0.0000 S.3     1  LIG1       -0.1036
      9 C          -0.9830   -2.6540    0.0000 C.3     1  LIG1        0.0748
     10 N           0.0000    0.2380    0.0000 N.am    1  LIG1       -0.1576
     11 C           0.3920    1.1380    0.0000 C.2     1  LIG1        0.3478
     12 N          -0.1880    1.9330    0.0000 N.am    1  LIG1       -0.1607
     13 C          -1.1790    1.8420    0.0000 C.ar    1  LIG1        0.0750
     14 C          -1.7710    2.6580    0.0000 C.ar    1  LIG1        0.0167
     15 C          -2.7750    2.5420    0.0000 C.ar    1  LIG1        0.0013
     16 C          -3.1830    1.6330    0.0000 C.ar    1  LIG1        0.0001
     17 C          -2.5880    0.8170    0.0000 C.ar    1  LIG1        0.0013
     18 C          -1.5880    0.9210    0.0000 C.ar    1  LIG1        0.0167
     19 O           1.3750    1.2630    0.0000 O.2     1  LIG1       -0.2484
@<TRIPOS>BOND
     1     1     2   ar
     2     1     5   ar
     3     1    10    1
     4     2     3   ar
     5     2     8    1
     6     3     4   ar
     7     4     5   ar
     8     5     6    1
     9     6     7    1
    10     8     9    1
    11    10    11   am
    12    11    12   am
    13    11    19    2
    14    12    13    1
    15    13    14   ar
    16    13    18   ar
    17    14    15   ar
    18    15    16   ar
    19    16    17   ar
    20    17    18   ar
