@<TRIPOS>MOLECULE
28320_ChemDiv_4167-0094
 26 28 0 0 0
SMALL
GASTEIGER
Energy = 0

@<TRIPOS>ATOM
      1 C          -2.9330    0.2000    0.0000 C.2     1  LIG1        0.1542
      2 C          -3.8750   -0.1170    0.0000 C.2     1  LIG1        0.3500
      3 O          -4.0920   -1.0960    0.0000 O.3     1  LIG1       -0.4170
      4 C          -3.3330   -1.7040    0.0000 C.3     1  LIG1        0.2758
      5 O          -2.4000   -1.4380    0.0000 O.3     1  LIG1       -0.4170
      6 C          -2.1830   -0.4790    0.0000 C.2     1  LIG1        0.3500
      7 O          -1.2330   -0.1500    0.0000 O.2     1  LIG1       -0.2446
      8 C          -4.2540   -2.0330    0.0000 C.3     1  LIG1        0.0915
      9 C          -2.6000   -2.4330    0.0000 C.3     1  LIG1        0.0915
     10 O          -4.6080    0.5670    0.0000 O.2     1  LIG1       -0.2446
     11 C          -2.7170    1.1750    0.0000 C.2     1  LIG1        0.0505
     12 C          -1.7540    1.4830    0.0000 C.ar    1  LIG1        0.1458
     13 O          -0.9380    0.9000    0.0000 O.2     1  LIG1       -0.4535
     14 C          -0.1380    1.4830    0.0000 C.ar    1  LIG1        0.1453
     15 C          -0.4460    2.4380    0.0000 C.ar    1  LIG1        0.0406
     16 C          -1.4500    2.4380    0.0000 C.ar    1  LIG1        0.0406
     17 C           0.8040    1.1750    0.0000 C.ar    1  LIG1        0.0346
     18 C           1.0210    0.1880    0.0000 C.ar    1  LIG1        0.0044
     19 C           1.9830   -0.1170    0.0000 C.ar    1  LIG1        0.0201
     20 C           2.7380    0.5670    0.0000 C.ar    1  LIG1        0.1250
     21 S           3.6750    0.2380    0.0000 S.O2    1  LIG1        0.0935
     22 O           3.9580    1.2330    0.0000 O.2     1  LIG1       -0.1503
     23 O           3.3580   -0.7170    0.0000 O.2     1  LIG1       -0.1503
     24 N           4.6040   -0.0330    0.0000 N.3     1  LIG1        0.0392
     25 C           2.5170    1.5330    0.0000 C.ar    1  LIG1        0.0201
     26 C           1.5540    1.8420    0.0000 C.ar    1  LIG1        0.0044
@<TRIPOS>BOND
     1     1     2    1
     2     1     6    1
     3     1    11    2
     4     2     3    1
     5     2    10    2
     6     3     4    1
     7     4     5    1
     8     4     8    1
     9     4     9    1
    10     5     6    1
    11     6     7    2
    12    11    12    1
    13    12    13   ar
    14    12    16   ar
    15    13    14   ar
    16    14    15   ar
    17    14    17    1
    18    15    16   ar
    19    17    18   ar
    20    17    26   ar
    21    18    19   ar
    22    19    20   ar
    23    20    21    1
    24    20    25   ar
    25    21    22    2
    26    21    23    2
    27    21    24    1
    28    25    26   ar
