@<TRIPOS>MOLECULE
28325_ChemDiv_8006-2441
 19 20 0 0 0
SMALL
GASTEIGER
Energy = 0

@<TRIPOS>ATOM
      1 C           1.9750   -0.2540    0.0000 C.ar    1  LIG1        0.0925
      2 C           0.9750   -0.2920    0.0000 C.2     1  LIG1        0.2720
      3 N           0.4790    0.5580    0.0000 N.am    1  LIG1       -0.1754
      4 C          -0.5540    0.5580    0.0000 C.ar    1  LIG1        0.0737
      5 C          -1.0460   -0.3130    0.0000 C.ar    1  LIG1        0.0171
      6 C          -2.0380   -0.3380    0.0000 C.ar    1  LIG1        0.0080
      7 C          -2.5330    0.5080    0.0000 C.ar    1  LIG1        0.0347
      8 BR         -3.5540    0.4630    0.0000 Br      1  LIG1       -0.0490
      9 C          -2.0580    1.3920    0.0000 C.ar    1  LIG1        0.0080
     10 C          -1.0380    1.4130    0.0000 C.ar    1  LIG1        0.0171
     11 O           0.5000   -1.1500    0.0000 O.2     1  LIG1       -0.2679
     12 C           2.6460   -1.0000    0.0000 C.ar    1  LIG1        0.0790
     13 S           3.5500   -0.5540    0.0000 S.2     1  LIG1        0.0199
     14 N           3.4460    0.3960    0.0000 N.ar    1  LIG1       -0.2023
     15 C           2.4500    0.6000    0.0000 C.ar    1  LIG1        0.1199
     16 S           2.0670    1.5290    0.0000 S.3     1  LIG1       -0.0932
     17 C           2.6580    2.3330    0.0000 C.3     1  LIG1        0.0757
     18 S           2.4500   -2.0080    0.0000 S.3     1  LIG1       -0.1047
     19 C           1.4880   -2.3290    0.0000 C.3     1  LIG1        0.0747
@<TRIPOS>BOND
     1     1     2    1
     2     1    12   ar
     3     1    15   ar
     4     2     3   am
     5     2    11    2
     6     3     4    1
     7     4     5   ar
     8     4    10   ar
     9     5     6   ar
    10     6     7   ar
    11     7     8    1
    12     7     9   ar
    13     9    10   ar
    14    12    13   ar
    15    12    18    1
    16    13    14   ar
    17    14    15   ar
    18    15    16    1
    19    16    17    1
    20    18    19    1
