@<TRIPOS>MOLECULE
28329_ChemDiv_2449-0169
 19 20 0 0 0
SMALL
GASTEIGER
Energy = 0

@<TRIPOS>ATOM
      1 C           1.7630    0.0290    0.0000 C.ar    1  LIG1        0.1138
      2 C           1.4540   -0.9290    0.0000 C.ar    1  LIG1        0.0900
      3 S           2.2420   -1.5250    0.0000 S.2     1  LIG1        0.0212
      4 N           3.0790   -0.9380    0.0000 N.ar    1  LIG1       -0.2011
      5 C           2.8000    0.0290    0.0000 C.ar    1  LIG1        0.1309
      6 S           3.4130    0.7920    0.0000 S.3     1  LIG1       -0.0921
      7 C           3.0710    1.7130    0.0000 C.3     1  LIG1        0.0757
      8 S           0.5170   -1.2290    0.0000 S.3     1  LIG1       -0.1036
      9 C           0.3170   -2.2130    0.0000 C.3     1  LIG1        0.0748
     10 N           1.1500    0.7920    0.0000 N.am    1  LIG1       -0.1393
     11 C           0.1710    0.6880    0.0000 C.2     1  LIG1        0.4254
     12 O          -0.4330    1.5000    0.0000 O.3     1  LIG1       -0.4371
     13 C          -1.4250    1.3920    0.0000 C.3     1  LIG1        0.1705
     14 C          -1.8250    0.4790    0.0000 C.3     1  LIG1        0.0437
     15 C          -2.8290    0.3880    0.0000 C.3     1  LIG1        0.0037
     16 C          -3.4170    1.2040    0.0000 C.3     1  LIG1        0.0002
     17 C          -3.0040    2.1040    0.0000 C.3     1  LIG1        0.0037
     18 C          -2.0130    2.2170    0.0000 C.3     1  LIG1        0.0437
     19 O          -0.2130   -0.2380    0.0000 O.2     1  LIG1       -0.2242
@<TRIPOS>BOND
     1     1     2   ar
     2     1     5   ar
     3     1    10    1
     4     2     3   ar
     5     2     8    1
     6     3     4   ar
     7     4     5   ar
     8     5     6    1
     9     6     7    1
    10     8     9    1
    11    10    11   am
    12    11    12    1
    13    11    19    2
    14    12    13    1
    15    13    14    1
    16    13    18    1
    17    14    15    1
    18    15    16    1
    19    16    17    1
    20    17    18    1
