@<TRIPOS>MOLECULE
28322_ChemDiv_6253-0189
 13 14 0 0 0
SMALL
GASTEIGER
Energy = 0

@<TRIPOS>ATOM
      1 N           1.7040   -0.0380    0.0000 N.ar    1  LIG1       -0.2122
      2 C           0.8330   -0.5210    0.0000 C.ar    1  LIG1        0.0626
      3 C          -0.0210   -0.0040    0.0000 C.ar    1  LIG1        0.0138
      4 C          -0.0040    0.9920    0.0000 C.ar    1  LIG1        0.0056
      5 C           0.8630    1.4790    0.0000 C.ar    1  LIG1        0.0625
      6 C           1.7250    0.9670    0.0000 C.ar    1  LIG1        0.2790
      7 O           2.6000    1.4540    0.0000 O.3     1  LIG1       -0.2652
      8 C          -0.8630    1.5000    0.0000 C.ar    1  LIG1       -0.0041
      9 C          -1.7420    1.0130    0.0000 C.ar    1  LIG1       -0.0218
     10 C          -1.7540    0.0080    0.0000 C.ar    1  LIG1       -0.0042
     11 C          -0.8920   -0.5000    0.0000 C.ar    1  LIG1        0.0009
     12 C          -2.6040    1.5250    0.0000 C.3     1  LIG1        0.0310
     13 C           0.8170   -1.5210    0.0000 C.3     1  LIG1        0.0522
@<TRIPOS>BOND
     1     1     2   ar
     2     1     6   ar
     3     2     3   ar
     4     2    13    1
     5     3     4   ar
     6     3    11   ar
     7     4     5   ar
     8     4     8   ar
     9     5     6   ar
    10     6     7    1
    11     8     9   ar
    12     9    10   ar
    13     9    12    1
    14    10    11   ar
