@<TRIPOS>MOLECULE
28336_ChemDiv_8016-9767
 13 14 0 0 0
SMALL
GASTEIGER
Energy = 0

@<TRIPOS>ATOM
      1 C          -0.0040   -0.9960    0.0000 C.ar    1  LIG1        0.1648
      2 N           0.8670   -1.4960    0.0000 N.ar    1  LIG1       -0.1888
      3 C           1.7330   -0.9960    0.0000 C.ar    1  LIG1        0.2807
      4 C           1.7330    0.0000    0.0000 C.ar    1  LIG1        0.0626
      5 C           0.8670    0.5000    0.0000 C.ar    1  LIG1        0.0077
      6 C          -0.0040    0.0000    0.0000 C.ar    1  LIG1        0.0321
      7 C          -0.8710    0.5000    0.0000 C.ar    1  LIG1       -0.0177
      8 C          -1.7330    0.0000    0.0000 C.ar    1  LIG1        0.0106
      9 C          -1.7330   -0.9960    0.0000 C.ar    1  LIG1        0.0607
     10 N          -0.8710   -1.5040    0.0000 N.ar    1  LIG1       -0.2309
     11 C          -2.6000   -1.4960    0.0000 C.3     1  LIG1        0.0521
     12 C          -0.8710    1.5080    0.0000 C.3     1  LIG1        0.0312
     13 O           2.5960   -1.4960    0.0000 O.3     1  LIG1       -0.2651
@<TRIPOS>BOND
     1     1     2   ar
     2     1     6   ar
     3     1    10   ar
     4     2     3   ar
     5     3     4   ar
     6     3    13    1
     7     4     5   ar
     8     5     6   ar
     9     6     7   ar
    10     7     8   ar
    11     7    12    1
    12     8     9   ar
    13     9    10   ar
    14     9    11    1
