@<TRIPOS>MOLECULE
28332_ChemDiv_8011-2572
 26 28 0 0 0
SMALL
GASTEIGER
Energy = 0

@<TRIPOS>ATOM
      1 C          -1.2880    0.4250    0.0000 C.ar    1  LIG1        0.0171
      2 C          -0.2830    0.4250    0.0000 C.ar    1  LIG1        0.0635
      3 C           0.2170   -0.4250    0.0000 C.3     1  LIG1        0.0735
      4 C           1.2130   -0.4250    0.0000 C.ar    1  LIG1        0.0038
      5 C           1.7130   -1.2960    0.0000 C.ar    1  LIG1        0.0887
      6 C           2.7170   -1.2960    0.0000 C.ar    1  LIG1        0.0578
      7 C           3.2170   -0.4250    0.0000 C.ar    1  LIG1        0.1737
      8 C           2.7170    0.4250    0.0000 C.ar    1  LIG1        0.1722
      9 C           1.7420    0.4250    0.0000 C.ar    1  LIG1        0.0375
     10 O           3.1630    1.3130    0.0000 O.3     1  LIG1       -0.4684
     11 C           4.1750    1.3130    0.0000 C.3     1  LIG1        0.2526
     12 O           4.2460   -0.4250    0.0000 O.3     1  LIG1       -0.4683
     13 C           4.7460   -1.2750    0.0000 C.3     1  LIG1        0.2526
     14 N           1.2170   -2.1630    0.0000 N.pl3   1  LIG1       -0.1283
     15 N           0.2170    1.2710    0.0000 N.ar    1  LIG1       -0.2478
     16 C          -0.2830    2.1670    0.0000 C.ar    1  LIG1        0.0985
     17 C          -1.3000    2.1670    0.0000 C.ar    1  LIG1        0.0208
     18 C          -1.7880    1.2710    0.0000 C.ar    1  LIG1        0.0059
     19 C          -2.7830    1.2710    0.0000 C.ar    1  LIG1        0.0401
     20 C          -3.2960    0.4250    0.0000 C.ar    1  LIG1        0.1724
     21 C          -2.7830   -0.4670    0.0000 C.ar    1  LIG1        0.1724
     22 C          -1.7880   -0.4670    0.0000 C.ar    1  LIG1        0.0412
     23 O          -3.2670   -1.3250    0.0000 O.3     1  LIG1       -0.4684
     24 C          -4.2500   -1.3330    0.0000 C.3     1  LIG1        0.2526
     25 O          -4.2670    0.4250    0.0000 O.3     1  LIG1       -0.4684
     26 C          -4.7500    1.3210    0.0000 C.3     1  LIG1        0.2526
@<TRIPOS>BOND
     1     1     2   ar
     2     1    18   ar
     3     1    22   ar
     4     2     3    1
     5     2    15   ar
     6     3     4    1
     7     4     5   ar
     8     4     9   ar
     9     5     6   ar
    10     5    14    1
    11     6     7   ar
    12     7     8   ar
    13     7    12    1
    14     8     9   ar
    15     8    10    1
    16    10    11    1
    17    12    13    1
    18    15    16   ar
    19    16    17   ar
    20    17    18   ar
    21    18    19   ar
    22    19    20   ar
    23    20    21   ar
    24    20    25    1
    25    21    22   ar
    26    21    23    1
    27    23    24    1
    28    25    26    1
