@<TRIPOS>MOLECULE
28334_ChemDiv_8016-0050
 13 14 0 0 0
SMALL
GASTEIGER
Energy = 0

@<TRIPOS>ATOM
      1 C          -0.0040   -0.0040    0.0000 C.ar    1  LIG1        0.0769
      2 C           0.8670   -0.4920    0.0000 C.ar    1  LIG1        0.2817
      3 N           1.7420   -0.0040    0.0000 N.ar    1  LIG1       -0.1929
      4 C           1.7420    0.9920    0.0000 C.ar    1  LIG1        0.1428
      5 N           0.8670    1.4920    0.0000 N.ar    1  LIG1       -0.2305
      6 C          -0.0040    0.9920    0.0000 C.ar    1  LIG1        0.0874
      7 C          -0.8710    1.4920    0.0000 C.ar    1  LIG1        0.0207
      8 C          -1.7420    0.9920    0.0000 C.ar    1  LIG1        0.0196
      9 C          -1.7420   -0.0040    0.0000 C.ar    1  LIG1        0.0893
     10 C          -0.8710   -0.4920    0.0000 C.ar    1  LIG1        0.0244
     11 N          -2.6170   -0.4920    0.0000 N.pl3   1  LIG1       -0.1281
     12 C           2.6130    1.4920    0.0000 C.3     1  LIG1        0.0738
     13 O           0.8670   -1.4880    0.0000 O.3     1  LIG1       -0.2651
@<TRIPOS>BOND
     1     1     2   ar
     2     1     6   ar
     3     1    10   ar
     4     2     3   ar
     5     2    13    1
     6     3     4   ar
     7     4     5   ar
     8     4    12    1
     9     5     6   ar
    10     6     7   ar
    11     7     8   ar
    12     8     9   ar
    13     9    10   ar
    14     9    11    1
