@<TRIPOS>MOLECULE
28331_ChemDiv_8008-3299
 21 22 0 0 0
SMALL
GASTEIGER
Energy = 0

@<TRIPOS>ATOM
      1 C           2.7130   -0.2880    0.0000 C.ar    1  LIG1        0.1138
      2 C           3.6630   -0.6000    0.0000 C.ar    1  LIG1        0.0900
      3 S           4.2330    0.2170    0.0000 S.2     1  LIG1        0.0212
      4 N           3.6750    1.0000    0.0000 N.ar    1  LIG1       -0.2011
      5 C           2.7250    0.7040    0.0000 C.ar    1  LIG1        0.1309
      6 S           1.9080    1.3080    0.0000 S.3     1  LIG1       -0.0921
      7 C           2.0420    2.3040    0.0000 C.3     1  LIG1        0.0757
      8 S           3.9710   -1.5500    0.0000 S.3     1  LIG1       -0.1036
      9 C           3.3170   -2.3000    0.0000 C.3     1  LIG1        0.0748
     10 N           1.8290   -0.7790    0.0000 N.am    1  LIG1       -0.1393
     11 C           0.9790   -0.2750    0.0000 C.2     1  LIG1        0.4255
     12 O           0.9960    0.7210    0.0000 O.2     1  LIG1       -0.2242
     13 O           0.1130   -0.7630    0.0000 O.3     1  LIG1       -0.4329
     14 C          -0.7500   -0.2580    0.0000 C.3     1  LIG1        0.2165
     15 C          -1.6330   -0.7630    0.0000 C.3     1  LIG1        0.0932
     16 C          -2.5000   -0.2420    0.0000 C.ar    1  LIG1        0.0628
     17 N          -3.3670   -0.7330    0.0000 N.ar    1  LIG1       -0.2480
     18 C          -4.2380   -0.2420    0.0000 C.ar    1  LIG1        0.0984
     19 C          -4.2380    0.7750    0.0000 C.ar    1  LIG1        0.0207
     20 C          -3.3670    1.2630    0.0000 C.ar    1  LIG1        0.0028
     21 C          -2.5000    0.7540    0.0000 C.ar    1  LIG1        0.0149
@<TRIPOS>BOND
     1     1     2   ar
     2     1     5   ar
     3     1    10    1
     4     2     3   ar
     5     2     8    1
     6     3     4   ar
     7     4     5   ar
     8     5     6    1
     9     6     7    1
    10     8     9    1
    11    10    11   am
    12    11    12    2
    13    11    13    1
    14    13    14    1
    15    14    15    1
    16    15    16    1
    17    16    17   ar
    18    16    21   ar
    19    17    18   ar
    20    18    19   ar
    21    19    20   ar
    22    20    21   ar
