@<TRIPOS>MOLECULE
28333_ChemDiv_2449-0184
 23 24 0 0 0
SMALL
GASTEIGER
Energy = 0

@<TRIPOS>ATOM
      1 N           0.3250    0.1170    0.0000 N.3     1  LIG1       -0.1368
      2 S          -0.6000   -0.2250    0.0000 S.O2    1  LIG1        0.0647
      3 C          -1.5670   -0.5790    0.0000 C.ar    1  LIG1        0.1222
      4 C          -1.6710   -1.5500    0.0000 C.ar    1  LIG1        0.0196
      5 C          -2.6460   -1.9250    0.0000 C.ar    1  LIG1       -0.0029
      6 C          -3.4380   -1.2830    0.0000 C.ar    1  LIG1       -0.0218
      7 C          -3.2710   -0.2920    0.0000 C.ar    1  LIG1       -0.0029
      8 C          -2.3000    0.0580    0.0000 C.ar    1  LIG1        0.0196
      9 C          -4.3710   -1.6250    0.0000 C.3     1  LIG1        0.0310
     10 O          -0.2580   -1.1420    0.0000 O.2     1  LIG1       -0.1527
     11 O          -0.9670    0.7210    0.0000 O.2     1  LIG1       -0.1527
     12 C           1.1250   -0.4250    0.0000 C.3     1  LIG1        0.1588
     13 N           1.9130    0.1290    0.0000 N.am    1  LIG1       -0.2312
     14 C           2.8420   -0.2130    0.0000 C.2     1  LIG1        0.4059
     15 O           3.0750   -1.1830    0.0000 O.2     1  LIG1       -0.2262
     16 O           3.6460    0.3750    0.0000 O.3     1  LIG1       -0.4345
     17 C           3.5580    1.3630    0.0000 C.3     1  LIG1        0.2102
     18 C           4.3670    1.9460    0.0000 C.3     1  LIG1        0.0513
     19 C           1.6000    1.1000    0.0000 C.3     1  LIG1        0.1172
     20 C           0.6170    1.1000    0.0000 C.3     1  LIG1        0.1192
     21 C           1.1250   -1.4250    0.0000 C.3     1  LIG1        0.0355
     22 C           0.2540   -1.9420    0.0000 C.3     1  LIG1        0.0032
     23 C           2.0000   -1.9130    0.0000 C.3     1  LIG1        0.0032
@<TRIPOS>BOND
     1     1     2    1
     2     1    12    1
     3     1    20    1
     4     2     3    1
     5     2    10    2
     6     2    11    2
     7     3     4   ar
     8     3     8   ar
     9     4     5   ar
    10     5     6   ar
    11     6     7   ar
    12     6     9    1
    13     7     8   ar
    14    12    13    1
    15    12    21    1
    16    13    14   am
    17    13    19    1
    18    14    15    2
    19    14    16    1
    20    16    17    1
    21    17    18    1
    22    19    20    1
    23    21    22    1
    24    21    23    1
