@<TRIPOS>MOLECULE
28330_ChemDiv_6253-0204
 16 18 0 0 0
SMALL
GASTEIGER
Energy = 0

@<TRIPOS>ATOM
      1 C          -0.0080    0.2460    0.0000 C.ar    1  LIG1        0.0059
      2 C          -0.0250   -0.7540    0.0000 C.ar    1  LIG1        0.0138
      3 C           0.8290   -1.2630    0.0000 C.ar    1  LIG1        0.0626
      4 N           1.7040   -0.7790    0.0000 N.ar    1  LIG1       -0.2122
      5 C           1.7210    0.2330    0.0000 C.ar    1  LIG1        0.2790
      6 C           0.8580    0.7380    0.0000 C.ar    1  LIG1        0.0625
      7 O           2.5960    0.7170    0.0000 O.3     1  LIG1       -0.2652
      8 C           0.8130   -2.2630    0.0000 C.3     1  LIG1        0.0522
      9 C          -0.9000   -1.2380    0.0000 C.ar    1  LIG1        0.0012
     10 C          -1.7630   -0.7380    0.0000 C.ar    1  LIG1        0.0000
     11 C          -1.7460    0.2790    0.0000 C.ar    1  LIG1        0.0000
     12 C          -0.8670    0.7500    0.0000 C.ar    1  LIG1        0.0002
     13 C          -0.8540    1.7500    0.0000 C.ar    1  LIG1        0.0000
     14 C          -1.7170    2.2670    0.0000 C.ar    1  LIG1        0.0000
     15 C          -2.5830    1.7790    0.0000 C.ar    1  LIG1        0.0000
     16 C          -2.6000    0.7790    0.0000 C.ar    1  LIG1        0.0000
@<TRIPOS>BOND
     1     1     2   ar
     2     1     6   ar
     3     1    12   ar
     4     2     3   ar
     5     2     9   ar
     6     3     4   ar
     7     3     8    1
     8     4     5   ar
     9     5     6   ar
    10     5     7    1
    11     9    10   ar
    12    10    11   ar
    13    11    12   ar
    14    11    16   ar
    15    12    13   ar
    16    13    14   ar
    17    14    15   ar
    18    15    16   ar
