@<TRIPOS>MOLECULE
28335_ChemDiv_2449-0185
 29 31 0 0 0
SMALL
GASTEIGER
Energy = 0

@<TRIPOS>ATOM
      1 N          -0.4630   -0.3460    0.0000 N.3     1  LIG1       -0.1369
      2 S          -1.3880   -0.6880    0.0000 S.O2    1  LIG1        0.0647
      3 C          -2.3500   -1.0420    0.0000 C.ar    1  LIG1        0.1222
      4 C          -3.0830   -0.4040    0.0000 C.ar    1  LIG1        0.0196
      5 C          -4.0540   -0.7540    0.0000 C.ar    1  LIG1       -0.0029
      6 C          -4.2210   -1.7460    0.0000 C.ar    1  LIG1       -0.0218
      7 C          -3.4250   -2.3880    0.0000 C.ar    1  LIG1       -0.0029
      8 C          -2.4580   -2.0130    0.0000 C.ar    1  LIG1        0.0196
      9 C          -5.1500   -2.0880    0.0000 C.3     1  LIG1        0.0310
     10 O          -1.7540    0.2580    0.0000 O.2     1  LIG1       -0.1527
     11 O          -1.0460   -1.6000    0.0000 O.2     1  LIG1       -0.1527
     12 C           0.3380   -0.8880    0.0000 C.3     1  LIG1        0.1562
     13 N           1.1210   -0.3330    0.0000 N.am    1  LIG1       -0.2615
     14 C           2.0500   -0.6750    0.0000 C.2     1  LIG1        0.2530
     15 C           2.7750   -0.0040    0.0000 C.ar    1  LIG1        0.0908
     16 C           3.7580   -0.2000    0.0000 C.ar    1  LIG1        0.0790
     17 S           4.2710    0.6710    0.0000 S.2     1  LIG1        0.0199
     18 N           3.6080    1.4210    0.0000 N.ar    1  LIG1       -0.2023
     19 C           2.6500    0.9790    0.0000 C.ar    1  LIG1        0.1199
     20 S           1.7630    1.4130    0.0000 S.3     1  LIG1       -0.0932
     21 C           1.6920    2.4040    0.0000 C.3     1  LIG1        0.0757
     22 S           4.1580   -1.1130    0.0000 S.3     1  LIG1       -0.1047
     23 C           5.1460   -1.2130    0.0000 C.3     1  LIG1        0.0747
     24 O           2.2830   -1.6460    0.0000 O.2     1  LIG1       -0.2698
     25 C           0.8130    0.6380    0.0000 C.3     1  LIG1        0.1141
     26 C          -0.1710    0.6380    0.0000 C.3     1  LIG1        0.1191
     27 C           0.3380   -1.8880    0.0000 C.3     1  LIG1        0.0354
     28 C           1.2130   -2.3710    0.0000 C.3     1  LIG1        0.0032
     29 C          -0.5330   -2.4000    0.0000 C.3     1  LIG1        0.0032
@<TRIPOS>BOND
     1     1     2    1
     2     1    12    1
     3     1    26    1
     4     2     3    1
     5     2    10    2
     6     2    11    2
     7     3     4   ar
     8     3     8   ar
     9     4     5   ar
    10     5     6   ar
    11     6     7   ar
    12     6     9    1
    13     7     8   ar
    14    12    13    1
    15    12    27    1
    16    13    14   am
    17    13    25    1
    18    14    15    1
    19    14    24    2
    20    15    16   ar
    21    15    19   ar
    22    16    17   ar
    23    16    22    1
    24    17    18   ar
    25    18    19   ar
    26    19    20    1
    27    20    21    1
    28    22    23    1
    29    25    26    1
    30    27    28    1
    31    27    29    1
