@<TRIPOS>MOLECULE
28344_ChemDiv_5383-0019
 24 26 0 0 0
SMALL
GASTEIGER
Energy = 0

@<TRIPOS>ATOM
      1 O          -1.5290    0.4960    0.0000 O.2     1  LIG1       -0.4528
      2 C          -0.8630    1.2500    0.0000 C.ar    1  LIG1        0.1791
      3 C           0.1250    1.1420    0.0000 C.3     1  LIG1        0.2957
      4 O           0.5330    0.2330    0.0000 O.3     1  LIG1       -0.3247
      5 C           1.5170    0.1290    0.0000 C.3     1  LIG1        0.1477
      6 C           2.1080    0.9380    0.0000 C.3     1  LIG1        0.0595
      7 C           1.7000    1.8540    0.0000 C.3     1  LIG1        0.1477
      8 O           0.7080    1.9500    0.0000 O.3     1  LIG1       -0.3247
      9 C           3.1040    0.8420    0.0000 C.3     1  LIG1        0.0050
     10 C           3.5130   -0.0830    0.0000 C.3     1  LIG1        0.0002
     11 C           4.5080   -0.1750    0.0000 C.3     1  LIG1        0.0000
     12 C           4.9080   -1.1000    0.0000 C.3     1  LIG1        0.0000
     13 C           5.9000   -1.2000    0.0000 C.3     1  LIG1        0.0000
     14 C          -1.3630    2.1130    0.0000 C.ar    1  LIG1        0.0412
     15 C          -2.3420    1.9040    0.0000 C.ar    1  LIG1        0.0404
     16 C          -2.4380    0.9000    0.0000 C.ar    1  LIG1        0.1451
     17 C          -3.3130    0.4000    0.0000 C.ar    1  LIG1        0.0359
     18 C          -3.3000   -0.6000    0.0000 C.ar    1  LIG1        0.0208
     19 C          -4.1750   -1.1130    0.0000 C.ar    1  LIG1        0.0852
     20 C          -5.0420   -0.6000    0.0000 C.ar    1  LIG1       -0.0051
     21 C          -5.0380    0.3920    0.0000 C.ar    1  LIG1       -0.0028
     22 C          -4.1750    0.9000    0.0000 C.ar    1  LIG1        0.0028
     23 C          -5.9040   -1.1000    0.0000 C.3     1  LIG1        0.0324
     24 N          -4.1880   -2.1080    0.0000 N.pl3   1  LIG1       -0.1284
@<TRIPOS>BOND
     1     1     2   ar
     2     1    16   ar
     3     2     3    1
     4     2    14   ar
     5     3     4    1
     6     3     8    1
     7     4     5    1
     8     5     6    1
     9     6     7    1
    10     6     9    1
    11     7     8    1
    12     9    10    1
    13    10    11    1
    14    11    12    1
    15    12    13    1
    16    14    15   ar
    17    15    16   ar
    18    16    17    1
    19    17    18   ar
    20    17    22   ar
    21    18    19   ar
    22    19    20   ar
    23    19    24    1
    24    20    21   ar
    25    20    23    1
    26    21    22   ar
