@<TRIPOS>MOLECULE
28351_ChemDiv_4618-0542
 31 34 0 0 0
SMALL
GASTEIGER
Energy = 0

@<TRIPOS>ATOM
      1 N           1.5920    1.8170    0.0000 N.am    1  LIG1       -0.2440
      2 C           1.5040    0.8750    0.0000 C.2     1  LIG1        0.1212
      3 S           0.4670    0.6750    0.0000 S.3     1  LIG1       -0.0604
      4 C           0.0290    1.5630    0.0000 C.2     1  LIG1        0.0852
      5 C           0.7040    2.2540    0.0000 C.2     1  LIG1        0.2595
      6 O           0.6080    3.2790    0.0000 O.2     1  LIG1       -0.2690
      7 C          -0.9540    1.8170    0.0000 C.2     1  LIG1        0.0187
      8 C          -1.6460    1.0920    0.0000 C.ar    1  LIG1        0.0901
      9 C          -2.5920    1.3250    0.0000 C.ar    1  LIG1        0.2685
     10 N          -3.3040    0.6330    0.0000 N.ar    1  LIG1       -0.2577
     11 C          -3.0130   -0.3130    0.0000 C.ar    1  LIG1        0.1514
     12 N          -2.0630   -0.5630    0.0000 N.ar    1  LIG1       -0.2116
     13 C          -1.3710    0.1420    0.0000 C.ar    1  LIG1        0.1538
     14 N          -0.4080   -0.1080    0.0000 N.pl3   1  LIG1       -0.2175
     15 C          -0.1710   -1.0540    0.0000 C.3     1  LIG1        0.1458
     16 C          -0.8420   -1.7630    0.0000 C.3     1  LIG1        0.1656
     17 O          -0.5670   -2.7130    0.0000 O.3     1  LIG1       -0.3492
     18 C          -1.2500   -3.4250    0.0000 C.3     1  LIG1        0.1742
     19 C          -3.7540   -1.0540    0.0000 C.ar    1  LIG1        0.0376
     20 C          -4.7330   -0.8330    0.0000 C.ar    1  LIG1        0.0046
     21 C          -5.0080    0.1210    0.0000 C.ar    1  LIG1        0.0192
     22 C          -4.3080    0.8500    0.0000 C.ar    1  LIG1        0.0844
     23 O          -2.8500    2.2540    0.0000 O.2     1  LIG1       -0.2665
     24 S           2.2710    0.2380    0.0000 S.2     1  LIG1       -0.0272
     25 C           2.4540    2.2540    0.0000 C.3     1  LIG1        0.1063
     26 C           3.3670    1.7790    0.0000 C.3     1  LIG1        0.1709
     27 S           4.0920    2.5290    0.0000 S.O2    1  LIG1       -0.0083
     28 O           5.0040    3.0210    0.0000 O.2     1  LIG1       -0.1729
     29 O           4.5710    1.6170    0.0000 O.2     1  LIG1       -0.1729
     30 C           3.6000    3.4290    0.0000 C.3     1  LIG1        0.1527
     31 C           2.6170    3.2380    0.0000 C.3     1  LIG1        0.0473
@<TRIPOS>BOND
     1     1     2    1
     2     1     5   am
     3     1    25    1
     4     2     3    1
     5     2    24    2
     6     3     4    1
     7     4     5    1
     8     4     7    2
     9     5     6    2
    10     7     8    1
    11     8     9   ar
    12     8    13   ar
    13     9    10   ar
    14     9    23    2
    15    10    11   ar
    16    10    22   ar
    17    11    12   ar
    18    11    19   ar
    19    12    13   ar
    20    13    14    1
    21    14    15    1
    22    15    16    1
    23    16    17    1
    24    17    18    1
    25    19    20   ar
    26    20    21   ar
    27    21    22   ar
    28    25    26    1
    29    25    31    1
    30    26    27    1
    31    27    28    2
    32    27    29    2
    33    27    30    1
    34    30    31    1
