@<TRIPOS>MOLECULE
28356_ChemDiv_8017-5551
 27 30 0 0 0
SMALL
GASTEIGER
Energy = 0

@<TRIPOS>ATOM
      1 C           0.3080    0.0540    0.0000 C.2     1  LIG1        0.0347
      2 C           1.0460   -0.6170    0.0000 C.2     1  LIG1        0.0062
      3 C           0.6330   -1.5290    0.0000 C.2     1  LIG1        0.0810
      4 N          -0.3540   -1.4250    0.0000 N.2     1  LIG1       -0.2440
      5 C          -0.5670   -0.4420    0.0000 C.2     1  LIG1        0.1000
      6 C           1.2210   -2.3420    0.0000 C.2     1  LIG1        0.0585
      7 C           2.2170   -2.2420    0.0000 C.2     1  LIG1        0.1700
      8 C           2.6210   -1.3170    0.0000 C.2     1  LIG1        0.1543
      9 C           2.0420   -0.5170    0.0000 C.3     1  LIG1        0.0950
     10 O           3.6170   -1.2170    0.0000 O.2     1  LIG1       -0.4723
     11 C           4.0210   -0.3040    0.0000 C.3     1  LIG1        0.2521
     12 O           2.7960   -3.0500    0.0000 O.2     1  LIG1       -0.4687
     13 C           3.7960   -2.9420    0.0000 C.3     1  LIG1        0.2526
     14 C           0.3040    1.0540    0.0000 C.ar    1  LIG1        0.0826
     15 C          -0.5540    1.5460    0.0000 C.ar    1  LIG1        0.0210
     16 C          -1.4210    1.0420    0.0000 C.ar    1  LIG1        0.0415
     17 C          -2.2920    1.5420    0.0000 C.ar    1  LIG1        0.1724
     18 C          -2.2830    2.5420    0.0000 C.ar    1  LIG1        0.1724
     19 C          -1.4210    3.0420    0.0000 C.ar    1  LIG1        0.0401
     20 C          -0.5540    2.5460    0.0000 C.ar    1  LIG1        0.0062
     21 C           0.3040    3.0540    0.0000 C.ar    1  LIG1        0.0208
     22 C           1.1710    2.5540    0.0000 C.ar    1  LIG1        0.0988
     23 N           1.1790    1.5540    0.0000 N.ar    1  LIG1       -0.2438
     24 O          -3.1540    3.0420    0.0000 O.3     1  LIG1       -0.4684
     25 C          -4.0250    2.5420    0.0000 C.3     1  LIG1        0.2526
     26 O          -3.1540    1.0420    0.0000 O.3     1  LIG1       -0.4684
     27 C          -3.1540    0.0460    0.0000 C.3     1  LIG1        0.2526
@<TRIPOS>BOND
     1     1     2    2
     2     1     5    1
     3     1    14    1
     4     2     3    1
     5     2     9    1
     6     3     4    1
     7     3     6    2
     8     4     5    2
     9     6     7    1
    10     7     8    2
    11     7    12    1
    12     8     9    1
    13     8    10    1
    14    10    11    1
    15    12    13    1
    16    14    15   ar
    17    14    23   ar
    18    15    16   ar
    19    15    20   ar
    20    16    17   ar
    21    17    18   ar
    22    17    26    1
    23    18    19   ar
    24    18    24    1
    25    19    20   ar
    26    20    21   ar
    27    21    22   ar
    28    22    23   ar
    29    24    25    1
    30    26    27    1
