@<TRIPOS>MOLECULE
28352_ChemDiv_5639-0237
 25 28 0 0 0
SMALL
GASTEIGER
Energy = 0

@<TRIPOS>ATOM
      1 C           3.0670    0.1170    0.0000 C.2     1  LIG1        0.0821
      2 C           3.2080   -0.6750    0.0000 C.2     1  LIG1        0.3459
      3 O           2.4210   -1.4000    0.0000 O.3     1  LIG1       -0.4210
      4 C           1.5250   -0.8580    0.0000 C.2     1  LIG1        0.1489
      5 C           1.6170    0.1330    0.0000 C.2     1  LIG1        0.0442
      6 C           0.6290   -1.3540    0.0000 C.ar    1  LIG1        0.0349
      7 C           0.6290   -2.3920    0.0000 C.ar    1  LIG1        0.0062
      8 C          -0.2380   -2.8920    0.0000 C.ar    1  LIG1        0.0376
      9 C          -1.1040   -2.3750    0.0000 C.ar    1  LIG1        0.1453
     10 O          -1.9670   -2.8920    0.0000 O.3     1  LIG1       -0.4535
     11 C          -2.8630   -2.3750    0.0000 C.ar    1  LIG1        0.1453
     12 C          -2.8380   -1.3830    0.0000 C.ar    1  LIG1        0.0375
     13 C          -3.7130   -0.8670    0.0000 C.ar    1  LIG1        0.0031
     14 C          -4.6080   -1.3580    0.0000 C.ar    1  LIG1        0.0002
     15 C          -4.6080   -2.3750    0.0000 C.ar    1  LIG1        0.0031
     16 C          -3.7290   -2.8920    0.0000 C.ar    1  LIG1        0.0375
     17 C          -1.1040   -1.3540    0.0000 C.ar    1  LIG1        0.0376
     18 C          -0.2380   -0.8580    0.0000 C.ar    1  LIG1        0.0062
     19 O           4.1630   -0.9960    0.0000 O.2     1  LIG1       -0.2445
     20 C           3.8630    0.5750    0.0000 C.2     1  LIG1        0.0440
     21 C           3.8630    1.4960    0.0000 C.ar    1  LIG1        0.1458
     22 O           4.6040    2.0250    0.0000 O.2     1  LIG1       -0.4504
     23 C           4.3290    2.8960    0.0000 C.ar    1  LIG1        0.1796
     24 C           3.4080    2.8960    0.0000 C.ar    1  LIG1        0.0438
     25 C           3.1170    2.0250    0.0000 C.ar    1  LIG1        0.0407
@<TRIPOS>BOND
     1     1     2    1
     2     1     5    1
     3     1    20    2
     4     2     3    1
     5     2    19    2
     6     3     4    1
     7     4     5    2
     8     4     6    1
     9     6     7   ar
    10     6    18   ar
    11     7     8   ar
    12     8     9   ar
    13     9    10    1
    14     9    17   ar
    15    10    11    1
    16    11    12   ar
    17    11    16   ar
    18    12    13   ar
    19    13    14   ar
    20    14    15   ar
    21    15    16   ar
    22    17    18   ar
    23    20    21    1
    24    21    22   ar
    25    21    25   ar
    26    22    23   ar
    27    23    24   ar
    28    24    25   ar
