@<TRIPOS>MOLECULE
28350_ChemDiv_5639-0220
 22 24 0 0 0
SMALL
GASTEIGER
Energy = 0

@<TRIPOS>ATOM
      1 C          -0.2960   -0.0500    0.0000 C.2     1  LIG1        0.1518
      2 O           0.6250   -0.4710    0.0000 O.3     1  LIG1       -0.4209
      3 C           1.2920    0.2630    0.0000 C.2     1  LIG1        0.3459
      4 C           0.7750    1.1420    0.0000 C.2     1  LIG1        0.0821
      5 C          -0.1830    0.9290    0.0000 C.2     1  LIG1        0.0443
      6 C           1.1670    2.0670    0.0000 C.2     1  LIG1        0.0440
      7 C           2.1630    2.1790    0.0000 C.ar    1  LIG1        0.1458
      8 O           2.8500    1.4380    0.0000 O.2     1  LIG1       -0.4504
      9 C           3.7540    1.8540    0.0000 C.ar    1  LIG1        0.1796
     10 C           3.6250    2.8710    0.0000 C.ar    1  LIG1        0.0438
     11 C           2.6630    3.0540    0.0000 C.ar    1  LIG1        0.0407
     12 O           2.2790    0.1830    0.0000 O.2     1  LIG1       -0.2445
     13 C          -1.1500   -0.5630    0.0000 C.ar    1  LIG1        0.0688
     14 C          -2.0130   -0.0500    0.0000 C.ar    1  LIG1        0.1446
     15 C          -2.8920   -0.5630    0.0000 C.ar    1  LIG1        0.0739
     16 C          -2.8920   -1.5630    0.0000 C.ar    1  LIG1        0.1418
     17 C          -2.0130   -2.0500    0.0000 C.ar    1  LIG1        0.0372
     18 C          -1.1500   -1.5630    0.0000 C.ar    1  LIG1        0.0092
     19 O          -3.7580   -2.0500    0.0000 O.3     1  LIG1       -0.4713
     20 C          -3.7580   -3.0500    0.0000 C.3     1  LIG1        0.2525
     21 O          -2.0130    0.9500    0.0000 O.3     1  LIG1       -0.4712
     22 C          -2.8710    1.4380    0.0000 C.3     1  LIG1        0.2525
@<TRIPOS>BOND
     1     1     2    1
     2     1     5    2
     3     1    13    1
     4     2     3    1
     5     3     4    1
     6     3    12    2
     7     4     5    1
     8     4     6    2
     9     6     7    1
    10     7     8   ar
    11     7    11   ar
    12     8     9   ar
    13     9    10   ar
    14    10    11   ar
    15    13    14   ar
    16    13    18   ar
    17    14    15   ar
    18    14    21    1
    19    15    16   ar
    20    16    17   ar
    21    16    19    1
    22    17    18   ar
    23    19    20    1
    24    21    22    1
