@<TRIPOS>MOLECULE
28354_ChemDiv_2723-0056
 25 27 0 0 0
SMALL
GASTEIGER
Energy = 0

@<TRIPOS>ATOM
      1 N           0.4210   -1.4380    0.0000 N.ar    1  LIG1       -0.2497
      2 C           0.4210   -0.4670    0.0000 C.ar    1  LIG1        0.0810
      3 C          -0.4460    0.0420    0.0000 C.ar    1  LIG1        0.0192
      4 C          -1.3170   -0.4540    0.0000 C.ar    1  LIG1        0.0058
      5 C          -1.3170   -1.4670    0.0000 C.ar    1  LIG1        0.0168
      6 C          -0.4460   -1.9630    0.0000 C.ar    1  LIG1        0.0594
      7 C          -0.4460   -2.9500    0.0000 C.3     1  LIG1        0.0521
      8 C          -2.1790   -1.9630    0.0000 C.ar    1  LIG1        0.0412
      9 C          -3.0500   -1.4380    0.0000 C.ar    1  LIG1        0.1724
     10 C          -3.0500   -0.4670    0.0000 C.ar    1  LIG1        0.1724
     11 C          -2.1790    0.0420    0.0000 C.ar    1  LIG1        0.0401
     12 O          -3.9380    0.0250    0.0000 O.3     1  LIG1       -0.4684
     13 C          -4.7880   -0.5000    0.0000 C.3     1  LIG1        0.2526
     14 O          -3.9380   -1.9460    0.0000 O.3     1  LIG1       -0.4684
     15 C          -4.7880   -1.4040    0.0000 C.3     1  LIG1        0.2526
     16 C           1.2960   -0.0210    0.0000 C.ar    1  LIG1        0.0209
     17 C           1.3210    0.9790    0.0000 C.ar    1  LIG1        0.0415
     18 C           2.1960    1.4710    0.0000 C.ar    1  LIG1        0.1724
     19 C           3.0710    0.9630    0.0000 C.ar    1  LIG1        0.1724
     20 C           3.0500   -0.0380    0.0000 C.ar    1  LIG1        0.0401
     21 C           2.1710   -0.5290    0.0000 C.ar    1  LIG1        0.0048
     22 O           3.9380    1.4540    0.0000 O.3     1  LIG1       -0.4684
     23 C           4.7830    0.9500    0.0000 C.3     1  LIG1        0.2526
     24 O           2.1960    2.4670    0.0000 O.3     1  LIG1       -0.4684
     25 C           3.0580    2.9540    0.0000 C.3     1  LIG1        0.2526
@<TRIPOS>BOND
     1     1     2   ar
     2     1     6   ar
     3     2     3   ar
     4     2    16    1
     5     3     4   ar
     6     4     5   ar
     7     4    11   ar
     8     5     6   ar
     9     5     8   ar
    10     6     7    1
    11     8     9   ar
    12     9    10   ar
    13     9    14    1
    14    10    11   ar
    15    10    12    1
    16    12    13    1
    17    14    15    1
    18    16    17   ar
    19    16    21   ar
    20    17    18   ar
    21    18    19   ar
    22    18    24    1
    23    19    20   ar
    24    19    22    1
    25    20    21   ar
    26    22    23    1
    27    24    25    1
