@<TRIPOS>MOLECULE
28353_ChemDiv_4596-0147
 27 29 0 0 0
SMALL
GASTEIGER
Energy = 0

@<TRIPOS>ATOM
      1 N          -0.5420    0.1000    0.0000 N.3     1  LIG1       -0.1369
      2 S          -1.4500   -0.3330    0.0000 S.O2    1  LIG1        0.0647
      3 C          -2.3710   -0.7540    0.0000 C.ar    1  LIG1        0.1222
      4 C          -2.4460   -1.7460    0.0000 C.ar    1  LIG1        0.0196
      5 C          -3.3380   -2.1540    0.0000 C.ar    1  LIG1       -0.0029
      6 C          -4.1630   -1.5920    0.0000 C.ar    1  LIG1       -0.0218
      7 C          -4.0830   -0.6170    0.0000 C.ar    1  LIG1       -0.0029
      8 C          -3.1920   -0.1790    0.0000 C.ar    1  LIG1        0.0196
      9 C          -5.0880   -2.0290    0.0000 C.3     1  LIG1        0.0310
     10 O          -1.8830    0.5880    0.0000 O.2     1  LIG1       -0.1527
     11 O          -1.0170   -1.2130    0.0000 O.2     1  LIG1       -0.1527
     12 C           0.2630   -0.4710    0.0000 C.3     1  LIG1        0.1565
     13 N           1.0630    0.1460    0.0000 N.am    1  LIG1       -0.2615
     14 C           2.0420   -0.1170    0.0000 C.2     1  LIG1        0.2530
     15 C           2.7460    0.5880    0.0000 C.ar    1  LIG1        0.0908
     16 C           3.7380    0.3080    0.0000 C.ar    1  LIG1        0.0790
     17 S           4.2380    1.1580    0.0000 S.2     1  LIG1        0.0199
     18 N           3.6540    1.9460    0.0000 N.ar    1  LIG1       -0.2023
     19 C           2.7290    1.5920    0.0000 C.ar    1  LIG1        0.1199
     20 S           1.8670    2.1580    0.0000 S.3     1  LIG1       -0.0932
     21 C           0.9540    1.7000    0.0000 C.3     1  LIG1        0.0757
     22 S           4.0880   -0.6170    0.0000 S.3     1  LIG1       -0.1047
     23 C           5.0830   -0.7420    0.0000 C.3     1  LIG1        0.0747
     24 O           2.3000   -1.0670    0.0000 O.2     1  LIG1       -0.2698
     25 C           0.7380    1.0670    0.0000 C.3     1  LIG1        0.1141
     26 C          -0.2420    1.0670    0.0000 C.3     1  LIG1        0.1191
     27 C           0.3040   -1.4830    0.0000 C.3     1  LIG1        0.0416
@<TRIPOS>BOND
     1     1     2    1
     2     1    12    1
     3     1    26    1
     4     2     3    1
     5     2    10    2
     6     2    11    2
     7     3     4   ar
     8     3     8   ar
     9     4     5   ar
    10     5     6   ar
    11     6     7   ar
    12     6     9    1
    13     7     8   ar
    14    12    13    1
    15    12    27    1
    16    13    14   am
    17    13    25    1
    18    14    15    1
    19    14    24    2
    20    15    16   ar
    21    15    19   ar
    22    16    17   ar
    23    16    22    1
    24    17    18   ar
    25    18    19   ar
    26    19    20    1
    27    20    21    1
    28    22    23    1
    29    25    26    1
