@<TRIPOS>MOLECULE
28359_ChemDiv_2513-0052
 21 23 0 0 0
SMALL
GASTEIGER
Energy = 0

@<TRIPOS>ATOM
      1 C          -1.1330    1.6750    0.0000 C.ar    1  LIG1        0.1866
      2 N          -1.7170    0.8500    0.0000 N.ar    1  LIG1       -0.2272
      3 C          -2.6500    1.1750    0.0000 C.ar    1  LIG1        0.0630
      4 C          -2.6500    2.1710    0.0000 C.ar    1  LIG1        0.0235
      5 S          -1.7170    2.4710    0.0000 S.2     1  LIG1       -0.0544
      6 C          -3.5130    2.6750    0.0000 C.3     1  LIG1        0.0343
      7 C          -4.3830    2.1710    0.0000 C.3     1  LIG1        0.0057
      8 C          -4.3830    1.1750    0.0000 C.3     1  LIG1        0.0067
      9 C          -3.5130    0.6750    0.0000 C.3     1  LIG1        0.0461
     10 N          -0.1290    1.6750    0.0000 N.am    1  LIG1       -0.1356
     11 C           0.3830    0.8040    0.0000 C.2     1  LIG1        0.3495
     12 N           1.3710    0.8040    0.0000 N.am    1  LIG1       -0.1606
     13 C           1.8710   -0.0580    0.0000 C.ar    1  LIG1        0.0752
     14 C           1.3710   -0.9290    0.0000 C.ar    1  LIG1        0.0198
     15 C           1.8710   -1.8000    0.0000 C.ar    1  LIG1        0.0382
     16 C           2.8920   -1.8000    0.0000 C.ar    1  LIG1        0.1388
     17 C           3.3790   -0.9290    0.0000 C.ar    1  LIG1        0.0382
     18 C           2.8920   -0.0580    0.0000 C.ar    1  LIG1        0.0198
     19 O           3.3790   -2.6710    0.0000 O.3     1  LIG1       -0.4714
     20 C           4.3790   -2.6710    0.0000 C.3     1  LIG1        0.2525
     21 O          -0.1290   -0.0580    0.0000 O.2     1  LIG1       -0.2484
@<TRIPOS>BOND
     1     1     2   ar
     2     1     5   ar
     3     1    10    1
     4     2     3   ar
     5     3     4   ar
     6     3     9    1
     7     4     5   ar
     8     4     6    1
     9     6     7    1
    10     7     8    1
    11     8     9    1
    12    10    11   am
    13    11    12   am
    14    11    21    2
    15    12    13    1
    16    13    14   ar
    17    13    18   ar
    18    14    15   ar
    19    15    16   ar
    20    16    17   ar
    21    16    19    1
    22    17    18   ar
    23    19    20    1
