@<TRIPOS>MOLECULE
28361_ChemDiv_2579-0018
 22 24 0 0 0
SMALL
GASTEIGER
Energy = 0

@<TRIPOS>ATOM
      1 C           1.8000   -0.4920    0.0000 C.ar    1  LIG1        0.0803
      2 C           1.8000   -1.4880    0.0000 C.ar    1  LIG1        0.0697
      3 N           0.8500   -1.7830    0.0000 N.ar    1  LIG1       -0.2268
      4 C           0.2710   -0.9960    0.0000 C.ar    1  LIG1        0.1857
      5 S           0.8500   -0.1710    0.0000 S.2     1  LIG1       -0.0472
      6 N          -0.7460   -0.9960    0.0000 N.am    1  LIG1       -0.1493
      7 C          -1.2420   -0.1380    0.0000 C.2     1  LIG1        0.3050
      8 C          -2.2380   -0.1500    0.0000 C.3     1  LIG1        0.2272
      9 N          -2.7460    0.7210    0.0000 N.4     1  LIG1        0.3885
     10 C          -3.7500    0.7040    0.0000 C.3     1  LIG1        0.1720
     11 C          -4.2380    1.5670    0.0000 C.3     1  LIG1        0.2048
     12 O          -3.7500    2.4420    0.0000 O.3     1  LIG1       -0.3411
     13 C          -2.7330    2.4420    0.0000 C.3     1  LIG1        0.2048
     14 C          -2.2380    1.5830    0.0000 C.3     1  LIG1        0.1720
     15 O          -0.7460    0.7210    0.0000 O.2     1  LIG1       -0.2665
     16 C           2.6540   -1.9830    0.0000 C.3     1  LIG1        0.0469
     17 C           3.5170   -1.4880    0.0000 C.3     1  LIG1        0.0129
     18 C           3.5170   -0.4670    0.0000 C.3     1  LIG1        0.0701
     19 C           2.6540    0.0170    0.0000 C.2     1  LIG1        0.1802
     20 O           2.6540    1.0250    0.0000 O.2     1  LIG1       -0.2908
     21 C           4.2330   -0.7880    0.0000 C.3     1  LIG1        0.0008
     22 C           3.8670   -2.4380    0.0000 C.3     1  LIG1        0.0008
@<TRIPOS>BOND
     1     1     2   ar
     2     1     5   ar
     3     1    19    1
     4     2     3   ar
     5     2    16    1
     6     3     4   ar
     7     4     5   ar
     8     4     6    1
     9     6     7   am
    10     7     8    1
    11     7    15    2
    12     8     9    1
    13     9    10    1
    14     9    14    1
    15    10    11    1
    16    11    12    1
    17    12    13    1
    18    13    14    1
    19    16    17    1
    20    17    18    1
    21    17    21    1
    22    17    22    1
    23    18    19    1
    24    19    20    2
