@<TRIPOS>MOLECULE
28365_ChemDiv_4707-0050
 23 25 0 0 0
SMALL
GASTEIGER
Energy = 0

@<TRIPOS>ATOM
      1 C           0.1380   -1.3960    0.0000 C.ar    1  LIG1        0.1852
      2 N          -0.4380   -0.6000    0.0000 N.ar    1  LIG1       -0.2272
      3 C          -1.3880   -0.9000    0.0000 C.ar    1  LIG1        0.0630
      4 C          -1.3880   -1.9290    0.0000 C.ar    1  LIG1        0.0235
      5 S          -0.4380   -2.2210    0.0000 S.2     1  LIG1       -0.0544
      6 C          -2.2580   -2.4130    0.0000 C.3     1  LIG1        0.0343
      7 C          -3.1460   -1.9000    0.0000 C.3     1  LIG1        0.0057
      8 C          -3.1460   -0.9250    0.0000 C.3     1  LIG1        0.0067
      9 C          -2.2580   -0.4170    0.0000 C.3     1  LIG1        0.0461
     10 N           1.1210   -1.3960    0.0000 N.am    1  LIG1       -0.1536
     11 C           1.6500   -2.2500    0.0000 C.2     1  LIG1        0.2589
     12 O           1.1210   -3.1250    0.0000 O.2     1  LIG1       -0.2720
     13 C           2.6380   -2.2500    0.0000 C.3     1  LIG1        0.1568
     14 S           3.1420   -1.3960    0.0000 S.3     1  LIG1       -0.0029
     15 C           2.6380   -0.5130    0.0000 C.ar    1  LIG1        0.4796
     16 N           3.1420    0.3630    0.0000 N.ar    1  LIG1        0.1828
     17 C           2.4830    1.1080    0.0000 C.ar    1  LIG1        0.5937
     18 N           1.5670    0.6960    0.0000 N.ar    1  LIG1        0.2964
     19 N           1.6500   -0.2960    0.0000 N.ar    1  LIG1        0.1661
     20 C           2.6920    2.0790    0.0000 C.3     1  LIG1        0.1918
     21 C           1.9710    2.7460    0.0000 C.3     1  LIG1        0.0190
     22 C           1.0290    2.4580    0.0000 C.3     1  LIG1        0.0008
     23 C           0.2960    3.1290    0.0000 C.3     1  LIG1        0.0000
@<TRIPOS>BOND
     1     1     2   ar
     2     1     5   ar
     3     1    10    1
     4     2     3   ar
     5     3     4   ar
     6     3     9    1
     7     4     5   ar
     8     4     6    1
     9     6     7    1
    10     7     8    1
    11     8     9    1
    12    10    11   am
    13    11    12    2
    14    11    13    1
    15    13    14    1
    16    14    15    1
    17    15    16   ar
    18    15    19   ar
    19    16    17   ar
    20    17    18   ar
    21    17    20    1
    22    18    19   ar
    23    20    21    1
    24    21    22    1
    25    22    23    1
