@<TRIPOS>MOLECULE
28367_ChemDiv_4707-0054
 28 31 0 0 0
SMALL
GASTEIGER
Energy = 0

@<TRIPOS>ATOM
      1 C           1.4960   -1.2880    0.0000 C.ar    1  LIG1        0.1796
      2 N           1.5130   -2.2960    0.0000 N.ar    1  LIG1       -0.2723
      3 C           2.3670   -2.7920    0.0000 C.ar    1  LIG1        0.1614
      4 C           3.2290   -2.2960    0.0000 C.ar    1  LIG1        0.0988
      5 C           3.2290   -1.2880    0.0000 C.ar    1  LIG1        0.2839
      6 N           2.3630   -0.7960    0.0000 N.ar    1  LIG1       -0.1840
      7 O           4.0960   -0.7960    0.0000 O.2     1  LIG1       -0.2650
      8 N           2.3670   -3.7880    0.0000 N.pl3   1  LIG1       -0.1084
      9 C           0.6630   -2.8080    0.0000 C.ar    1  LIG1        0.0670
     10 C           0.6630   -3.8130    0.0000 C.ar    1  LIG1        0.0176
     11 C          -0.1830   -4.3330    0.0000 C.ar    1  LIG1        0.0015
     12 C          -1.0750   -3.8500    0.0000 C.ar    1  LIG1        0.0001
     13 C          -1.0750   -2.8330    0.0000 C.ar    1  LIG1        0.0015
     14 C          -0.2290   -2.3330    0.0000 C.ar    1  LIG1        0.0176
     15 S           0.6380   -0.7960    0.0000 S.3     1  LIG1       -0.0670
     16 C           0.6380    0.2130    0.0000 C.3     1  LIG1        0.1520
     17 C          -0.2130    0.7170    0.0000 C.2     1  LIG1        0.2587
     18 N          -0.2130    1.6830    0.0000 N.am    1  LIG1       -0.1536
     19 C          -1.0750    2.1830    0.0000 C.ar    1  LIG1        0.1852
     20 N          -1.0920    3.1460    0.0000 N.ar    1  LIG1       -0.2272
     21 C          -2.1040    3.4250    0.0000 C.ar    1  LIG1        0.0630
     22 C          -2.6250    2.5750    0.0000 C.ar    1  LIG1        0.0235
     23 S          -2.0040    1.7790    0.0000 S.2     1  LIG1       -0.0544
     24 C          -3.6210    2.5830    0.0000 C.3     1  LIG1        0.0343
     25 C          -4.1000    3.4920    0.0000 C.3     1  LIG1        0.0057
     26 C          -3.5790    4.3330    0.0000 C.3     1  LIG1        0.0067
     27 C          -2.5920    4.3000    0.0000 C.3     1  LIG1        0.0461
     28 O          -1.0750    0.2130    0.0000 O.2     1  LIG1       -0.2720
@<TRIPOS>BOND
     1     1     2   ar
     2     1     6   ar
     3     1    15    1
     4     2     3   ar
     5     2     9    1
     6     3     4   ar
     7     3     8    1
     8     4     5   ar
     9     5     6   ar
    10     5     7    2
    11     9    10   ar
    12     9    14   ar
    13    10    11   ar
    14    11    12   ar
    15    12    13   ar
    16    13    14   ar
    17    15    16    1
    18    16    17    1
    19    17    18   am
    20    17    28    2
    21    18    19    1
    22    19    20   ar
    23    19    23   ar
    24    20    21   ar
    25    21    22   ar
    26    21    27    1
    27    22    23   ar
    28    22    24    1
    29    24    25    1
    30    25    26    1
    31    26    27    1
