@<TRIPOS>MOLECULE
28363_ChemDiv_2765-0098
 22 24 0 0 0
SMALL
GASTEIGER
Energy = 0

@<TRIPOS>ATOM
      1 C           0.4250   -1.2080    0.0000 C.ar    1  LIG1        0.0803
      2 C           0.4250   -0.2380    0.0000 C.ar    1  LIG1        0.0701
      3 N           2.1080   -0.2540    0.0000 N.ar    1  LIG1       -0.2268
      4 C           2.1080   -1.2250    0.0000 C.ar    1  LIG1        0.1856
      5 S           1.2670   -1.7000    0.0000 S.2     1  LIG1       -0.0472
      6 N           2.9500   -1.7130    0.0000 N.am    1  LIG1       -0.1543
      7 C           3.7880   -1.2290    0.0000 C.2     1  LIG1        0.2478
      8 O           3.7880   -0.2540    0.0000 O.2     1  LIG1       -0.2729
      9 C           4.6130   -1.7250    0.0000 C.3     1  LIG1        0.0969
     10 C          -0.4130    0.2420    0.0000 C.3     1  LIG1        0.0513
     11 C          -1.2540   -0.2380    0.0000 C.3     1  LIG1        0.0360
     12 C          -1.2540   -1.2080    0.0000 C.3     1  LIG1        0.0745
     13 C          -0.4130   -1.7000    0.0000 C.2     1  LIG1        0.1805
     14 O          -0.4130   -2.6670    0.0000 O.2     1  LIG1       -0.2908
     15 C          -2.0790    0.2420    0.0000 C.ar    1  LIG1       -0.0215
     16 C          -2.9210   -0.2380    0.0000 C.ar    1  LIG1       -0.0011
     17 C          -3.7630    0.2420    0.0000 C.ar    1  LIG1        0.0366
     18 C          -3.7630    1.2130    0.0000 C.ar    1  LIG1        0.1387
     19 C          -2.9210    1.7040    0.0000 C.ar    1  LIG1        0.0366
     20 C          -2.0790    1.2130    0.0000 C.ar    1  LIG1       -0.0011
     21 O          -4.6170    1.7040    0.0000 O.3     1  LIG1       -0.4714
     22 C          -4.6040    2.6710    0.0000 C.3     1  LIG1        0.2525
@<TRIPOS>BOND
     1     1     2   ar
     2     1     5   ar
     3     1    13    1
     4     2     3   ar
     5     2    10    1
     6     3     4   ar
     7     4     5   ar
     8     4     6    1
     9     6     7   am
    10     7     8    2
    11     7     9    1
    12    10    11    1
    13    11    12    1
    14    11    15    1
    15    12    13    1
    16    13    14    2
    17    15    16   ar
    18    15    20   ar
    19    16    17   ar
    20    17    18   ar
    21    18    19   ar
    22    18    21    1
    23    19    20   ar
    24    21    22    1
