@<TRIPOS>MOLECULE
28376_ChemDiv_3901-0269
 21 22 0 0 0
SMALL
GASTEIGER
Energy = 0

@<TRIPOS>ATOM
      1 S          -1.0960   -1.7500    0.0000 S.O2    1  LIG1       -0.0578
      2 N          -1.0960   -0.7500    0.0000 N.pl3   1  LIG1       -0.5358
      3 C          -0.2290   -0.2500    0.0000 C.ar    1  LIG1       -0.1122
      4 C           0.6250   -0.7500    0.0000 C.ar    1  LIG1       -0.0226
      5 C           1.4920   -0.2500    0.0000 C.ar    1  LIG1        0.0127
      6 C           1.4920    0.7540    0.0000 C.ar    1  LIG1        0.0477
      7 N           2.3580    1.2580    0.0000 N.pl3   1  LIG1       -0.3075
      8 C           2.3580    2.2630    0.0000 C.3     1  LIG1        0.0908
      9 C           3.2290    2.7580    0.0000 C.3     1  LIG1        0.0232
     10 C           3.2290    0.7540    0.0000 C.3     1  LIG1        0.0908
     11 C           4.0960    1.2540    0.0000 C.3     1  LIG1        0.0232
     12 C           0.6250    1.2580    0.0000 C.ar    1  LIG1        0.0127
     13 C          -0.2290    0.7540    0.0000 C.ar    1  LIG1       -0.0226
     14 O          -1.0960   -2.7540    0.0000 O.2     1  LIG1       -0.1842
     15 O          -0.0960   -1.7500    0.0000 O.2     1  LIG1       -0.1842
     16 C          -2.1080   -1.7500    0.0000 C.ar    1  LIG1        0.0893
     17 C          -2.5920   -0.8830    0.0000 C.ar    1  LIG1        0.0169
     18 C          -3.5960   -0.8750    0.0000 C.ar    1  LIG1        0.0013
     19 C          -4.1000   -1.7460    0.0000 C.ar    1  LIG1        0.0001
     20 C          -3.6130   -2.6040    0.0000 C.ar    1  LIG1        0.0013
     21 C          -2.6080   -2.6040    0.0000 C.ar    1  LIG1        0.0169
@<TRIPOS>BOND
     1     1     2    1
     2     1    14    2
     3     1    15    2
     4     1    16    1
     5     2     3    1
     6     3     4   ar
     7     3    13   ar
     8     4     5   ar
     9     5     6   ar
    10     6     7    1
    11     6    12   ar
    12     7     8    1
    13     7    10    1
    14     8     9    1
    15    10    11    1
    16    12    13   ar
    17    16    17   ar
    18    16    21   ar
    19    17    18   ar
    20    18    19   ar
    21    19    20   ar
    22    20    21   ar
