@<TRIPOS>MOLECULE
28377_ChemDiv_5756-0242
 34 36 0 0 0
SMALL
GASTEIGER
Energy = 0

@<TRIPOS>ATOM
      1 C          -2.8420    1.4130    0.0000 C.ar    1  LIG1        0.0901
      2 C          -3.7330    1.8750    0.0000 C.ar    1  LIG1        0.2685
      3 N          -4.5670    1.4130    0.0000 N.ar    1  LIG1       -0.2577
      4 C          -4.5670    0.4250    0.0000 C.ar    1  LIG1        0.1514
      5 N          -3.7330   -0.1420    0.0000 N.ar    1  LIG1       -0.2116
      6 C          -2.8420    0.4250    0.0000 C.ar    1  LIG1        0.1538
      7 N          -1.8920   -0.0130    0.0000 N.pl3   1  LIG1       -0.2175
      8 C          -1.8920   -1.0670    0.0000 C.3     1  LIG1        0.1458
      9 C          -0.9540   -1.5250    0.0000 C.3     1  LIG1        0.1656
     10 O          -0.8880   -2.5130    0.0000 O.3     1  LIG1       -0.3491
     11 C          -0.0330   -2.9460    0.0000 C.3     1  LIG1        0.1777
     12 C           0.0330   -3.8670    0.0000 C.3     1  LIG1        0.2140
     13 O           0.8880   -4.2630    0.0000 O.3     1  LIG1       -0.2176
     14 C          -5.4540   -0.1420    0.0000 C.ar    1  LIG1        0.0376
     15 C          -6.3080    0.4250    0.0000 C.ar    1  LIG1        0.0046
     16 C          -6.3080    1.4130    0.0000 C.ar    1  LIG1        0.0192
     17 C          -5.4540    1.8750    0.0000 C.ar    1  LIG1        0.0844
     18 O          -3.7330    2.9460    0.0000 O.2     1  LIG1       -0.2665
     19 C          -1.9580    1.8750    0.0000 C.2     1  LIG1        0.0187
     20 C          -0.9540    1.8750    0.0000 C.2     1  LIG1        0.0852
     21 C          -0.4040    2.7130    0.0000 C.2     1  LIG1        0.2595
     22 N           0.5580    2.5170    0.0000 N.am    1  LIG1       -0.2441
     23 C           0.6330    1.5630    0.0000 C.2     1  LIG1        0.1212
     24 S          -0.2920    1.1670    0.0000 S.3     1  LIG1       -0.0604
     25 S           1.5460    1.0040    0.0000 S.2     1  LIG1       -0.0272
     26 C           1.3540    3.1750    0.0000 C.3     1  LIG1        0.0995
     27 C           2.3080    2.8460    0.0000 C.3     1  LIG1        0.0219
     28 C           3.0630    3.4880    0.0000 C.3     1  LIG1        0.0022
     29 C           3.9540    3.2130    0.0000 C.3     1  LIG1        0.0060
     30 C           4.6790    3.8920    0.0000 C.3     1  LIG1        0.0417
     31 C           5.6290    3.6040    0.0000 C.2     1  LIG1        0.0503
     32 O           6.3080    4.2630    0.0000 O.co2   1  LIG1       -0.5492
     33 O           5.8250    2.6380    0.0000 O.co2   1  LIG1       -0.5492
     34 O          -0.8000    3.6920    0.0000 O.2     1  LIG1       -0.2690
@<TRIPOS>BOND
     1     1     2   ar
     2     1     6   ar
     3     1    19    1
     4     2     3   ar
     5     2    18    2
     6     3     4   ar
     7     3    17   ar
     8     4     5   ar
     9     4    14   ar
    10     5     6   ar
    11     6     7    1
    12     7     8    1
    13     8     9    1
    14     9    10    1
    15    10    11    1
    16    11    12    1
    17    12    13    1
    18    14    15   ar
    19    15    16   ar
    20    16    17   ar
    21    19    20    2
    22    20    21    1
    23    20    24    1
    24    21    22   am
    25    21    34    2
    26    22    23    1
    27    22    26    1
    28    23    24    1
    29    23    25    2
    30    26    27    1
    31    27    28    1
    32    28    29    1
    33    29    30    1
    34    30    31    1
    35    31    32   ar
    36    31    33   ar
