@<TRIPOS>MOLECULE
28379_ChemDiv_5756-0243
 32 34 0 0 0
SMALL
GASTEIGER
Energy = 0

@<TRIPOS>ATOM
      1 C          -2.0380    1.6420    0.0000 C.ar    1  LIG1        0.0901
      2 C          -2.9290    2.1040    0.0000 C.ar    1  LIG1        0.2685
      3 N          -3.7630    1.6420    0.0000 N.ar    1  LIG1       -0.2577
      4 C          -3.7630    0.6580    0.0000 C.ar    1  LIG1        0.1514
      5 N          -2.9290    0.0920    0.0000 N.ar    1  LIG1       -0.2116
      6 C          -2.0380    0.6580    0.0000 C.ar    1  LIG1        0.1538
      7 N          -1.0920    0.2210    0.0000 N.pl3   1  LIG1       -0.2175
      8 C          -1.0920   -0.8290    0.0000 C.3     1  LIG1        0.1458
      9 C          -0.1540   -1.2880    0.0000 C.3     1  LIG1        0.1656
     10 O          -0.0920   -2.2750    0.0000 O.3     1  LIG1       -0.3491
     11 C           0.7630   -2.7080    0.0000 C.3     1  LIG1        0.1777
     12 C           0.8290   -3.6250    0.0000 C.3     1  LIG1        0.2140
     13 O           1.6830   -4.0210    0.0000 O.3     1  LIG1       -0.2176
     14 C          -4.6460    0.0920    0.0000 C.ar    1  LIG1        0.0376
     15 C          -5.5000    0.6580    0.0000 C.ar    1  LIG1        0.0046
     16 C          -5.5000    1.6420    0.0000 C.ar    1  LIG1        0.0192
     17 C          -4.6460    2.1040    0.0000 C.ar    1  LIG1        0.0844
     18 O          -2.9290    3.1710    0.0000 O.2     1  LIG1       -0.2665
     19 C          -1.1580    2.1040    0.0000 C.2     1  LIG1        0.0187
     20 C          -0.1540    2.1040    0.0000 C.2     1  LIG1        0.0852
     21 C           0.3920    2.9420    0.0000 C.2     1  LIG1        0.2595
     22 N           1.3540    2.7420    0.0000 N.am    1  LIG1       -0.2441
     23 C           1.4250    1.7920    0.0000 C.2     1  LIG1        0.1212
     24 S           0.5080    1.3960    0.0000 S.3     1  LIG1       -0.0604
     25 S           2.3420    1.2330    0.0000 S.2     1  LIG1       -0.0272
     26 C           2.1500    3.4000    0.0000 C.3     1  LIG1        0.0999
     27 C           3.1000    3.0710    0.0000 C.3     1  LIG1        0.0278
     28 C           3.8500    3.7130    0.0000 C.3     1  LIG1        0.0435
     29 C           4.7710    3.3830    0.0000 C.2     1  LIG1        0.0504
     30 O           5.4960    4.0210    0.0000 O.co2   1  LIG1       -0.5492
     31 O           4.9210    2.4170    0.0000 O.co2   1  LIG1       -0.5492
     32 O           0.0000    3.9130    0.0000 O.2     1  LIG1       -0.2690
@<TRIPOS>BOND
     1     1     2   ar
     2     1     6   ar
     3     1    19    1
     4     2     3   ar
     5     2    18    2
     6     3     4   ar
     7     3    17   ar
     8     4     5   ar
     9     4    14   ar
    10     5     6   ar
    11     6     7    1
    12     7     8    1
    13     8     9    1
    14     9    10    1
    15    10    11    1
    16    11    12    1
    17    12    13    1
    18    14    15   ar
    19    15    16   ar
    20    16    17   ar
    21    19    20    2
    22    20    21    1
    23    20    24    1
    24    21    22   am
    25    21    32    2
    26    22    23    1
    27    22    26    1
    28    23    24    1
    29    23    25    2
    30    26    27    1
    31    27    28    1
    32    28    29    1
    33    29    30   ar
    34    29    31   ar
