@<TRIPOS>MOLECULE
28370_ChemDiv_6243-1391
 28 31 0 0 0
SMALL
GASTEIGER
Energy = 0

@<TRIPOS>ATOM
      1 C           0.3540   -0.8420    0.0000 C.2     1  LIG1        0.0821
      2 C          -0.0580    0.0880    0.0000 C.2     1  LIG1        0.3459
      3 O           0.6880    0.7540    0.0000 O.3     1  LIG1       -0.4210
      4 C           1.5460    0.2380    0.0000 C.2     1  LIG1        0.1489
      5 C           1.3330   -0.7330    0.0000 C.2     1  LIG1        0.0442
      6 C           2.4630    0.6330    0.0000 C.ar    1  LIG1        0.0347
      7 C           2.5750    1.6330    0.0000 C.ar    1  LIG1        0.0027
      8 C           3.4830    2.0250    0.0000 C.ar    1  LIG1       -0.0042
      9 C           4.2920    1.4290    0.0000 C.ar    1  LIG1       -0.0218
     10 C           4.1830    0.4290    0.0000 C.ar    1  LIG1       -0.0042
     11 C           3.2630    0.0380    0.0000 C.ar    1  LIG1        0.0027
     12 C           5.2130    1.8380    0.0000 C.3     1  LIG1        0.0310
     13 O          -1.0380    0.3000    0.0000 O.2     1  LIG1       -0.2445
     14 C          -0.1500   -1.7040    0.0000 C.2     1  LIG1        0.0440
     15 C          -1.1460   -1.7040    0.0000 C.ar    1  LIG1        0.1456
     16 O          -1.7330   -0.9000    0.0000 O.2     1  LIG1       -0.4535
     17 C          -2.6880   -1.2130    0.0000 C.ar    1  LIG1        0.1453
     18 C          -2.6750   -2.2290    0.0000 C.ar    1  LIG1        0.0406
     19 C          -1.7330   -2.5210    0.0000 C.ar    1  LIG1        0.0406
     20 C          -3.4960   -0.6290    0.0000 C.ar    1  LIG1        0.0346
     21 C          -3.4000    0.3580    0.0000 C.ar    1  LIG1        0.0042
     22 C          -4.2000    0.9460    0.0000 C.ar    1  LIG1        0.0141
     23 C          -4.1080    1.9460    0.0000 C.2     1  LIG1        0.0729
     24 O          -4.9170    2.5250    0.0000 O.co2   1  LIG1       -0.5446
     25 O          -3.1920    2.3540    0.0000 O.co2   1  LIG1       -0.5446
     26 C          -5.1130    0.5380    0.0000 C.ar    1  LIG1        0.0011
     27 C          -5.2170   -0.4630    0.0000 C.ar    1  LIG1        0.0001
     28 C          -4.3960   -1.0460    0.0000 C.ar    1  LIG1        0.0030
@<TRIPOS>BOND
     1     1     2    1
     2     1     5    1
     3     1    14    2
     4     2     3    1
     5     2    13    2
     6     3     4    1
     7     4     5    2
     8     4     6    1
     9     6     7   ar
    10     6    11   ar
    11     7     8   ar
    12     8     9   ar
    13     9    10   ar
    14     9    12    1
    15    10    11   ar
    16    14    15    1
    17    15    16   ar
    18    15    19   ar
    19    16    17   ar
    20    17    18   ar
    21    17    20    1
    22    18    19   ar
    23    20    21   ar
    24    20    28   ar
    25    21    22   ar
    26    22    23    1
    27    22    26   ar
    28    23    24   ar
    29    23    25   ar
    30    26    27   ar
    31    27    28   ar
