@<TRIPOS>MOLECULE
28373_ChemDiv_4678-0063
 29 31 0 0 0
SMALL
GASTEIGER
Energy = 0

@<TRIPOS>ATOM
      1 C          -1.4960   -1.0250    0.0000 C.ar    1  LIG1        0.0901
      2 C          -1.5080   -2.0210    0.0000 C.ar    1  LIG1        0.2685
      3 N          -2.3710   -2.5080    0.0000 N.ar    1  LIG1       -0.2577
      4 C          -3.2420   -2.0080    0.0000 C.ar    1  LIG1        0.1514
      5 N          -3.2380   -0.9960    0.0000 N.ar    1  LIG1       -0.2116
      6 C          -2.3580   -0.5080    0.0000 C.ar    1  LIG1        0.1537
      7 N          -2.3460    0.4920    0.0000 N.pl3   1  LIG1       -0.2201
      8 C          -3.2080    1.0080    0.0000 C.3     1  LIG1        0.1164
      9 C          -3.1960    1.9880    0.0000 C.3     1  LIG1        0.0554
     10 C          -4.0460    2.4960    0.0000 C.3     1  LIG1        0.1441
     11 O          -4.0330    3.5040    0.0000 O.3     1  LIG1       -0.3510
     12 C          -4.8960    4.0130    0.0000 C.3     1  LIG1        0.1741
     13 C          -4.0920   -2.5080    0.0000 C.ar    1  LIG1        0.0376
     14 C          -4.0920   -3.5000    0.0000 C.ar    1  LIG1        0.0046
     15 C          -3.2420   -4.0080    0.0000 C.ar    1  LIG1        0.0192
     16 C          -2.3710   -3.5000    0.0000 C.ar    1  LIG1        0.0844
     17 O          -0.6460   -2.5290    0.0000 O.2     1  LIG1       -0.2665
     18 C          -0.6250   -0.5250    0.0000 C.2     1  LIG1        0.0187
     19 C           0.2380   -1.0500    0.0000 C.2     1  LIG1        0.0852
     20 C           1.1500   -0.6460    0.0000 C.2     1  LIG1        0.2596
     21 N           1.8170   -1.4000    0.0000 N.am    1  LIG1       -0.2415
     22 C           1.3130   -2.2670    0.0000 C.2     1  LIG1        0.1213
     23 S           0.3250   -2.0250    0.0000 S.3     1  LIG1       -0.0604
     24 S           1.6960   -3.1750    0.0000 S.2     1  LIG1       -0.0272
     25 C           2.8130   -1.3000    0.0000 C.3     1  LIG1        0.1315
     26 C           3.3960   -2.1170    0.0000 C.3     1  LIG1        0.1641
     27 O           4.3920   -2.1170    0.0000 O.3     1  LIG1       -0.3493
     28 C           4.8920   -2.9920    0.0000 C.3     1  LIG1        0.1742
     29 O           1.3710    0.3420    0.0000 O.2     1  LIG1       -0.2690
@<TRIPOS>BOND
     1     1     2   ar
     2     1     6   ar
     3     1    18    1
     4     2     3   ar
     5     2    17    2
     6     3     4   ar
     7     3    16   ar
     8     4     5   ar
     9     4    13   ar
    10     5     6   ar
    11     6     7    1
    12     7     8    1
    13     8     9    1
    14     9    10    1
    15    10    11    1
    16    11    12    1
    17    13    14   ar
    18    14    15   ar
    19    15    16   ar
    20    18    19    2
    21    19    20    1
    22    19    23    1
    23    20    21   am
    24    20    29    2
    25    21    22    1
    26    21    25    1
    27    22    23    1
    28    22    24    2
    29    25    26    1
    30    26    27    1
    31    27    28    1
