@<TRIPOS>MOLECULE
28385_ChemDiv_4707-0055
 22 24 0 0 0
SMALL
GASTEIGER
Energy = 0

@<TRIPOS>ATOM
      1 C          -1.0630    1.9080    0.0000 C.ar    1  LIG1        0.1852
      2 N          -1.0790    2.8750    0.0000 N.ar    1  LIG1       -0.2272
      3 C          -2.0920    3.1500    0.0000 C.ar    1  LIG1        0.0630
      4 C          -2.6170    2.3000    0.0000 C.ar    1  LIG1        0.0235
      5 S          -1.9960    1.5000    0.0000 S.2     1  LIG1       -0.0544
      6 C          -3.6290    2.3210    0.0000 C.3     1  LIG1        0.0343
      7 C          -4.0960    3.2000    0.0000 C.3     1  LIG1        0.0057
      8 C          -3.5710    4.0630    0.0000 C.3     1  LIG1        0.0067
      9 C          -2.5830    4.0250    0.0000 C.3     1  LIG1        0.0461
     10 N          -0.1960    1.4040    0.0000 N.am    1  LIG1       -0.1536
     11 C          -0.1960    0.4380    0.0000 C.2     1  LIG1        0.2587
     12 O          -1.0630   -0.0710    0.0000 O.2     1  LIG1       -0.2720
     13 C           0.6540   -0.0710    0.0000 C.3     1  LIG1        0.1520
     14 S           0.6540   -1.0790    0.0000 S.3     1  LIG1       -0.0657
     15 C           1.5170   -1.5750    0.0000 C.ar    1  LIG1        0.1929
     16 N           1.5170   -2.5750    0.0000 N.ar    1  LIG1       -0.2028
     17 C           2.3830   -3.0670    0.0000 C.ar    1  LIG1        0.1747
     18 C           3.2540   -2.5830    0.0000 C.ar    1  LIG1        0.0753
     19 C           3.2420   -1.5750    0.0000 C.ar    1  LIG1        0.1747
     20 N           2.3830   -1.0960    0.0000 N.ar    1  LIG1       -0.2028
     21 N           4.0920   -1.0540    0.0000 N.pl3   1  LIG1       -0.1070
     22 N           2.3670   -4.0630    0.0000 N.pl3   1  LIG1       -0.1070
@<TRIPOS>BOND
     1     1     2   ar
     2     1     5   ar
     3     1    10    1
     4     2     3   ar
     5     3     4   ar
     6     3     9    1
     7     4     5   ar
     8     4     6    1
     9     6     7    1
    10     7     8    1
    11     8     9    1
    12    10    11   am
    13    11    12    2
    14    11    13    1
    15    13    14    1
    16    14    15    1
    17    15    16   ar
    18    15    20   ar
    19    16    17   ar
    20    17    18   ar
    21    17    22    1
    22    18    19   ar
    23    19    20   ar
    24    19    21    1
