@<TRIPOS>MOLECULE
28387_ChemDiv_4707-0059
 20 22 0 0 0
SMALL
GASTEIGER
Energy = 0

@<TRIPOS>ATOM
      1 C          -0.5790    1.6630    0.0000 C.ar    1  LIG1        0.1852
      2 N          -0.5790    2.6250    0.0000 N.ar    1  LIG1       -0.2272
      3 C          -1.6170    2.9040    0.0000 C.ar    1  LIG1        0.0630
      4 C          -2.1420    2.0460    0.0000 C.ar    1  LIG1        0.0235
      5 S          -1.4960    1.2460    0.0000 S.2     1  LIG1       -0.0544
      6 C          -3.1250    2.0830    0.0000 C.3     1  LIG1        0.0343
      7 C          -3.6000    2.9540    0.0000 C.3     1  LIG1        0.0057
      8 C          -3.0880    3.8080    0.0000 C.3     1  LIG1        0.0067
      9 C          -2.0960    3.7830    0.0000 C.3     1  LIG1        0.0461
     10 N           0.2920    1.1630    0.0000 N.am    1  LIG1       -0.1536
     11 C           0.2920    0.2000    0.0000 C.2     1  LIG1        0.2587
     12 O          -0.5790   -0.3080    0.0000 O.2     1  LIG1       -0.2720
     13 C           1.1290   -0.3080    0.0000 C.3     1  LIG1        0.1510
     14 S           1.1290   -1.3080    0.0000 S.3     1  LIG1       -0.0767
     15 C           1.9920   -1.8040    0.0000 C.ar    1  LIG1        0.1611
     16 S           2.1080   -2.8210    0.0000 S.2     1  LIG1       -0.0212
     17 C           3.1250   -2.9500    0.0000 C.ar    1  LIG1        0.2226
     18 N           3.5960   -2.1250    0.0000 N.ar    1  LIG1       -0.1217
     19 N           2.8710   -1.3710    0.0000 N.ar    1  LIG1       -0.1330
     20 N           3.5960   -3.8040    0.0000 N.pl3   1  LIG1       -0.0979
@<TRIPOS>BOND
     1     1     2   ar
     2     1     5   ar
     3     1    10    1
     4     2     3   ar
     5     3     4   ar
     6     3     9    1
     7     4     5   ar
     8     4     6    1
     9     6     7    1
    10     7     8    1
    11     8     9    1
    12    10    11   am
    13    11    12    2
    14    11    13    1
    15    13    14    1
    16    14    15    1
    17    15    16   ar
    18    15    19   ar
    19    16    17   ar
    20    17    18   ar
    21    17    20    1
    22    18    19   ar
