@<TRIPOS>MOLECULE
28389_ChemDiv_5024-0087
 25 28 0 0 0
SMALL
GASTEIGER
Energy = 0

@<TRIPOS>ATOM
      1 C           2.5710    0.9210    0.0000 C.ar    1  LIG1        0.1852
      2 N           2.7210    1.9080    0.0000 N.ar    1  LIG1       -0.2272
      3 C           1.8250    2.3380    0.0000 C.ar    1  LIG1        0.0630
      4 C           1.1330    1.6460    0.0000 C.ar    1  LIG1        0.0235
      5 S           1.5790    0.7500    0.0000 S.2     1  LIG1       -0.0544
      6 C           0.1630    1.8880    0.0000 C.3     1  LIG1        0.0343
      7 C          -0.0880    2.8500    0.0000 C.3     1  LIG1        0.0057
      8 C           0.6040    3.5540    0.0000 C.3     1  LIG1        0.0067
      9 C           1.5670    3.2960    0.0000 C.3     1  LIG1        0.0461
     10 N           3.2250    0.1420    0.0000 N.am    1  LIG1       -0.1536
     11 C           2.8750   -0.7920    0.0000 C.2     1  LIG1        0.2587
     12 O           3.5080   -1.5670    0.0000 O.2     1  LIG1       -0.2720
     13 C           1.8830   -0.9710    0.0000 C.3     1  LIG1        0.1521
     14 S           1.2420   -0.2000    0.0000 S.3     1  LIG1       -0.0642
     15 C           0.2380   -0.3670    0.0000 C.ar    1  LIG1        0.2108
     16 N          -0.4500    0.3330    0.0000 N.ar    1  LIG1       -0.1977
     17 C          -1.3630   -0.1210    0.0000 C.ar    1  LIG1        0.2020
     18 N          -1.1830   -1.1130    0.0000 N.ar    1  LIG1       -0.2075
     19 N          -0.2040   -1.2580    0.0000 N.ar    1  LIG1       -0.1375
     20 C          -1.8670   -1.8460    0.0000 C.ar    1  LIG1        0.0846
     21 C          -1.5500   -2.8040    0.0000 C.ar    1  LIG1        0.0192
     22 C          -2.2330   -3.5500    0.0000 C.ar    1  LIG1        0.0015
     23 C          -3.2080   -3.3330    0.0000 C.ar    1  LIG1        0.0001
     24 C          -3.5130   -2.3920    0.0000 C.ar    1  LIG1        0.0015
     25 C          -2.8420   -1.6420    0.0000 C.ar    1  LIG1        0.0192
@<TRIPOS>BOND
     1     1     2   ar
     2     1     5   ar
     3     1    10    1
     4     2     3   ar
     5     3     4   ar
     6     3     9    1
     7     4     5   ar
     8     4     6    1
     9     6     7    1
    10     7     8    1
    11     8     9    1
    12    10    11   am
    13    11    12    2
    14    11    13    1
    15    13    14    1
    16    14    15    1
    17    15    16   ar
    18    15    19   ar
    19    16    17   ar
    20    17    18   ar
    21    18    19   ar
    22    18    20    1
    23    20    21   ar
    24    20    25   ar
    25    21    22   ar
    26    22    23   ar
    27    23    24   ar
    28    24    25   ar
