@<TRIPOS>MOLECULE
28380_ChemDiv_2705-0004
 18 19 0 0 0
SMALL
GASTEIGER
Energy = 0

@<TRIPOS>ATOM
      1 N           1.5710    0.6790    0.0000 N.ar    1  LIG1       -0.0761
      2 C           1.0750   -0.1830    0.0000 C.ar    1  LIG1        0.1238
      3 C           1.7460   -0.9250    0.0000 C.ar    1  LIG1        0.0733
      4 C           2.6630   -0.5290    0.0000 C.ar    1  LIG1        0.2442
      5 O           2.5580    0.4790    0.0000 O.2     1  LIG1       -0.3430
      6 C           3.5420   -1.0210    0.0000 C.1     1  LIG1        0.1412
      7 N           4.4130   -1.5330    0.0000 N.1     1  LIG1       -0.1876
      8 C           0.0710   -0.1830    0.0000 C.ar    1  LIG1        0.0210
      9 C          -0.4250   -1.0500    0.0000 C.ar    1  LIG1        0.0029
     10 C          -1.4250   -1.0500    0.0000 C.ar    1  LIG1        0.0146
     11 C          -1.9210   -0.1830    0.0000 C.ar    1  LIG1        0.0478
     12 N          -2.9170   -0.1830    0.0000 N.pl3   1  LIG1       -0.3075
     13 C          -3.4210   -1.0420    0.0000 C.3     1  LIG1        0.0908
     14 C          -4.4170   -1.0420    0.0000 C.3     1  LIG1        0.0232
     15 C          -3.4210    0.6710    0.0000 C.3     1  LIG1        0.0908
     16 C          -2.9170    1.5380    0.0000 C.3     1  LIG1        0.0232
     17 C          -1.4250    0.6790    0.0000 C.ar    1  LIG1        0.0146
     18 C          -0.4250    0.6790    0.0000 C.ar    1  LIG1        0.0029
@<TRIPOS>BOND
     1     1     2   ar
     2     1     5   ar
     3     2     3   ar
     4     2     8    1
     5     3     4   ar
     6     4     5   ar
     7     4     6    1
     8     6     7    3
     9     8     9   ar
    10     8    18   ar
    11     9    10   ar
    12    10    11   ar
    13    11    12    1
    14    11    17   ar
    15    12    13    1
    16    12    15    1
    17    13    14    1
    18    15    16    1
    19    17    18   ar
