@<TRIPOS>MOLECULE
28384_ChemDiv_C614-0261
 13 14 0 0 0
SMALL
GASTEIGER
Energy = 0

@<TRIPOS>ATOM
      1 C           1.2290    0.9080    0.0000 C.ar    1  LIG1        0.0816
      2 C           0.9080   -0.0460    0.0000 C.ar    1  LIG1        0.1245
      3 N           1.7250   -0.6380    0.0000 N.ar    1  LIG1       -0.0753
      4 O           2.5330   -0.0460    0.0000 O.2     1  LIG1       -0.3352
      5 C           2.2290    0.9040    0.0000 C.ar    1  LIG1        0.2653
      6 N           2.8290    1.7210    0.0000 N.pl3   1  LIG1       -0.0852
      7 C          -0.0210   -0.3830    0.0000 C.ar    1  LIG1        0.0210
      8 C          -0.7880    0.2540    0.0000 C.ar    1  LIG1        0.0021
      9 C          -1.7170   -0.0960    0.0000 C.ar    1  LIG1        0.0067
     10 C          -1.8960   -1.0750    0.0000 C.ar    1  LIG1        0.0346
     11 C          -1.1250   -1.7170    0.0000 C.ar    1  LIG1        0.0067
     12 C          -0.1960   -1.3710    0.0000 C.ar    1  LIG1        0.0021
     13 BR         -2.8330   -1.4170    0.0000 Br      1  LIG1       -0.0490
@<TRIPOS>BOND
     1     1     2   ar
     2     1     5   ar
     3     2     3   ar
     4     2     7    1
     5     3     4   ar
     6     4     5   ar
     7     5     6    1
     8     7     8   ar
     9     7    12   ar
    10     8     9   ar
    11     9    10   ar
    12    10    11   ar
    13    10    13    1
    14    11    12   ar
