@<TRIPOS>MOLECULE
28391_ChemDiv_5298-3111
 26 28 0 0 0
SMALL
GASTEIGER
Energy = 0

@<TRIPOS>ATOM
      1 C           2.7330   -0.0500    0.0000 C.ar    1  LIG1        0.0803
      2 C           2.0290    0.6710    0.0000 C.ar    1  LIG1        0.0697
      3 N           1.1290    0.2000    0.0000 N.ar    1  LIG1       -0.2268
      4 C           1.3000   -0.7670    0.0000 C.ar    1  LIG1        0.1857
      5 S           2.2750   -0.9210    0.0000 S.2     1  LIG1       -0.0472
      6 N           0.5880   -1.4790    0.0000 N.am    1  LIG1       -0.1513
      7 C          -0.3630   -1.2330    0.0000 C.2     1  LIG1        0.2875
      8 C          -0.6580   -0.2670    0.0000 C.3     1  LIG1        0.2433
      9 O          -1.6130   -0.0210    0.0000 O.3     1  LIG1       -0.4690
     10 C          -2.3250   -0.7330    0.0000 C.ar    1  LIG1        0.1496
     11 C          -3.2750   -0.4880    0.0000 C.ar    1  LIG1        0.0924
     12 C          -3.9670   -1.2040    0.0000 C.ar    1  LIG1        0.0258
     13 C          -3.6920   -2.1710    0.0000 C.ar    1  LIG1        0.0587
     14 C          -2.7380   -2.4170    0.0000 C.ar    1  LIG1        0.0146
     15 C          -2.0290   -1.7000    0.0000 C.ar    1  LIG1        0.0387
     16 CL         -4.4040   -2.8830    0.0000 Cl      1  LIG1       -0.0822
     17 CL         -3.5500    0.4830    0.0000 Cl      1  LIG1       -0.0791
     18 C           0.0500    0.4500    0.0000 C.3     1  LIG1        0.0575
     19 O          -1.0750   -1.9500    0.0000 O.2     1  LIG1       -0.2690
     20 C           2.2750    1.6130    0.0000 C.3     1  LIG1        0.0469
     21 C           3.2290    1.8880    0.0000 C.3     1  LIG1        0.0129
     22 C           3.9580    1.1710    0.0000 C.3     1  LIG1        0.0701
     23 C           3.6920    0.2000    0.0000 C.2     1  LIG1        0.1802
     24 O           4.4000   -0.5170    0.0000 O.2     1  LIG1       -0.2908
     25 C           3.9420    2.6040    0.0000 C.3     1  LIG1        0.0008
     26 C           3.1250    2.8880    0.0000 C.3     1  LIG1        0.0008
@<TRIPOS>BOND
     1     1     2   ar
     2     1     5   ar
     3     1    23    1
     4     2     3   ar
     5     2    20    1
     6     3     4   ar
     7     4     5   ar
     8     4     6    1
     9     6     7   am
    10     7     8    1
    11     7    19    2
    12     8     9    1
    13     8    18    1
    14     9    10    1
    15    10    11   ar
    16    10    15   ar
    17    11    12   ar
    18    11    17    1
    19    12    13   ar
    20    13    14   ar
    21    13    16    1
    22    14    15   ar
    23    20    21    1
    24    21    22    1
    25    21    25    1
    26    21    26    1
    27    22    23    1
    28    23    24    2
