@<TRIPOS>MOLECULE
28395_ChemDiv_5298-5613
 26 29 0 0 0
SMALL
GASTEIGER
Energy = 0

@<TRIPOS>ATOM
      1 C           1.6500   -1.2080    0.0000 C.ar    1  LIG1        0.0803
      2 C           0.9380   -0.5130    0.0000 C.ar    1  LIG1        0.0697
      3 N           0.0500   -0.9710    0.0000 N.ar    1  LIG1       -0.2268
      4 C           0.2080   -1.9380    0.0000 C.ar    1  LIG1        0.1858
      5 S           1.1830   -2.1040    0.0000 S.2     1  LIG1       -0.0472
      6 N          -0.5250   -2.6330    0.0000 N.am    1  LIG1       -0.1505
      7 C          -1.4750   -2.3710    0.0000 C.2     1  LIG1        0.2708
      8 C          -1.7250   -1.4000    0.0000 C.2     1  LIG1        0.0599
      9 C          -0.9920   -0.7080    0.0000 C.2     1  LIG1        0.0048
     10 C          -1.2290    0.2630    0.0000 C.ar    1  LIG1        0.0034
     11 C          -2.2080    0.5250    0.0000 C.ar    1  LIG1        0.0402
     12 C          -2.4500    1.4960    0.0000 C.ar    1  LIG1        0.1764
     13 C          -1.7420    2.1880    0.0000 C.ar    1  LIG1        0.1764
     14 O          -2.1880    3.0710    0.0000 O.3     1  LIG1       -0.4346
     15 C          -3.1670    2.9460    0.0000 C.3     1  LIG1        0.4294
     16 O          -3.3170    1.9500    0.0000 O.3     1  LIG1       -0.4346
     17 C          -0.7710    1.9250    0.0000 C.ar    1  LIG1        0.0402
     18 C          -0.5250    0.9540    0.0000 C.ar    1  LIG1        0.0033
     19 O          -2.1880   -3.0670    0.0000 O.2     1  LIG1       -0.2679
     20 C           1.1830    0.4540    0.0000 C.3     1  LIG1        0.0469
     21 C           2.1540    0.7210    0.0000 C.3     1  LIG1        0.0129
     22 C           2.8880   -0.0130    0.0000 C.3     1  LIG1        0.0701
     23 C           2.6000   -0.9710    0.0000 C.2     1  LIG1        0.1802
     24 O           3.3130   -1.7080    0.0000 O.2     1  LIG1       -0.2908
     25 C           2.8460    1.4540    0.0000 C.3     1  LIG1        0.0008
     26 C           2.0460    1.7210    0.0000 C.3     1  LIG1        0.0008
@<TRIPOS>BOND
     1     1     2   ar
     2     1     5   ar
     3     1    23    1
     4     2     3   ar
     5     2    20    1
     6     3     4   ar
     7     4     5   ar
     8     4     6    1
     9     6     7   am
    10     7     8    1
    11     7    19    2
    12     8     9    2
    13     9    10    1
    14    10    11   ar
    15    10    18   ar
    16    11    12   ar
    17    12    13   ar
    18    12    16    1
    19    13    14    1
    20    13    17   ar
    21    14    15    1
    22    15    16    1
    23    17    18   ar
    24    20    21    1
    25    21    22    1
    26    21    25    1
    27    21    26    1
    28    22    23    1
    29    23    24    2
