@<TRIPOS>MOLECULE
28397_ChemDiv_5298-5709
 29 31 0 0 0
SMALL
GASTEIGER
Energy = 0

@<TRIPOS>ATOM
      1 C           3.5960    1.1170    0.0000 C.ar    1  LIG1        0.0803
      2 C           2.8960    1.8250    0.0000 C.ar    1  LIG1        0.0697
      3 N           2.0290    1.3750    0.0000 N.ar    1  LIG1       -0.2268
      4 C           2.1710    0.3960    0.0000 C.ar    1  LIG1        0.1858
      5 S           3.1630    0.2250    0.0000 S.2     1  LIG1       -0.0472
      6 N           1.4210   -0.2830    0.0000 N.am    1  LIG1       -0.1505
      7 C           0.4750   -0.0130    0.0000 C.2     1  LIG1        0.2708
      8 C          -0.2500   -0.6920    0.0000 C.2     1  LIG1        0.0599
      9 C          -1.2000   -0.3830    0.0000 C.2     1  LIG1        0.0049
     10 C          -1.9040   -1.1000    0.0000 C.ar    1  LIG1        0.0064
     11 C          -1.6540   -2.0540    0.0000 C.ar    1  LIG1        0.0403
     12 C          -2.3830   -2.7580    0.0000 C.ar    1  LIG1        0.1754
     13 C          -3.3330   -2.4920    0.0000 C.ar    1  LIG1        0.2061
     14 C          -3.5790   -1.5080    0.0000 C.ar    1  LIG1        0.1754
     15 C          -2.8540   -0.8290    0.0000 C.ar    1  LIG1        0.0403
     16 O          -4.5630   -1.2330    0.0000 O.3     1  LIG1       -0.4683
     17 C          -5.2580   -1.9500    0.0000 C.3     1  LIG1        0.2526
     18 O          -4.0540   -3.2080    0.0000 O.3     1  LIG1       -0.4654
     19 C          -5.0290   -2.9290    0.0000 C.3     1  LIG1        0.2528
     20 O          -2.1290   -3.7500    0.0000 O.3     1  LIG1       -0.4683
     21 C          -1.1580   -4.0210    0.0000 C.3     1  LIG1        0.2526
     22 O           0.2500    0.9750    0.0000 O.2     1  LIG1       -0.2679
     23 C           3.1460    2.7670    0.0000 C.3     1  LIG1        0.0469
     24 C           4.1210    3.0380    0.0000 C.3     1  LIG1        0.0129
     25 C           4.8170    2.3250    0.0000 C.3     1  LIG1        0.0701
     26 C           4.5500    1.3460    0.0000 C.2     1  LIG1        0.1802
     27 O           5.2540    0.6380    0.0000 O.2     1  LIG1       -0.2908
     28 C           4.8170    3.7460    0.0000 C.3     1  LIG1        0.0008
     29 C           4.0080    4.0210    0.0000 C.3     1  LIG1        0.0008
@<TRIPOS>BOND
     1     1     2   ar
     2     1     5   ar
     3     1    26    1
     4     2     3   ar
     5     2    23    1
     6     3     4   ar
     7     4     5   ar
     8     4     6    1
     9     6     7   am
    10     7     8    1
    11     7    22    2
    12     8     9    2
    13     9    10    1
    14    10    11   ar
    15    10    15   ar
    16    11    12   ar
    17    12    13   ar
    18    12    20    1
    19    13    14   ar
    20    13    18    1
    21    14    15   ar
    22    14    16    1
    23    16    17    1
    24    18    19    1
    25    20    21    1
    26    23    24    1
    27    24    25    1
    28    24    28    1
    29    24    29    1
    30    25    26    1
    31    26    27    2
