@<TRIPOS>MOLECULE
28399_ChemDiv_5471-0057
 25 28 0 0 0
SMALL
GASTEIGER
Energy = 0

@<TRIPOS>ATOM
      1 N           3.4830   -0.3710    0.0000 N.ar    1  LIG1       -0.1862
      2 C           2.8920    0.4170    0.0000 C.ar    1  LIG1        0.2151
      3 N           3.4580    1.2170    0.0000 N.ar    1  LIG1       -0.1011
      4 N           4.4000    0.9290    0.0000 N.ar    1  LIG1       -0.0218
      5 N           4.4170   -0.0420    0.0000 N.ar    1  LIG1       -0.0382
      6 S           1.8960    0.4170    0.0000 S.3     1  LIG1       -0.0640
      7 C           1.3960    1.2790    0.0000 C.3     1  LIG1        0.1521
      8 C           0.3830    1.2790    0.0000 C.2     1  LIG1        0.2587
      9 N          -0.1130    2.1540    0.0000 N.am    1  LIG1       -0.1536
     10 C          -1.1040    2.1540    0.0000 C.ar    1  LIG1        0.1852
     11 N          -1.5830    2.9540    0.0000 N.ar    1  LIG1       -0.2272
     12 C          -2.6460    2.6880    0.0000 C.ar    1  LIG1        0.0630
     13 C          -2.6920    1.7040    0.0000 C.ar    1  LIG1        0.0235
     14 S          -1.7040    1.3500    0.0000 S.2     1  LIG1       -0.0544
     15 C          -3.5710    1.2460    0.0000 C.3     1  LIG1        0.0343
     16 C          -4.4210    1.7500    0.0000 C.3     1  LIG1        0.0057
     17 C          -4.3670    2.7750    0.0000 C.3     1  LIG1        0.0067
     18 C          -3.4710    3.2540    0.0000 C.3     1  LIG1        0.0461
     19 O          -0.1130    0.4170    0.0000 O.2     1  LIG1       -0.2720
     20 C           3.1960   -1.3250    0.0000 C.ar    1  LIG1        0.0866
     21 C           2.2170   -1.5580    0.0000 C.ar    1  LIG1        0.0193
     22 C           1.9420   -2.5210    0.0000 C.ar    1  LIG1        0.0015
     23 C           2.6290   -3.2500    0.0000 C.ar    1  LIG1        0.0001
     24 C           3.5880   -3.0130    0.0000 C.ar    1  LIG1        0.0015
     25 C           3.8750   -2.0500    0.0000 C.ar    1  LIG1        0.0193
@<TRIPOS>BOND
     1     1     2   ar
     2     1     5   ar
     3     1    20    1
     4     2     3   ar
     5     2     6    1
     6     3     4   ar
     7     4     5   ar
     8     6     7    1
     9     7     8    1
    10     8     9   am
    11     8    19    2
    12     9    10    1
    13    10    11   ar
    14    10    14   ar
    15    11    12   ar
    16    12    13   ar
    17    12    18    1
    18    13    14   ar
    19    13    15    1
    20    15    16    1
    21    16    17    1
    22    17    18    1
    23    20    21   ar
    24    20    25   ar
    25    21    22   ar
    26    22    23   ar
    27    23    24   ar
    28    24    25   ar
