@<TRIPOS>MOLECULE
28409_ChemDiv_2580-0004
 26 29 0 0 0
SMALL
GASTEIGER
Energy = 0

@<TRIPOS>ATOM
      1 C          -0.8880    2.0170    0.0000 C.ar    1  LIG1        0.2408
      2 N          -0.8880    1.0210    0.0000 N.ar    1  LIG1       -0.2121
      3 C          -1.7500    0.5130    0.0000 C.ar    1  LIG1        0.0856
      4 C          -2.6130    1.0210    0.0000 C.ar    1  LIG1        0.0355
      5 C          -2.6130    2.0170    0.0000 C.ar    1  LIG1        0.0857
      6 N          -1.7500    2.5130    0.0000 N.ar    1  LIG1       -0.2121
      7 C          -3.4790    2.5130    0.0000 C.ar    1  LIG1        0.0192
      8 C          -4.3420    2.0170    0.0000 C.ar    1  LIG1        0.0015
      9 C          -4.3420    1.0210    0.0000 C.ar    1  LIG1        0.0001
     10 C          -3.4790    0.5130    0.0000 C.ar    1  LIG1        0.0030
     11 C          -1.7500   -0.5080    0.0000 C.ar    1  LIG1        0.0178
     12 C          -0.8880   -1.0000    0.0000 C.ar    1  LIG1        0.0015
     13 C          -0.8880   -2.0170    0.0000 C.ar    1  LIG1        0.0000
     14 C          -1.7500   -2.5080    0.0000 C.ar    1  LIG1        0.0000
     15 C          -2.6130   -2.0170    0.0000 C.ar    1  LIG1        0.0000
     16 C          -2.6130   -1.0000    0.0000 C.ar    1  LIG1        0.0015
     17 N          -0.0040    2.5130    0.0000 N.pl3   1  LIG1       -0.1777
     18 C           0.8580    2.0000    0.0000 C.ar    1  LIG1        0.0736
     19 C           1.7290    2.4880    0.0000 C.ar    1  LIG1        0.0166
     20 C           2.5830    1.9790    0.0000 C.ar    1  LIG1        0.0025
     21 C           2.5830    0.9830    0.0000 C.ar    1  LIG1        0.0141
     22 C           3.4580    0.4630    0.0000 C.2     1  LIG1        0.0729
     23 O           4.3380    0.9540    0.0000 O.co2   1  LIG1       -0.5446
     24 O           3.4380   -0.5380    0.0000 O.co2   1  LIG1       -0.5446
     25 C           1.7290    0.5130    0.0000 C.ar    1  LIG1        0.0025
     26 C           0.8580    1.0000    0.0000 C.ar    1  LIG1        0.0166
@<TRIPOS>BOND
     1     1     2   ar
     2     1     6   ar
     3     1    17    1
     4     2     3   ar
     5     3     4   ar
     6     3    11    1
     7     4     5   ar
     8     4    10   ar
     9     5     6   ar
    10     5     7   ar
    11     7     8   ar
    12     8     9   ar
    13     9    10   ar
    14    11    12   ar
    15    11    16   ar
    16    12    13   ar
    17    13    14   ar
    18    14    15   ar
    19    15    16   ar
    20    17    18    1
    21    18    19   ar
    22    18    26   ar
    23    19    20   ar
    24    20    21   ar
    25    21    22    1
    26    21    25   ar
    27    22    23   ar
    28    22    24   ar
    29    25    26   ar
