@<TRIPOS>MOLECULE
28404_ChemDiv_2706-0023
 15 16 0 0 0
SMALL
GASTEIGER
Energy = 0

@<TRIPOS>ATOM
      1 C          -1.9210   -0.1130    0.0000 C.ar    1  LIG1        0.2331
      2 C          -0.9710    0.2080    0.0000 C.ar    1  LIG1        0.0674
      3 C          -0.3880   -0.6040    0.0000 C.ar    1  LIG1        0.1232
      4 N          -0.9460   -1.4130    0.0000 N.ar    1  LIG1       -0.0768
      5 O          -1.9210   -1.1170    0.0000 O.2     1  LIG1       -0.3486
      6 C           0.6080   -0.6040    0.0000 C.ar    1  LIG1        0.0209
      7 C           1.1130   -1.4710    0.0000 C.ar    1  LIG1        0.0013
      8 C           2.1080   -1.4790    0.0000 C.ar    1  LIG1       -0.0042
      9 C           2.6210   -0.6130    0.0000 C.ar    1  LIG1       -0.0218
     10 C           2.1170    0.2420    0.0000 C.ar    1  LIG1       -0.0042
     11 C           1.1210    0.2540    0.0000 C.ar    1  LIG1        0.0013
     12 C           3.6210   -0.6130    0.0000 C.3     1  LIG1        0.0310
     13 C          -2.7290    0.4630    0.0000 C.2     1  LIG1        0.3215
     14 O          -3.6250    0.0290    0.0000 O.2     1  LIG1       -0.2632
     15 N          -2.6500    1.4830    0.0000 N.am    1  LIG1       -0.0809
@<TRIPOS>BOND
     1     1     2   ar
     2     1     5   ar
     3     1    13    1
     4     2     3   ar
     5     3     4   ar
     6     3     6    1
     7     4     5   ar
     8     6     7   ar
     9     6    11   ar
    10     7     8   ar
    11     8     9   ar
    12     9    10   ar
    13     9    12    1
    14    10    11   ar
    15    13    14    2
    16    13    15   am
