@<TRIPOS>MOLECULE
28406_ChemDiv_2708-0031
 18 20 0 0 0
SMALL
GASTEIGER
Energy = 0

@<TRIPOS>ATOM
      1 C          -1.9670   -0.3960    0.0000 C.ar    1  LIG1        0.2519
      2 C          -1.0710    0.0170    0.0000 C.ar    1  LIG1        0.0693
      3 C          -0.3920   -0.7250    0.0000 C.ar    1  LIG1        0.1233
      4 N          -0.8830   -1.5960    0.0000 N.ar    1  LIG1       -0.0767
      5 O          -1.8790   -1.3750    0.0000 O.2     1  LIG1       -0.3467
      6 C           0.6170   -0.7250    0.0000 C.ar    1  LIG1        0.0242
      7 C           1.1170    0.1380    0.0000 C.ar    1  LIG1        0.0418
      8 C           2.1000    0.1380    0.0000 C.ar    1  LIG1        0.1765
      9 C           2.6040   -0.7250    0.0000 C.ar    1  LIG1        0.1764
     10 O           3.5670   -0.5580    0.0000 O.3     1  LIG1       -0.4346
     11 C           3.7000    0.4630    0.0000 C.3     1  LIG1        0.4294
     12 O           2.7830    0.8830    0.0000 O.3     1  LIG1       -0.4346
     13 C           2.1000   -1.5960    0.0000 C.ar    1  LIG1        0.0402
     14 C           1.1170   -1.5960    0.0000 C.ar    1  LIG1        0.0049
     15 C          -2.8460    0.1080    0.0000 C.2     1  LIG1        0.3791
     16 O          -3.7040   -0.3960    0.0000 O.2     1  LIG1       -0.2413
     17 O          -2.8460    1.1000    0.0000 O.3     1  LIG1       -0.4392
     18 C          -1.9830    1.6000    0.0000 C.3     1  LIG1        0.2561
@<TRIPOS>BOND
     1     1     2   ar
     2     1     5   ar
     3     1    15    1
     4     2     3   ar
     5     3     4   ar
     6     3     6    1
     7     4     5   ar
     8     6     7   ar
     9     6    14   ar
    10     7     8   ar
    11     8     9   ar
    12     8    12    1
    13     9    10    1
    14     9    13   ar
    15    10    11    1
    16    11    12    1
    17    13    14   ar
    18    15    16    2
    19    15    17    1
    20    17    18    1
