@<TRIPOS>MOLECULE
28408_ChemDiv_E240-0030
 20 21 0 0 0
SMALL
GASTEIGER
Energy = 0

@<TRIPOS>ATOM
      1 C           0.2790   -1.3670    0.0000 C.ar    1  LIG1        0.2315
      2 C           1.2710   -1.2630    0.0000 C.ar    1  LIG1        0.0674
      3 C           1.4790   -0.2830    0.0000 C.ar    1  LIG1        0.1233
      4 N           0.6130    0.2170    0.0000 N.ar    1  LIG1       -0.0768
      5 O          -0.1290   -0.4500    0.0000 O.2     1  LIG1       -0.3487
      6 C           2.3920    0.1210    0.0000 C.ar    1  LIG1        0.0239
      7 C           2.4960    1.1170    0.0000 C.ar    1  LIG1        0.0385
      8 C           3.4080    1.5250    0.0000 C.ar    1  LIG1        0.1388
      9 O           3.5170    2.5170    0.0000 O.3     1  LIG1       -0.4714
     10 C           2.7040    3.1040    0.0000 C.3     1  LIG1        0.2525
     11 C           4.2210    0.9380    0.0000 C.ar    1  LIG1        0.0369
     12 C           4.1130   -0.0580    0.0000 C.ar    1  LIG1        0.0032
     13 C           3.2000   -0.4670    0.0000 C.ar    1  LIG1        0.0018
     14 C          -0.2250   -2.2330    0.0000 C.2     1  LIG1        0.3023
     15 O           0.2790   -3.1000    0.0000 O.2     1  LIG1       -0.2649
     16 N          -1.2210   -2.2330    0.0000 N.am    1  LIG1       -0.1963
     17 C          -1.7210   -1.3670    0.0000 C.3     1  LIG1        0.1475
     18 C          -2.7250   -1.3670    0.0000 C.3     1  LIG1        0.1656
     19 O          -3.2250   -0.5040    0.0000 O.3     1  LIG1       -0.3492
     20 C          -4.2250   -0.5040    0.0000 C.3     1  LIG1        0.1742
@<TRIPOS>BOND
     1     1     2   ar
     2     1     5   ar
     3     1    14    1
     4     2     3   ar
     5     3     4   ar
     6     3     6    1
     7     4     5   ar
     8     6     7   ar
     9     6    13   ar
    10     7     8   ar
    11     8     9    1
    12     8    11   ar
    13     9    10    1
    14    11    12   ar
    15    12    13   ar
    16    14    15    2
    17    14    16   am
    18    16    17    1
    19    17    18    1
    20    18    19    1
    21    19    20    1
