@<TRIPOS>MOLECULE
28402_ChemDiv_2706-0012
 15 16 0 0 0
SMALL
GASTEIGER
Energy = 0

@<TRIPOS>ATOM
      1 C          -1.4040    0.2790    0.0000 C.ar    1  LIG1        0.2331
      2 C          -0.5250    0.6960    0.0000 C.ar    1  LIG1        0.0674
      3 C           0.1580   -0.0420    0.0000 C.ar    1  LIG1        0.1229
      4 N          -0.3290   -0.9210    0.0000 N.ar    1  LIG1       -0.0768
      5 O          -1.3000   -0.7080    0.0000 O.2     1  LIG1       -0.3486
      6 C           1.1630   -0.0420    0.0000 C.ar    1  LIG1        0.0170
      7 C           1.6380   -0.9210    0.0000 C.ar    1  LIG1       -0.0203
      8 C           1.1170   -1.7710    0.0000 C.3     1  LIG1        0.0311
      9 C           2.6460   -0.9210    0.0000 C.ar    1  LIG1       -0.0042
     10 C           3.1500   -0.0420    0.0000 C.ar    1  LIG1       -0.0003
     11 C           2.6460    0.8210    0.0000 C.ar    1  LIG1        0.0000
     12 C           1.6380    0.8210    0.0000 C.ar    1  LIG1        0.0013
     13 C          -2.2830    0.7710    0.0000 C.2     1  LIG1        0.3215
     14 O          -3.1500    0.2460    0.0000 O.2     1  LIG1       -0.2632
     15 N          -2.3040    1.7750    0.0000 N.am    1  LIG1       -0.0809
@<TRIPOS>BOND
     1     1     2   ar
     2     1     5   ar
     3     1    13    1
     4     2     3   ar
     5     3     4   ar
     6     3     6    1
     7     4     5   ar
     8     6     7   ar
     9     6    12   ar
    10     7     8    1
    11     7     9   ar
    12     9    10   ar
    13    10    11   ar
    14    11    12   ar
    15    13    14    2
    16    13    15   am
