@<TRIPOS>MOLECULE
28411_ChemDiv_3914-0008
 30 33 0 0 0
SMALL
GASTEIGER
Energy = 0

@<TRIPOS>ATOM
      1 C          -0.8630    0.7250    0.0000 C.ar    1  LIG1        0.2202
      2 N          -0.8630   -0.2790    0.0000 N.ar    1  LIG1       -0.2136
      3 C          -1.7250   -0.7710    0.0000 C.ar    1  LIG1        0.0856
      4 C          -2.5830   -0.2790    0.0000 C.ar    1  LIG1        0.0352
      5 C          -2.5830    0.7250    0.0000 C.ar    1  LIG1        0.0856
      6 N          -1.7250    1.2330    0.0000 N.ar    1  LIG1       -0.2136
      7 C          -3.4460    1.2330    0.0000 C.ar    1  LIG1        0.0189
      8 C          -4.3000    0.7250    0.0000 C.ar    1  LIG1       -0.0027
      9 C          -4.3000   -0.2790    0.0000 C.ar    1  LIG1       -0.0217
     10 C          -3.4460   -0.7710    0.0000 C.ar    1  LIG1       -0.0013
     11 C          -5.1790   -0.7920    0.0000 C.3     1  LIG1        0.0310
     12 C          -1.7250   -1.7830    0.0000 C.ar    1  LIG1        0.0178
     13 C          -2.5830   -2.2710    0.0000 C.ar    1  LIG1        0.0015
     14 C          -2.5830   -3.2830    0.0000 C.ar    1  LIG1        0.0000
     15 C          -1.7250   -3.7670    0.0000 C.ar    1  LIG1        0.0000
     16 C          -0.8630   -3.2830    0.0000 C.ar    1  LIG1        0.0000
     17 C          -0.8630   -2.2710    0.0000 C.ar    1  LIG1        0.0015
     18 N           0.0000    1.2330    0.0000 N.pl3   1  LIG1       -0.2747
     19 C           0.8500    0.7250    0.0000 C.3     1  LIG1        0.1151
     20 C           1.7170    1.2330    0.0000 C.3     1  LIG1        0.1149
     21 N           1.7170    2.2250    0.0000 N.am    1  LIG1       -0.2760
     22 C           2.5960    2.7540    0.0000 C.2     1  LIG1        0.2261
     23 O           2.5960    3.7710    0.0000 O.2     1  LIG1       -0.2749
     24 C           3.4540    2.2540    0.0000 C.3     1  LIG1        0.0912
     25 C           3.4540    1.2540    0.0000 C.3     1  LIG1        0.0513
     26 C           4.3170    0.7540    0.0000 C.2     1  LIG1        0.0508
     27 O           5.1750    1.2540    0.0000 O.co2   1  LIG1       -0.5492
     28 O           4.3170   -0.2670    0.0000 O.co2   1  LIG1       -0.5492
     29 C           0.8500    2.7380    0.0000 C.3     1  LIG1        0.1149
     30 C           0.0000    2.2250    0.0000 C.3     1  LIG1        0.1151
@<TRIPOS>BOND
     1     1     2   ar
     2     1     6   ar
     3     1    18    1
     4     2     3   ar
     5     3     4   ar
     6     3    12    1
     7     4     5   ar
     8     4    10   ar
     9     5     6   ar
    10     5     7   ar
    11     7     8   ar
    12     8     9   ar
    13     9    10   ar
    14     9    11    1
    15    12    13   ar
    16    12    17   ar
    17    13    14   ar
    18    14    15   ar
    19    15    16   ar
    20    16    17   ar
    21    18    19    1
    22    18    30    1
    23    19    20    1
    24    20    21    1
    25    21    22   am
    26    21    29    1
    27    22    23    2
    28    22    24    1
    29    24    25    1
    30    25    26    1
    31    26    27   ar
    32    26    28   ar
    33    29    30    1
