@<TRIPOS>MOLECULE
28410_ChemDiv_E240-0096
 21 23 0 0 0
SMALL
GASTEIGER
Energy = 0

@<TRIPOS>ATOM
      1 C          -0.6790    0.2880    0.0000 C.ar    1  LIG1        0.2318
      2 C           0.3130    0.3920    0.0000 C.ar    1  LIG1        0.0674
      3 C           0.5250    1.3710    0.0000 C.ar    1  LIG1        0.1232
      4 N          -0.3420    1.8670    0.0000 N.ar    1  LIG1       -0.0768
      5 O          -1.0880    1.2000    0.0000 O.2     1  LIG1       -0.3487
      6 C           1.4380    1.7790    0.0000 C.ar    1  LIG1        0.0211
      7 C           1.5420    2.7710    0.0000 C.ar    1  LIG1        0.0039
      8 C           2.4500    3.1790    0.0000 C.ar    1  LIG1        0.0297
      9 C           3.2630    2.5920    0.0000 C.ar    1  LIG1        0.1401
     10 C           3.1580    1.5960    0.0000 C.ar    1  LIG1        0.0297
     11 C           2.2460    1.1880    0.0000 C.ar    1  LIG1        0.0039
     12 F           4.1790    2.9960    0.0000 F       1  LIG1       -0.2042
     13 C          -1.1830   -0.5790    0.0000 C.2     1  LIG1        0.3064
     14 N          -2.1790   -0.5790    0.0000 N.am    1  LIG1       -0.1712
     15 C          -2.6830   -1.4420    0.0000 C.ar    1  LIG1        0.0929
     16 C          -3.6790   -1.4420    0.0000 C.ar    1  LIG1        0.1154
     17 N          -4.1830   -2.3080    0.0000 N.ar    1  LIG1       -0.2410
     18 C          -3.6790   -3.1750    0.0000 C.ar    1  LIG1        0.0990
     19 C          -2.6830   -3.1750    0.0000 C.ar    1  LIG1        0.0220
     20 C          -2.1790   -2.3080    0.0000 C.ar    1  LIG1        0.0198
     21 O          -0.6790   -1.4420    0.0000 O.2     1  LIG1       -0.2645
@<TRIPOS>BOND
     1     1     2   ar
     2     1     5   ar
     3     1    13    1
     4     2     3   ar
     5     3     4   ar
     6     3     6    1
     7     4     5   ar
     8     6     7   ar
     9     6    11   ar
    10     7     8   ar
    11     8     9   ar
    12     9    10   ar
    13     9    12    1
    14    10    11   ar
    15    13    14   am
    16    13    21    2
    17    14    15    1
    18    15    16   ar
    19    15    20   ar
    20    16    17   ar
    21    17    18   ar
    22    18    19   ar
    23    19    20   ar
