@<TRIPOS>MOLECULE
28412_ChemDiv_E240-0102
 21 23 0 0 0
SMALL
GASTEIGER
Energy = 0

@<TRIPOS>ATOM
      1 C          -0.1830   -0.5790    0.0000 C.ar    1  LIG1        0.2300
      2 C           0.8130   -0.4750    0.0000 C.ar    1  LIG1        0.0673
      3 C           1.0210    0.5040    0.0000 C.ar    1  LIG1        0.1232
      4 N           0.1540    1.0000    0.0000 N.ar    1  LIG1       -0.0768
      5 O          -0.5880    0.3330    0.0000 O.2     1  LIG1       -0.3487
      6 C           1.9380    0.9130    0.0000 C.ar    1  LIG1        0.0211
      7 C           2.0420    1.9040    0.0000 C.ar    1  LIG1        0.0039
      8 C           2.9500    2.3170    0.0000 C.ar    1  LIG1        0.0297
      9 C           3.7630    1.7250    0.0000 C.ar    1  LIG1        0.1401
     10 C           3.6580    0.7290    0.0000 C.ar    1  LIG1        0.0297
     11 C           2.7460    0.3210    0.0000 C.ar    1  LIG1        0.0039
     12 F           4.6790    2.1290    0.0000 F       1  LIG1       -0.2042
     13 C          -0.6830   -1.4460    0.0000 C.2     1  LIG1        0.2868
     14 N          -1.6830   -1.4460    0.0000 N.am    1  LIG1       -0.2619
     15 C          -2.1830   -0.5790    0.0000 C.3     1  LIG1        0.1568
     16 C          -3.1830   -0.5790    0.0000 C.3     1  LIG1        0.1608
     17 N          -3.6830   -1.4460    0.0000 N.4     1  LIG1        0.3847
     18 C          -3.1830   -2.3130    0.0000 C.3     1  LIG1        0.1608
     19 C          -2.1830   -2.3130    0.0000 C.3     1  LIG1        0.1568
     20 C          -4.6830   -1.4460    0.0000 C.3     1  LIG1        0.2024
     21 O          -0.1830   -2.3130    0.0000 O.2     1  LIG1       -0.2665
@<TRIPOS>BOND
     1     1     2   ar
     2     1     5   ar
     3     1    13    1
     4     2     3   ar
     5     3     4   ar
     6     3     6    1
     7     4     5   ar
     8     6     7   ar
     9     6    11   ar
    10     7     8   ar
    11     8     9   ar
    12     9    10   ar
    13     9    12    1
    14    10    11   ar
    15    13    14   am
    16    13    21    2
    17    14    15    1
    18    14    19    1
    19    15    16    1
    20    16    17    1
    21    17    18    1
    22    17    20    1
    23    18    19    1
