@<TRIPOS>MOLECULE
28416_ChemDiv_E240-0122
 25 28 0 0 0
SMALL
GASTEIGER
Energy = 0

@<TRIPOS>ATOM
      1 C          -0.5170   -0.1500    0.0000 C.ar    1  LIG1        0.2300
      2 C          -1.0380   -1.0500    0.0000 C.2     1  LIG1        0.2864
      3 N          -2.0750   -1.0500    0.0000 N.am    1  LIG1       -0.2751
      4 C          -2.6880   -1.8920    0.0000 C.3     1  LIG1        0.0758
      5 C          -3.6790   -1.5710    0.0000 C.3     1  LIG1        0.0215
      6 C          -3.6790   -0.5290    0.0000 C.3     1  LIG1        0.0199
      7 C          -2.6880   -0.2040    0.0000 C.3     1  LIG1        0.0937
      8 C          -4.1710   -1.0960    0.0000 C.3     1  LIG1        0.0018
      9 C          -4.0370   -1.8330    0.0000 C.3     1  LIG1        0.0016
     10 C          -3.3790   -2.1880    0.0000 C.3     1  LIG1        0.0198
     11 C          -4.2000   -2.8580    0.0000 C.3     1  LIG1        0.0001
     12 C          -4.5500   -0.9250    0.0000 C.3     1  LIG1        0.0001
     13 C          -4.0540    0.4420    0.0000 C.3     1  LIG1        0.0018
     14 O          -0.5170   -1.9540    0.0000 O.2     1  LIG1       -0.2665
     15 C           0.5210   -0.0420    0.0000 C.ar    1  LIG1        0.0673
     16 C           0.7380    0.9790    0.0000 C.ar    1  LIG1        0.1232
     17 N          -0.1630    1.4960    0.0000 N.ar    1  LIG1       -0.0768
     18 O          -0.9380    0.8040    0.0000 O.2     1  LIG1       -0.3487
     19 C           1.6920    1.4040    0.0000 C.ar    1  LIG1        0.0211
     20 C           1.8000    2.4380    0.0000 C.ar    1  LIG1        0.0039
     21 C           2.7460    2.8630    0.0000 C.ar    1  LIG1        0.0297
     22 C           3.5920    2.2500    0.0000 C.ar    1  LIG1        0.1401
     23 C           3.4830    1.2130    0.0000 C.ar    1  LIG1        0.0297
     24 C           2.5330    0.7880    0.0000 C.ar    1  LIG1        0.0039
     25 F           4.5460    2.6710    0.0000 F       1  LIG1       -0.2042
@<TRIPOS>BOND
     1     1     2    1
     2     1    15   ar
     3     1    18   ar
     4     2     3   am
     5     2    14    2
     6     3     4    1
     7     3     7    1
     8     4     5    1
     9     4    10    1
    10     5     6    1
    11     6     7    1
    12     6     8    1
    13     6    13    1
    14     8     9    1
    15     9    10    1
    16     9    11    1
    17     9    12    1
    18    15    16   ar
    19    16    17   ar
    20    16    19    1
    21    17    18   ar
    22    19    20   ar
    23    19    24   ar
    24    20    21   ar
    25    21    22   ar
    26    22    23   ar
    27    22    25    1
    28    23    24   ar
