@<TRIPOS>MOLECULE
28419_ChemDiv_6040-0237
 26 28 0 0 0
SMALL
GASTEIGER
Energy = 0

@<TRIPOS>ATOM
      1 C           3.4830   -0.2040    0.0000 C.ar    1  LIG1        0.0803
      2 C           2.7580    0.5040    0.0000 C.ar    1  LIG1        0.0697
      3 N           1.9130    0.0330    0.0000 N.ar    1  LIG1       -0.2268
      4 C           2.0040   -0.9080    0.0000 C.ar    1  LIG1        0.1857
      5 S           3.0130   -1.0580    0.0000 S.2     1  LIG1       -0.0472
      6 N           1.2210   -1.5750    0.0000 N.am    1  LIG1       -0.1514
      7 C           0.2790   -1.2420    0.0000 C.2     1  LIG1        0.2835
      8 C          -0.4790   -1.9040    0.0000 C.3     1  LIG1        0.2027
      9 O          -1.1330   -1.1040    0.0000 O.3     1  LIG1       -0.4739
     10 C          -2.1330   -1.3420    0.0000 C.ar    1  LIG1        0.1389
     11 C          -2.7920   -0.5880    0.0000 C.ar    1  LIG1        0.0378
     12 C          -3.7750   -0.7710    0.0000 C.ar    1  LIG1        0.0145
     13 C          -4.1130   -1.7670    0.0000 C.ar    1  LIG1        0.0579
     14 CL         -5.1130   -2.0000    0.0000 Cl      1  LIG1       -0.0822
     15 C          -3.4210   -2.4710    0.0000 C.ar    1  LIG1        0.0145
     16 C          -2.4460   -2.2830    0.0000 C.ar    1  LIG1        0.0378
     17 C          -1.2250   -2.5580    0.0000 C.3     1  LIG1        0.0532
     18 C           0.2210   -2.6540    0.0000 C.3     1  LIG1        0.0532
     19 O           0.0880   -0.2540    0.0000 O.2     1  LIG1       -0.2692
     20 C           3.0130    1.4420    0.0000 C.3     1  LIG1        0.0469
     21 C           3.9830    1.7170    0.0000 C.3     1  LIG1        0.0129
     22 C           4.6710    1.0130    0.0000 C.3     1  LIG1        0.0701
     23 C           4.4250    0.0330    0.0000 C.2     1  LIG1        0.1802
     24 O           5.1080   -0.6750    0.0000 O.2     1  LIG1       -0.2908
     25 C           4.7000    2.4250    0.0000 C.3     1  LIG1        0.0008
     26 C           3.7290    2.6580    0.0000 C.3     1  LIG1        0.0008
@<TRIPOS>BOND
     1     1     2   ar
     2     1     5   ar
     3     1    23    1
     4     2     3   ar
     5     2    20    1
     6     3     4   ar
     7     4     5   ar
     8     4     6    1
     9     6     7   am
    10     7     8    1
    11     7    19    2
    12     8     9    1
    13     8    17    1
    14     8    18    1
    15     9    10    1
    16    10    11   ar
    17    10    16   ar
    18    11    12   ar
    19    12    13   ar
    20    13    14    1
    21    13    15   ar
    22    15    16   ar
    23    20    21    1
    24    21    22    1
    25    21    25    1
    26    21    26    1
    27    22    23    1
    28    23    24    2
