@<TRIPOS>MOLECULE
28413_ChemDiv_3914-0101
 35 39 0 0 0
SMALL
GASTEIGER
Energy = 0

@<TRIPOS>ATOM
      1 C          -0.8670    0.7250    0.0000 C.ar    1  LIG1        0.2202
      2 N          -0.8670   -0.2790    0.0000 N.ar    1  LIG1       -0.2136
      3 C          -1.7330   -0.7750    0.0000 C.ar    1  LIG1        0.0856
      4 C          -2.5920   -0.2790    0.0000 C.ar    1  LIG1        0.0352
      5 C          -2.5920    0.7250    0.0000 C.ar    1  LIG1        0.0856
      6 N          -1.7330    1.2380    0.0000 N.ar    1  LIG1       -0.2136
      7 C          -3.4580    1.2380    0.0000 C.ar    1  LIG1        0.0189
      8 C          -4.3170    0.7250    0.0000 C.ar    1  LIG1       -0.0027
      9 C          -4.3170   -0.2790    0.0000 C.ar    1  LIG1       -0.0217
     10 C          -3.4580   -0.7750    0.0000 C.ar    1  LIG1       -0.0013
     11 C          -5.2000   -0.7920    0.0000 C.3     1  LIG1        0.0310
     12 C          -1.7330   -1.7880    0.0000 C.ar    1  LIG1        0.0178
     13 C          -2.5920   -2.2790    0.0000 C.ar    1  LIG1        0.0015
     14 C          -2.5920   -3.2920    0.0000 C.ar    1  LIG1        0.0000
     15 C          -1.7330   -3.7750    0.0000 C.ar    1  LIG1        0.0000
     16 C          -0.8670   -3.2920    0.0000 C.ar    1  LIG1        0.0000
     17 C          -0.8670   -2.2790    0.0000 C.ar    1  LIG1        0.0015
     18 N          -0.0080    1.2380    0.0000 N.pl3   1  LIG1       -0.2747
     19 C          -0.0080    2.2330    0.0000 C.3     1  LIG1        0.1151
     20 C           0.8500    2.7420    0.0000 C.3     1  LIG1        0.1149
     21 N           1.7170    2.2330    0.0000 N.am    1  LIG1       -0.2760
     22 C           2.6000    2.7630    0.0000 C.2     1  LIG1        0.2257
     23 C           3.4580    2.2580    0.0000 C.3     1  LIG1        0.0856
     24 C           3.4830    1.2710    0.0000 C.3     1  LIG1        0.0138
     25 C           4.3250    0.7540    0.0000 C.3     1  LIG1        0.0422
     26 C           4.3250   -0.2380    0.0000 C.2     1  LIG1        0.0503
     27 O           5.1960   -0.7500    0.0000 O.co2   1  LIG1       -0.5492
     28 O           3.4460   -0.6540    0.0000 O.co2   1  LIG1       -0.5492
     29 C           2.5630    1.6790    0.0000 C.3     1  LIG1        0.0008
     30 C           1.9000    0.9250    0.0000 C.3     1  LIG1        0.0000
     31 C           2.3920    0.0960    0.0000 C.3     1  LIG1        0.0000
     32 C           3.3880    0.2750    0.0000 C.3     1  LIG1        0.0008
     33 O           2.6000    3.7790    0.0000 O.2     1  LIG1       -0.2749
     34 C           1.7170    1.2380    0.0000 C.3     1  LIG1        0.1149
     35 C           0.8500    0.7250    0.0000 C.3     1  LIG1        0.1151
@<TRIPOS>BOND
     1     1     2   ar
     2     1     6   ar
     3     1    18    1
     4     2     3   ar
     5     3     4   ar
     6     3    12    1
     7     4     5   ar
     8     4    10   ar
     9     5     6   ar
    10     5     7   ar
    11     7     8   ar
    12     8     9   ar
    13     9    10   ar
    14     9    11    1
    15    12    13   ar
    16    12    17   ar
    17    13    14   ar
    18    14    15   ar
    19    15    16   ar
    20    16    17   ar
    21    18    19    1
    22    18    35    1
    23    19    20    1
    24    20    21    1
    25    21    22   am
    26    21    34    1
    27    22    23    1
    28    22    33    2
    29    23    24    1
    30    24    25    1
    31    24    29    1
    32    24    32    1
    33    25    26    1
    34    26    27   ar
    35    26    28   ar
    36    29    30    1
    37    30    31    1
    38    31    32    1
    39    34    35    1
