@<TRIPOS>MOLECULE
28414_ChemDiv_E240-0109
 21 23 0 0 0
SMALL
GASTEIGER
Energy = 0

@<TRIPOS>ATOM
      1 C          -0.6790   -0.1460    0.0000 C.ar    1  LIG1        0.2300
      2 C          -1.1830   -1.0130    0.0000 C.2     1  LIG1        0.2864
      3 N          -2.1790   -1.0130    0.0000 N.am    1  LIG1       -0.2751
      4 C          -2.6830   -1.8790    0.0000 C.3     1  LIG1        0.0758
      5 C          -2.1790   -2.7420    0.0000 C.3     1  LIG1        0.0215
      6 C          -3.6790   -1.8790    0.0000 C.3     1  LIG1        0.0199
      7 C          -4.1830   -1.0130    0.0000 C.3     1  LIG1        0.0035
      8 C          -3.6790   -0.1460    0.0000 C.3     1  LIG1        0.0216
      9 C          -2.6830   -0.1460    0.0000 C.3     1  LIG1        0.0937
     10 O          -0.6790   -1.8790    0.0000 O.2     1  LIG1       -0.2665
     11 C           0.3130   -0.0420    0.0000 C.ar    1  LIG1        0.0673
     12 C           0.5250    0.9380    0.0000 C.ar    1  LIG1        0.1232
     13 N          -0.3420    1.4330    0.0000 N.ar    1  LIG1       -0.0768
     14 O          -1.0880    0.7670    0.0000 O.2     1  LIG1       -0.3487
     15 C           1.4380    1.3420    0.0000 C.ar    1  LIG1        0.0211
     16 C           1.5420    2.3330    0.0000 C.ar    1  LIG1        0.0039
     17 C           2.4500    2.7460    0.0000 C.ar    1  LIG1        0.0297
     18 C           3.2630    2.1540    0.0000 C.ar    1  LIG1        0.1401
     19 C           3.1580    1.1630    0.0000 C.ar    1  LIG1        0.0297
     20 C           2.2460    0.7540    0.0000 C.ar    1  LIG1        0.0039
     21 F           4.1790    2.5630    0.0000 F       1  LIG1       -0.2042
@<TRIPOS>BOND
     1     1     2    1
     2     1    11   ar
     3     1    14   ar
     4     2     3   am
     5     2    10    2
     6     3     4    1
     7     3     9    1
     8     4     5    1
     9     4     6    1
    10     6     7    1
    11     7     8    1
    12     8     9    1
    13    11    12   ar
    14    12    13   ar
    15    12    15    1
    16    13    14   ar
    17    15    16   ar
    18    15    20   ar
    19    16    17   ar
    20    17    18   ar
    21    18    19   ar
    22    18    21    1
    23    19    20   ar
