@<TRIPOS>MOLECULE
28417_ChemDiv_5471-0058
 22 24 0 0 0
SMALL
GASTEIGER
Energy = 0

@<TRIPOS>ATOM
      1 C          -1.3420    1.1670    0.0000 C.ar    1  LIG1        0.1852
      2 N          -1.8210    1.9670    0.0000 N.ar    1  LIG1       -0.2272
      3 C          -2.8830    1.7000    0.0000 C.ar    1  LIG1        0.0630
      4 C          -2.9250    0.7210    0.0000 C.ar    1  LIG1        0.0235
      5 S          -1.9420    0.3630    0.0000 S.2     1  LIG1       -0.0544
      6 C          -3.8080    0.2630    0.0000 C.3     1  LIG1        0.0343
      7 C          -4.6580    0.7630    0.0000 C.3     1  LIG1        0.0057
      8 C          -4.6040    1.7880    0.0000 C.3     1  LIG1        0.0067
      9 C          -3.7080    2.2710    0.0000 C.3     1  LIG1        0.0461
     10 N          -0.3540    1.1670    0.0000 N.am    1  LIG1       -0.1536
     11 C           0.1420    0.2960    0.0000 C.2     1  LIG1        0.2587
     12 O          -0.3540   -0.5670    0.0000 O.2     1  LIG1       -0.2720
     13 C           1.1540    0.2960    0.0000 C.3     1  LIG1        0.1520
     14 S           1.6540   -0.5670    0.0000 S.3     1  LIG1       -0.0658
     15 C           2.6460   -0.5670    0.0000 C.ar    1  LIG1        0.1898
     16 N           3.1500   -1.4250    0.0000 N.ar    1  LIG1       -0.2256
     17 C           4.1460   -1.4170    0.0000 C.ar    1  LIG1        0.0627
     18 C           4.6540   -0.5630    0.0000 C.ar    1  LIG1        0.0295
     19 C           4.1420    0.2960    0.0000 C.ar    1  LIG1        0.0627
     20 N           3.1420    0.2830    0.0000 N.ar    1  LIG1       -0.2256
     21 C           4.6210    1.1580    0.0000 C.3     1  LIG1        0.0522
     22 C           4.6330   -2.2670    0.0000 C.3     1  LIG1        0.0522
@<TRIPOS>BOND
     1     1     2   ar
     2     1     5   ar
     3     1    10    1
     4     2     3   ar
     5     3     4   ar
     6     3     9    1
     7     4     5   ar
     8     4     6    1
     9     6     7    1
    10     7     8    1
    11     8     9    1
    12    10    11   am
    13    11    12    2
    14    11    13    1
    15    13    14    1
    16    14    15    1
    17    15    16   ar
    18    15    20   ar
    19    16    17   ar
    20    17    18   ar
    21    17    22    1
    22    18    19   ar
    23    19    20   ar
    24    19    21    1
