@<TRIPOS>MOLECULE
28425_ChemDiv_6040-4875
 19 20 0 0 0
SMALL
GASTEIGER
Energy = 0

@<TRIPOS>ATOM
      1 C           1.9130   -0.3080    0.0000 C.ar    1  LIG1        0.0803
      2 C           1.1920    0.4250    0.0000 C.ar    1  LIG1        0.0697
      3 N           0.3040   -0.0500    0.0000 N.ar    1  LIG1       -0.2268
      4 C           0.4710   -1.0290    0.0000 C.ar    1  LIG1        0.1856
      5 S           1.4540   -1.1710    0.0000 S.2     1  LIG1       -0.0472
      6 N          -0.2330   -1.7130    0.0000 N.am    1  LIG1       -0.1543
      7 C          -1.2170   -1.4540    0.0000 C.2     1  LIG1        0.2473
      8 O          -1.4830   -0.4880    0.0000 O.2     1  LIG1       -0.2729
      9 C          -1.9170   -2.1790    0.0000 C.3     1  LIG1        0.0872
     10 C          -2.8790   -1.8920    0.0000 C.3     1  LIG1        0.0091
     11 C          -3.6040   -2.6130    0.0000 C.3     1  LIG1        0.0005
     12 C          -3.1420   -0.9540    0.0000 C.3     1  LIG1        0.0005
     13 C           1.4540    1.4000    0.0000 C.3     1  LIG1        0.0469
     14 C           2.4460    1.6460    0.0000 C.3     1  LIG1        0.0129
     15 C           3.1170    0.9580    0.0000 C.3     1  LIG1        0.0701
     16 C           2.8750   -0.0130    0.0000 C.2     1  LIG1        0.1802
     17 O           3.6000   -0.7330    0.0000 O.2     1  LIG1       -0.2908
     18 C           3.1670    2.3380    0.0000 C.3     1  LIG1        0.0008
     19 C           2.3710    2.6170    0.0000 C.3     1  LIG1        0.0008
@<TRIPOS>BOND
     1     1     2   ar
     2     1     5   ar
     3     1    16    1
     4     2     3   ar
     5     2    13    1
     6     3     4   ar
     7     4     5   ar
     8     4     6    1
     9     6     7   am
    10     7     8    2
    11     7     9    1
    12     9    10    1
    13    10    11    1
    14    10    12    1
    15    13    14    1
    16    14    15    1
    17    14    18    1
    18    14    19    1
    19    15    16    1
    20    16    17    2
