@<TRIPOS>MOLECULE
28427_ChemDiv_6040-4905
 20 21 0 0 0
SMALL
GASTEIGER
Energy = 0

@<TRIPOS>ATOM
      1 C           2.1630   -0.5170    0.0000 C.ar    1  LIG1        0.0803
      2 C           1.4630    0.2040    0.0000 C.ar    1  LIG1        0.0697
      3 N           0.5750   -0.2710    0.0000 N.ar    1  LIG1       -0.2268
      4 C           0.7210   -1.2380    0.0000 C.ar    1  LIG1        0.1856
      5 S           1.7040   -1.4210    0.0000 S.2     1  LIG1       -0.0472
      6 N           0.0170   -1.9580    0.0000 N.am    1  LIG1       -0.1543
      7 C          -0.9460   -1.6750    0.0000 C.2     1  LIG1        0.2468
      8 O          -1.6670   -2.3960    0.0000 O.2     1  LIG1       -0.2729
      9 C          -1.2040   -0.7380    0.0000 C.3     1  LIG1        0.0786
     10 C          -2.1920   -0.4880    0.0000 C.3     1  LIG1        0.0091
     11 C          -2.8880   -1.2080    0.0000 C.3     1  LIG1        0.0005
     12 C          -3.8500   -0.9540    0.0000 C.3     1  LIG1        0.0000
     13 C          -0.5080   -0.0170    0.0000 C.3     1  LIG1        0.0096
     14 C           1.7290    1.1380    0.0000 C.3     1  LIG1        0.0469
     15 C           2.6880    1.3920    0.0000 C.3     1  LIG1        0.0129
     16 C           3.3880    0.7080    0.0000 C.3     1  LIG1        0.0701
     17 C           3.1250   -0.2710    0.0000 C.2     1  LIG1        0.1802
     18 O           3.8460   -0.9540    0.0000 O.2     1  LIG1       -0.2908
     19 C           3.4130    2.1170    0.0000 C.3     1  LIG1        0.0008
     20 C           2.6210    2.4000    0.0000 C.3     1  LIG1        0.0008
@<TRIPOS>BOND
     1     1     2   ar
     2     1     5   ar
     3     1    17    1
     4     2     3   ar
     5     2    14    1
     6     3     4   ar
     7     4     5   ar
     8     4     6    1
     9     6     7   am
    10     7     8    2
    11     7     9    1
    12     9    10    1
    13     9    13    1
    14    10    11    1
    15    11    12    1
    16    14    15    1
    17    15    16    1
    18    15    19    1
    19    15    20    1
    20    16    17    1
    21    17    18    2
