@<TRIPOS>MOLECULE
28421_ChemDiv_6040-4707
 29 32 0 0 0
SMALL
GASTEIGER
Energy = 0

@<TRIPOS>ATOM
      1 C           2.8040    0.4250    0.0000 C.ar    1  LIG1        0.0803
      2 C           2.0920    1.1380    0.0000 C.ar    1  LIG1        0.0697
      3 N           1.2250    0.6880    0.0000 N.ar    1  LIG1       -0.2268
      4 C           1.3460   -0.2830    0.0000 C.ar    1  LIG1        0.1856
      5 S           2.3380   -0.4250    0.0000 S.2     1  LIG1       -0.0472
      6 N           0.6040   -0.9460    0.0000 N.am    1  LIG1       -0.1543
      7 C          -0.3630   -0.6540    0.0000 C.2     1  LIG1        0.2479
      8 C          -1.1040   -1.3210    0.0000 C.3     1  LIG1        0.0959
      9 C          -2.0750   -1.0250    0.0000 C.3     1  LIG1        0.0537
     10 C          -2.7920   -1.6920    0.0000 C.ar    1  LIG1       -0.0179
     11 C          -2.5710   -2.6960    0.0000 C.ar    1  LIG1       -0.0039
     12 C          -3.3130   -3.3630    0.0000 C.ar    1  LIG1       -0.0003
     13 C          -4.2580   -3.0670    0.0000 C.ar    1  LIG1       -0.0000
     14 C          -4.4750   -2.1000    0.0000 C.ar    1  LIG1       -0.0003
     15 C          -3.7290   -1.3960    0.0000 C.ar    1  LIG1       -0.0039
     16 C          -2.2960   -0.0540    0.0000 C.ar    1  LIG1       -0.0179
     17 C          -1.5540    0.6130    0.0000 C.ar    1  LIG1       -0.0039
     18 C          -1.7500    1.5750    0.0000 C.ar    1  LIG1       -0.0003
     19 C          -2.7380    1.9130    0.0000 C.ar    1  LIG1       -0.0000
     20 C          -3.4830    1.2460    0.0000 C.ar    1  LIG1       -0.0003
     21 C          -3.2670    0.2380    0.0000 C.ar    1  LIG1       -0.0039
     22 O          -0.5880    0.3170    0.0000 O.2     1  LIG1       -0.2729
     23 C           2.3630    2.0960    0.0000 C.3     1  LIG1        0.0469
     24 C           3.3290    2.3580    0.0000 C.3     1  LIG1        0.0129
     25 C           4.0210    1.6540    0.0000 C.3     1  LIG1        0.0701
     26 C           3.7460    0.6880    0.0000 C.2     1  LIG1        0.1802
     27 O           4.4710   -0.0170    0.0000 O.2     1  LIG1       -0.2908
     28 C           4.0420    3.0630    0.0000 C.3     1  LIG1        0.0008
     29 C           3.2290    3.3670    0.0000 C.3     1  LIG1        0.0008
@<TRIPOS>BOND
     1     1     2   ar
     2     1     5   ar
     3     1    26    1
     4     2     3   ar
     5     2    23    1
     6     3     4   ar
     7     4     5   ar
     8     4     6    1
     9     6     7   am
    10     7     8    1
    11     7    22    2
    12     8     9    1
    13     9    10    1
    14     9    16    1
    15    10    11   ar
    16    10    15   ar
    17    11    12   ar
    18    12    13   ar
    19    13    14   ar
    20    14    15   ar
    21    16    17   ar
    22    16    21   ar
    23    17    18   ar
    24    18    19   ar
    25    19    20   ar
    26    20    21   ar
    27    23    24    1
    28    24    25    1
    29    24    28    1
    30    24    29    1
    31    25    26    1
    32    26    27    2
