@<TRIPOS>MOLECULE
28423_ChemDiv_6040-4863
 20 21 0 0 0
SMALL
GASTEIGER
Energy = 0

@<TRIPOS>ATOM
      1 C           2.0380   -0.2000    0.0000 C.ar    1  LIG1        0.0803
      2 C           1.3250    0.5210    0.0000 C.ar    1  LIG1        0.0697
      3 N           0.4330    0.0830    0.0000 N.ar    1  LIG1       -0.2268
      4 C           0.5960   -0.9170    0.0000 C.ar    1  LIG1        0.1856
      5 S           1.5790   -1.0580    0.0000 S.2     1  LIG1       -0.0472
      6 N          -0.1210   -1.6040    0.0000 N.am    1  LIG1       -0.1543
      7 C          -1.0830   -1.3290    0.0000 C.2     1  LIG1        0.2473
      8 O          -1.3290   -0.3710    0.0000 O.2     1  LIG1       -0.2729
      9 C          -1.7880   -2.0210    0.0000 C.3     1  LIG1        0.0872
     10 C          -2.7580   -1.7460    0.0000 C.3     1  LIG1        0.0087
     11 C          -3.0080   -2.7460    0.0000 C.3     1  LIG1        0.0005
     12 C          -3.7210   -1.5040    0.0000 C.3     1  LIG1        0.0005
     13 C          -2.4750   -0.7830    0.0000 C.3     1  LIG1        0.0005
     14 C           1.5790    1.4920    0.0000 C.3     1  LIG1        0.0469
     15 C           2.5460    1.7670    0.0000 C.3     1  LIG1        0.0129
     16 C           3.2540    1.0380    0.0000 C.3     1  LIG1        0.0701
     17 C           3.0040    0.0830    0.0000 C.2     1  LIG1        0.1802
     18 O           3.7170   -0.6420    0.0000 O.2     1  LIG1       -0.2908
     19 C           3.2540    2.4500    0.0000 C.3     1  LIG1        0.0008
     20 C           2.4540    2.7500    0.0000 C.3     1  LIG1        0.0008
@<TRIPOS>BOND
     1     1     2   ar
     2     1     5   ar
     3     1    17    1
     4     2     3   ar
     5     2    14    1
     6     3     4   ar
     7     4     5   ar
     8     4     6    1
     9     6     7   am
    10     7     8    2
    11     7     9    1
    12     9    10    1
    13    10    11    1
    14    10    12    1
    15    10    13    1
    16    14    15    1
    17    15    16    1
    18    15    19    1
    19    15    20    1
    20    16    17    1
    21    17    18    2
