@<TRIPOS>MOLECULE
28429_ChemDiv_6040-4911
 24 26 0 0 0
SMALL
GASTEIGER
Energy = 0

@<TRIPOS>ATOM
      1 C           1.3290   -0.7750    0.0000 C.ar    1  LIG1        0.0803
      2 C           0.6330   -0.0540    0.0000 C.ar    1  LIG1        0.0697
      3 N          -0.2540   -0.5210    0.0000 N.ar    1  LIG1       -0.2268
      4 C          -0.1130   -1.4960    0.0000 C.ar    1  LIG1        0.1857
      5 S           0.8750   -1.6420    0.0000 S.2     1  LIG1       -0.0472
      6 N          -0.8080   -2.1830    0.0000 N.am    1  LIG1       -0.1513
      7 C          -1.7710   -1.9210    0.0000 C.2     1  LIG1        0.2875
      8 C          -2.0380   -0.9540    0.0000 C.3     1  LIG1        0.2432
      9 O          -1.3330   -0.2330    0.0000 O.3     1  LIG1       -0.4699
     10 C          -1.6000    0.7040    0.0000 C.ar    1  LIG1        0.1391
     11 C          -2.5630    1.0000    0.0000 C.ar    1  LIG1        0.0369
     12 C          -2.8330    1.9750    0.0000 C.ar    1  LIG1        0.0031
     13 C          -2.1290    2.6540    0.0000 C.ar    1  LIG1        0.0002
     14 C          -1.1500    2.4000    0.0000 C.ar    1  LIG1        0.0031
     15 C          -0.8790    1.4250    0.0000 C.ar    1  LIG1        0.0369
     16 C          -3.0170   -0.7000    0.0000 C.3     1  LIG1        0.0575
     17 O          -2.4920   -2.6500    0.0000 O.2     1  LIG1       -0.2690
     18 C           0.8960    0.9250    0.0000 C.3     1  LIG1        0.0469
     19 C           1.8580    1.1790    0.0000 C.3     1  LIG1        0.0129
     20 C           2.5580    0.4880    0.0000 C.3     1  LIG1        0.0701
     21 C           2.2920   -0.4830    0.0000 C.2     1  LIG1        0.1802
     22 O           3.0130   -1.2040    0.0000 O.2     1  LIG1       -0.2908
     23 C           2.5790    1.8630    0.0000 C.3     1  LIG1        0.0008
     24 C           1.7920    2.1540    0.0000 C.3     1  LIG1        0.0008
@<TRIPOS>BOND
     1     1     2   ar
     2     1     5   ar
     3     1    21    1
     4     2     3   ar
     5     2    18    1
     6     3     4   ar
     7     4     5   ar
     8     4     6    1
     9     6     7   am
    10     7     8    1
    11     7    17    2
    12     8     9    1
    13     8    16    1
    14     9    10    1
    15    10    11   ar
    16    10    15   ar
    17    11    12   ar
    18    12    13   ar
    19    13    14   ar
    20    14    15   ar
    21    18    19    1
    22    19    20    1
    23    19    23    1
    24    19    24    1
    25    20    21    1
    26    21    22    2
