@<TRIPOS>MOLECULE
28439_ChemDiv_5959-0427
 30 33 0 0 0
SMALL
GASTEIGER
Energy = 0

@<TRIPOS>ATOM
      1 C          -1.7250    1.4460    0.0000 C.ar    1  LIG1        0.2408
      2 N          -1.7250    0.4420    0.0000 N.ar    1  LIG1       -0.2121
      3 C          -2.6000   -0.0630    0.0000 C.ar    1  LIG1        0.0856
      4 C          -3.4710    0.4420    0.0000 C.ar    1  LIG1        0.0363
      5 C          -3.4710    1.4460    0.0000 C.ar    1  LIG1        0.0857
      6 N          -2.6000    1.9130    0.0000 N.ar    1  LIG1       -0.2121
      7 C          -4.3380    1.9130    0.0000 C.ar    1  LIG1        0.0201
      8 C          -5.2170    1.4460    0.0000 C.ar    1  LIG1        0.0129
      9 C          -5.2170    0.4420    0.0000 C.ar    1  LIG1        0.0578
     10 C          -4.3380   -0.0630    0.0000 C.ar    1  LIG1        0.0144
     11 CL         -6.0420   -0.0630    0.0000 Cl      1  LIG1       -0.0822
     12 C          -2.6000   -1.0670    0.0000 C.ar    1  LIG1        0.0178
     13 C          -3.4710   -1.5710    0.0000 C.ar    1  LIG1        0.0015
     14 C          -3.4710   -2.5750    0.0000 C.ar    1  LIG1        0.0000
     15 C          -2.6000   -3.0750    0.0000 C.ar    1  LIG1        0.0000
     16 C          -1.7250   -2.5750    0.0000 C.ar    1  LIG1        0.0000
     17 C          -1.7250   -1.5710    0.0000 C.ar    1  LIG1        0.0015
     18 N          -0.8540    1.9130    0.0000 N.pl3   1  LIG1       -0.1777
     19 C           0.0130    1.4460    0.0000 C.ar    1  LIG1        0.0737
     20 C           0.8500    2.0080    0.0000 C.ar    1  LIG1        0.0212
     21 C           1.7210    1.5460    0.0000 C.ar    1  LIG1        0.0563
     22 C           2.5960    2.0750    0.0000 C.2     1  LIG1        0.2649
     23 O           2.5250    3.0790    0.0000 O.2     1  LIG1       -0.2684
     24 N           3.4670    1.6460    0.0000 N.am    1  LIG1       -0.1989
     25 C           4.3290    2.1750    0.0000 C.3     1  LIG1        0.1509
     26 C           5.2080    1.7080    0.0000 C.3     1  LIG1        0.2054
     27 O           6.0420    2.2460    0.0000 O.3     1  LIG1       -0.2184
     28 C           1.7920    0.5380    0.0000 C.ar    1  LIG1        0.0046
     29 C           0.9540   -0.0040    0.0000 C.ar    1  LIG1        0.0015
     30 C           0.0460    0.4420    0.0000 C.ar    1  LIG1        0.0166
@<TRIPOS>BOND
     1     1     2   ar
     2     1     6   ar
     3     1    18    1
     4     2     3   ar
     5     3     4   ar
     6     3    12    1
     7     4     5   ar
     8     4    10   ar
     9     5     6   ar
    10     5     7   ar
    11     7     8   ar
    12     8     9   ar
    13     9    10   ar
    14     9    11    1
    15    12    13   ar
    16    12    17   ar
    17    13    14   ar
    18    14    15   ar
    19    15    16   ar
    20    16    17   ar
    21    18    19    1
    22    19    20   ar
    23    19    30   ar
    24    20    21   ar
    25    21    22    1
    26    21    28   ar
    27    22    23    2
    28    22    24   am
    29    24    25    1
    30    25    26    1
    31    26    27    1
    32    28    29   ar
    33    29    30   ar
