@<TRIPOS>MOLECULE
28431_ChemDiv_6040-4923
 27 30 0 0 0
SMALL
GASTEIGER
Energy = 0

@<TRIPOS>ATOM
      1 N          -1.5790   -1.3830    0.0000 N.am    1  LIG1       -0.2136
      2 C          -2.0540   -0.5380    0.0000 C.2     1  LIG1        0.2555
      3 C          -3.0420   -0.7080    0.0000 C.ar    1  LIG1        0.0584
      4 C          -3.1790   -1.6830    0.0000 C.ar    1  LIG1        0.0584
      5 C          -2.2790   -2.1170    0.0000 C.2     1  LIG1        0.2555
      6 O          -2.1460   -3.1290    0.0000 O.2     1  LIG1       -0.2695
      7 C          -4.0960   -2.0500    0.0000 C.ar    1  LIG1        0.0047
      8 C          -4.9080   -1.4420    0.0000 C.ar    1  LIG1        0.0001
      9 C          -4.7500   -0.4710    0.0000 C.ar    1  LIG1        0.0001
     10 C          -3.8290   -0.0670    0.0000 C.ar    1  LIG1        0.0047
     11 O          -1.5790    0.4130    0.0000 O.2     1  LIG1       -0.2695
     12 C          -0.6330   -1.6500    0.0000 C.3     1  LIG1        0.1884
     13 C           0.0830   -0.9380    0.0000 C.2     1  LIG1        0.2680
     14 N           1.0250   -1.2130    0.0000 N.am    1  LIG1       -0.1528
     15 C           1.7710   -0.5000    0.0000 C.ar    1  LIG1        0.1856
     16 N           1.6420    0.4750    0.0000 N.ar    1  LIG1       -0.2268
     17 C           2.5170    0.9460    0.0000 C.ar    1  LIG1        0.0697
     18 C           3.2330    0.2420    0.0000 C.ar    1  LIG1        0.0803
     19 S           2.7830   -0.6380    0.0000 S.2     1  LIG1       -0.0472
     20 C           4.1750    0.4750    0.0000 C.2     1  LIG1        0.1802
     21 C           4.4540    1.4540    0.0000 C.3     1  LIG1        0.0701
     22 C           3.7540    2.1580    0.0000 C.3     1  LIG1        0.0129
     23 C           2.7830    1.8960    0.0000 C.3     1  LIG1        0.0469
     24 C           4.4540    2.8670    0.0000 C.3     1  LIG1        0.0008
     25 C           3.7540    3.1330    0.0000 C.3     1  LIG1        0.0008
     26 O           4.9040   -0.2330    0.0000 O.2     1  LIG1       -0.2908
     27 O          -0.1830    0.0040    0.0000 O.2     1  LIG1       -0.2710
@<TRIPOS>BOND
     1     1     2   am
     2     1     5   am
     3     1    12    1
     4     2     3    1
     5     2    11    2
     6     3     4   ar
     7     3    10   ar
     8     4     5    1
     9     4     7   ar
    10     5     6    2
    11     7     8   ar
    12     8     9   ar
    13     9    10   ar
    14    12    13    1
    15    13    14   am
    16    13    27    2
    17    14    15    1
    18    15    16   ar
    19    15    19   ar
    20    16    17   ar
    21    17    18   ar
    22    17    23    1
    23    18    19   ar
    24    18    20    1
    25    20    21    1
    26    20    26    2
    27    21    22    1
    28    22    23    1
    29    22    24    1
    30    22    25    1
