@<TRIPOS>MOLECULE
28433_ChemDiv_3914-0160
 29 32 0 0 0
SMALL
GASTEIGER
Energy = 0

@<TRIPOS>ATOM
      1 C          -1.3040    0.7330    0.0000 C.ar    1  LIG1        0.2202
      2 N          -1.3040   -0.2710    0.0000 N.ar    1  LIG1       -0.2136
      3 C          -2.1750   -0.7670    0.0000 C.ar    1  LIG1        0.0856
      4 C          -3.0130   -0.2710    0.0000 C.ar    1  LIG1        0.0355
      5 C          -3.0130    0.7330    0.0000 C.ar    1  LIG1        0.0856
      6 N          -2.1750    1.2380    0.0000 N.ar    1  LIG1       -0.2136
      7 C          -3.8830    1.2380    0.0000 C.ar    1  LIG1        0.0192
      8 C          -4.7500    0.7330    0.0000 C.ar    1  LIG1        0.0015
      9 C          -4.7500   -0.2710    0.0000 C.ar    1  LIG1        0.0001
     10 C          -3.8830   -0.7670    0.0000 C.ar    1  LIG1        0.0030
     11 C          -2.1750   -1.7670    0.0000 C.ar    1  LIG1        0.0178
     12 C          -3.0130   -2.2630    0.0000 C.ar    1  LIG1        0.0015
     13 C          -3.0130   -3.2670    0.0000 C.ar    1  LIG1        0.0000
     14 C          -2.1750   -3.7580    0.0000 C.ar    1  LIG1        0.0000
     15 C          -1.2830   -3.2670    0.0000 C.ar    1  LIG1        0.0000
     16 C          -1.3040   -2.2630    0.0000 C.ar    1  LIG1        0.0015
     17 N          -0.4420    1.2380    0.0000 N.pl3   1  LIG1       -0.2747
     18 C          -0.4420    2.2290    0.0000 C.3     1  LIG1        0.1151
     19 C           0.4290    2.7330    0.0000 C.3     1  LIG1        0.1149
     20 N           1.3000    2.2290    0.0000 N.am    1  LIG1       -0.2760
     21 C           2.1670    2.7540    0.0000 C.2     1  LIG1        0.2261
     22 O           2.1670    3.7630    0.0000 O.2     1  LIG1       -0.2749
     23 C           3.0380    2.2580    0.0000 C.3     1  LIG1        0.0912
     24 C           3.0380    1.2580    0.0000 C.3     1  LIG1        0.0513
     25 C           3.8750    0.7630    0.0000 C.2     1  LIG1        0.0508
     26 O           4.7460    1.2580    0.0000 O.co2   1  LIG1       -0.5492
     27 O           3.8750   -0.2710    0.0000 O.co2   1  LIG1       -0.5492
     28 C           1.3000    1.2380    0.0000 C.3     1  LIG1        0.1149
     29 C           0.4290    0.7330    0.0000 C.3     1  LIG1        0.1151
@<TRIPOS>BOND
     1     1     2   ar
     2     1     6   ar
     3     1    17    1
     4     2     3   ar
     5     3     4   ar
     6     3    11    1
     7     4     5   ar
     8     4    10   ar
     9     5     6   ar
    10     5     7   ar
    11     7     8   ar
    12     8     9   ar
    13     9    10   ar
    14    11    12   ar
    15    11    16   ar
    16    12    13   ar
    17    13    14   ar
    18    14    15   ar
    19    15    16   ar
    20    17    18    1
    21    17    29    1
    22    18    19    1
    23    19    20    1
    24    20    21   am
    25    20    28    1
    26    21    22    2
    27    21    23    1
    28    23    24    1
    29    24    25    1
    30    25    26   ar
    31    25    27   ar
    32    28    29    1
