@<TRIPOS>MOLECULE
28436_ChemDiv_E240-0174
 23 25 0 0 0
SMALL
GASTEIGER
Energy = 0

@<TRIPOS>ATOM
      1 C          -0.2250    0.6330    0.0000 C.ar    1  LIG1        0.2318
      2 C           0.7710    0.7330    0.0000 C.ar    1  LIG1        0.0674
      3 C           0.9790    1.7130    0.0000 C.ar    1  LIG1        0.1253
      4 N           0.1130    2.2130    0.0000 N.ar    1  LIG1       -0.0767
      5 O          -0.6290    1.5460    0.0000 O.2     1  LIG1       -0.3487
      6 C           1.8920    2.1210    0.0000 C.ar    1  LIG1        0.0484
      7 C           1.9960    3.1170    0.0000 C.ar    1  LIG1        0.1416
      8 F           1.1880    3.7040    0.0000 F       1  LIG1       -0.2041
      9 C           2.9080    3.5210    0.0000 C.ar    1  LIG1        0.0297
     10 C           3.7210    2.9330    0.0000 C.ar    1  LIG1        0.0023
     11 C           3.6130    1.9420    0.0000 C.ar    1  LIG1        0.0002
     12 C           2.7000    1.5330    0.0000 C.ar    1  LIG1        0.0038
     13 C          -0.7250   -0.2330    0.0000 C.2     1  LIG1        0.3065
     14 N          -1.7210   -0.2330    0.0000 N.am    1  LIG1       -0.1695
     15 C          -2.2250   -1.1000    0.0000 C.ar    1  LIG1        0.1122
     16 C          -3.2250   -1.1000    0.0000 C.ar    1  LIG1        0.2108
     17 C          -3.7250   -1.9670    0.0000 C.ar    1  LIG1        0.0431
     18 C          -3.2250   -2.8290    0.0000 C.ar    1  LIG1       -0.0009
     19 C          -2.2250   -2.8290    0.0000 C.ar    1  LIG1       -0.0204
     20 C          -1.7210   -1.9670    0.0000 C.ar    1  LIG1        0.0156
     21 C          -1.7210   -3.7000    0.0000 C.3     1  LIG1        0.0311
     22 O          -3.7250   -0.2330    0.0000 O.3     1  LIG1       -0.2852
     23 O          -0.2250   -1.1000    0.0000 O.2     1  LIG1       -0.2645
@<TRIPOS>BOND
     1     1     2   ar
     2     1     5   ar
     3     1    13    1
     4     2     3   ar
     5     3     4   ar
     6     3     6    1
     7     4     5   ar
     8     6     7   ar
     9     6    12   ar
    10     7     8    1
    11     7     9   ar
    12     9    10   ar
    13    10    11   ar
    14    11    12   ar
    15    13    14   am
    16    13    23    2
    17    14    15    1
    18    15    16   ar
    19    15    20   ar
    20    16    17   ar
    21    16    22    1
    22    17    18   ar
    23    18    19   ar
    24    19    20   ar
    25    19    21    1
