@<TRIPOS>MOLECULE
28441_ChemDiv_6809-0256
 28 32 0 0 0
SMALL
GASTEIGER
Energy = 0

@<TRIPOS>ATOM
      1 C           1.3880   -1.9960    0.0000 C.ar    1  LIG1        0.2457
      2 N           1.3880   -0.9960    0.0000 N.ar    1  LIG1       -0.1736
      3 C           2.2630   -0.5000    0.0000 C.ar    1  LIG1        0.2787
      4 C           3.1290   -1.0080    0.0000 C.ar    1  LIG1        0.0493
      5 C           3.1290   -2.0040    0.0000 C.ar    1  LIG1        0.0625
      6 N           2.2500   -2.4960    0.0000 N.ar    1  LIG1       -0.2166
      7 C           4.0790   -2.3130    0.0000 C.3     1  LIG1        0.0461
      8 C           4.6710   -1.5130    0.0000 C.3     1  LIG1        0.0112
      9 C           4.0790   -0.6920    0.0000 C.3     1  LIG1        0.0329
     10 O           2.2670    0.5000    0.0000 O.2     1  LIG1       -0.2654
     11 N           0.5250   -2.4960    0.0000 N.pl3   1  LIG1       -0.1415
     12 C          -0.3580   -1.9960    0.0000 C.ar    1  LIG1        0.2433
     13 N          -0.3580   -0.9960    0.0000 N.ar    1  LIG1       -0.2121
     14 C          -1.2210   -0.5000    0.0000 C.ar    1  LIG1        0.0856
     15 C          -2.0790   -0.9960    0.0000 C.ar    1  LIG1        0.0363
     16 C          -2.0790   -1.9960    0.0000 C.ar    1  LIG1        0.0857
     17 N          -1.2210   -2.4960    0.0000 N.ar    1  LIG1       -0.2121
     18 C          -2.9420   -2.4960    0.0000 C.ar    1  LIG1        0.0201
     19 C          -3.8040   -2.0040    0.0000 C.ar    1  LIG1        0.0129
     20 C          -3.8040   -0.9960    0.0000 C.ar    1  LIG1        0.0578
     21 C          -2.9420   -0.5000    0.0000 C.ar    1  LIG1        0.0144
     22 CL         -4.6750   -0.5080    0.0000 Cl      1  LIG1       -0.0822
     23 C          -1.2210    0.5000    0.0000 C.ar    1  LIG1        0.0178
     24 C          -0.3420    1.0000    0.0000 C.ar    1  LIG1        0.0015
     25 C          -0.3380    2.0040    0.0000 C.ar    1  LIG1        0.0000
     26 C          -1.2000    2.5000    0.0000 C.ar    1  LIG1        0.0000
     27 C          -2.0790    2.0040    0.0000 C.ar    1  LIG1        0.0000
     28 C          -2.0670    1.0000    0.0000 C.ar    1  LIG1        0.0015
@<TRIPOS>BOND
     1     1     2   ar
     2     1     6   ar
     3     1    11    1
     4     2     3   ar
     5     3     4   ar
     6     3    10    2
     7     4     5   ar
     8     4     9    1
     9     5     6   ar
    10     5     7    1
    11     7     8    1
    12     8     9    1
    13    11    12    1
    14    12    13   ar
    15    12    17   ar
    16    13    14   ar
    17    14    15   ar
    18    14    23    1
    19    15    16   ar
    20    15    21   ar
    21    16    17   ar
    22    16    18   ar
    23    18    19   ar
    24    19    20   ar
    25    20    21   ar
    26    20    22    1
    27    23    24   ar
    28    23    28   ar
    29    24    25   ar
    30    25    26   ar
    31    26    27   ar
    32    27    28   ar
