@<TRIPOS>MOLECULE
28440_ChemDiv_E240-0263
 25 27 0 0 0
SMALL
GASTEIGER
Energy = 0

@<TRIPOS>ATOM
      1 C          -1.0880   -1.3710    0.0000 C.ar    1  LIG1        0.2318
      2 C          -0.0920   -1.2630    0.0000 C.ar    1  LIG1        0.0674
      3 C           0.1170   -0.2880    0.0000 C.ar    1  LIG1        0.1233
      4 N          -0.7500    0.2130    0.0000 N.ar    1  LIG1       -0.0768
      5 O          -1.4960   -0.4540    0.0000 O.2     1  LIG1       -0.3487
      6 C           1.0290    0.1210    0.0000 C.ar    1  LIG1        0.0242
      7 C           1.1380    1.1170    0.0000 C.ar    1  LIG1        0.0416
      8 C           2.0500    1.5250    0.0000 C.ar    1  LIG1        0.1724
      9 C           2.8580    0.9330    0.0000 C.ar    1  LIG1        0.1724
     10 C           2.7540   -0.0580    0.0000 C.ar    1  LIG1        0.0401
     11 C           1.8380   -0.4630    0.0000 C.ar    1  LIG1        0.0049
     12 O           3.7710    1.3420    0.0000 O.3     1  LIG1       -0.4684
     13 C           4.5830    0.7540    0.0000 C.3     1  LIG1        0.2526
     14 O           2.1540    2.5210    0.0000 O.3     1  LIG1       -0.4684
     15 C           1.3460    3.1040    0.0000 C.3     1  LIG1        0.2526
     16 C          -1.5880   -2.2380    0.0000 C.2     1  LIG1        0.3064
     17 N          -2.5880   -2.2380    0.0000 N.am    1  LIG1       -0.1704
     18 C          -3.0880   -1.3710    0.0000 C.ar    1  LIG1        0.1022
     19 C          -4.0880   -1.3710    0.0000 C.ar    1  LIG1        0.1535
     20 N          -4.5880   -0.5040    0.0000 N.ar    1  LIG1       -0.2311
     21 C          -4.0880    0.3630    0.0000 C.ar    1  LIG1        0.0999
     22 C          -3.0880    0.3630    0.0000 C.ar    1  LIG1        0.0221
     23 C          -2.5880   -0.5040    0.0000 C.ar    1  LIG1        0.0206
     24 CL         -4.5880   -2.2380    0.0000 Cl      1  LIG1       -0.0599
     25 O          -1.0880   -3.1000    0.0000 O.2     1  LIG1       -0.2645
@<TRIPOS>BOND
     1     1     2   ar
     2     1     5   ar
     3     1    16    1
     4     2     3   ar
     5     3     4   ar
     6     3     6    1
     7     4     5   ar
     8     6     7   ar
     9     6    11   ar
    10     7     8   ar
    11     8     9   ar
    12     8    14    1
    13     9    10   ar
    14     9    12    1
    15    10    11   ar
    16    12    13    1
    17    14    15    1
    18    16    17   am
    19    16    25    2
    20    17    18    1
    21    18    19   ar
    22    18    23   ar
    23    19    20   ar
    24    19    24    1
    25    20    21   ar
    26    21    22   ar
    27    22    23   ar
