@<TRIPOS>MOLECULE
28442_ChemDiv_E240-0264
 27 30 0 0 0
SMALL
GASTEIGER
Energy = 0

@<TRIPOS>ATOM
      1 C          -0.5460   -0.1330    0.0000 C.ar    1  LIG1        0.2318
      2 C           0.4500   -0.0250    0.0000 C.ar    1  LIG1        0.0674
      3 C           0.6580    0.9500    0.0000 C.ar    1  LIG1        0.1233
      4 N          -0.2080    1.4500    0.0000 N.ar    1  LIG1       -0.0768
      5 O          -0.9540    0.7830    0.0000 O.2     1  LIG1       -0.3487
      6 C           1.5710    1.3580    0.0000 C.ar    1  LIG1        0.0242
      7 C           1.6790    2.3540    0.0000 C.ar    1  LIG1        0.0416
      8 C           2.5920    2.7630    0.0000 C.ar    1  LIG1        0.1724
      9 C           3.4000    2.1710    0.0000 C.ar    1  LIG1        0.1724
     10 C           3.2960    1.1790    0.0000 C.ar    1  LIG1        0.0401
     11 C           2.3790    0.7750    0.0000 C.ar    1  LIG1        0.0049
     12 O           4.3130    2.5790    0.0000 O.3     1  LIG1       -0.4684
     13 C           5.1250    1.9920    0.0000 C.3     1  LIG1        0.2526
     14 O           2.6960    3.7580    0.0000 O.3     1  LIG1       -0.4684
     15 C           1.8880    4.3380    0.0000 C.3     1  LIG1        0.2526
     16 C          -1.0460   -1.0000    0.0000 C.2     1  LIG1        0.3064
     17 N          -2.0460   -1.0000    0.0000 N.am    1  LIG1       -0.1727
     18 C          -2.5460   -1.8630    0.0000 C.ar    1  LIG1        0.0770
     19 C          -3.5460   -1.8630    0.0000 C.ar    1  LIG1        0.0568
     20 C          -4.0460   -2.7290    0.0000 C.ar    1  LIG1        0.1777
     21 C          -3.5460   -3.5960    0.0000 C.ar    1  LIG1        0.1765
     22 O          -4.2130   -4.3380    0.0000 O.3     1  LIG1       -0.4346
     23 C          -5.1290   -3.9330    0.0000 C.3     1  LIG1        0.4294
     24 O          -5.0250   -2.9380    0.0000 O.3     1  LIG1       -0.4346
     25 C          -2.5460   -3.5960    0.0000 C.ar    1  LIG1        0.0415
     26 C          -2.0460   -2.7290    0.0000 C.ar    1  LIG1        0.0199
     27 O          -0.5460   -1.8630    0.0000 O.2     1  LIG1       -0.2645
@<TRIPOS>BOND
     1     1     2   ar
     2     1     5   ar
     3     1    16    1
     4     2     3   ar
     5     3     4   ar
     6     3     6    1
     7     4     5   ar
     8     6     7   ar
     9     6    11   ar
    10     7     8   ar
    11     8     9   ar
    12     8    14    1
    13     9    10   ar
    14     9    12    1
    15    10    11   ar
    16    12    13    1
    17    14    15    1
    18    16    17   am
    19    16    27    2
    20    17    18    1
    21    18    19   ar
    22    18    26   ar
    23    19    20   ar
    24    20    21   ar
    25    20    24    1
    26    21    22    1
    27    21    25   ar
    28    22    23    1
    29    23    24    1
    30    25    26   ar
