@<TRIPOS>MOLECULE
28446_ChemDiv_E240-0296
 29 33 0 0 0
SMALL
GASTEIGER
Energy = 0

@<TRIPOS>ATOM
      1 C           1.7790    1.2420    0.0000 C.ar    1  LIG1        0.2315
      2 C           1.0330    0.5750    0.0000 C.ar    1  LIG1        0.0674
      3 C           1.4420   -0.3420    0.0000 C.ar    1  LIG1        0.1233
      4 N           2.4290   -0.2330    0.0000 N.ar    1  LIG1       -0.0768
      5 O           2.6420    0.7380    0.0000 O.2     1  LIG1       -0.3487
      6 C           0.9460   -1.2040    0.0000 C.ar    1  LIG1        0.0242
      7 C           1.4420   -2.0630    0.0000 C.ar    1  LIG1        0.0416
      8 C           0.9460   -2.9290    0.0000 C.ar    1  LIG1        0.1724
      9 C          -0.0500   -2.9290    0.0000 C.ar    1  LIG1        0.1724
     10 C          -0.5540   -2.0630    0.0000 C.ar    1  LIG1        0.0401
     11 C          -0.0500   -1.2040    0.0000 C.ar    1  LIG1        0.0049
     12 O          -0.5540   -3.7920    0.0000 O.3     1  LIG1       -0.4684
     13 C          -0.0500   -4.6580    0.0000 C.3     1  LIG1        0.2526
     14 O           1.4420   -3.7920    0.0000 O.3     1  LIG1       -0.4684
     15 C           2.4380   -3.7920    0.0000 C.3     1  LIG1        0.2526
     16 C           1.6750    2.2290    0.0000 C.2     1  LIG1        0.3022
     17 N           0.7630    2.6380    0.0000 N.am    1  LIG1       -0.1990
     18 C           0.6580    3.6250    0.0000 C.3     1  LIG1        0.1155
     19 C          -0.2540    4.0290    0.0000 C.3     1  LIG1        0.0201
     20 C          -1.0250    4.6580    0.0000 C.3     1  LIG1        0.0017
     21 C          -1.9580    4.3000    0.0000 C.3     1  LIG1        0.0001
     22 C          -2.6460    4.2920    0.0000 C.3     1  LIG1        0.0000
     23 C          -2.3250    3.6460    0.0000 C.3     1  LIG1        0.0001
     24 C          -0.8670    3.5380    0.0000 C.3     1  LIG1        0.0017
     25 C          -2.3580    2.3170    0.0000 C.3     1  LIG1        0.0000
     26 C          -1.3380    2.6920    0.0000 C.3     1  LIG1        0.0001
     27 C          -0.4080    3.0460    0.0000 C.3     1  LIG1        0.0017
     28 C          -2.1130    3.3210    0.0000 C.3     1  LIG1        0.0000
     29 O           2.4790    2.8170    0.0000 O.2     1  LIG1       -0.2649
@<TRIPOS>BOND
     1     1     2   ar
     2     1     5   ar
     3     1    16    1
     4     2     3   ar
     5     3     4   ar
     6     3     6    1
     7     4     5   ar
     8     6     7   ar
     9     6    11   ar
    10     7     8   ar
    11     8     9   ar
    12     8    14    1
    13     9    10   ar
    14     9    12    1
    15    10    11   ar
    16    12    13    1
    17    14    15    1
    18    16    17   am
    19    16    29    2
    20    17    18    1
    21    18    19    1
    22    19    20    1
    23    19    24    1
    24    19    27    1
    25    20    21    1
    26    21    22    1
    27    21    28    1
    28    22    23    1
    29    23    24    1
    30    23    25    1
    31    25    26    1
    32    26    27    1
    33    26    28    1
