@<TRIPOS>MOLECULE
28444_ChemDiv_E240-0277
 26 28 0 0 0
SMALL
GASTEIGER
Energy = 0

@<TRIPOS>ATOM
      1 C          -0.3380   -0.9380    0.0000 C.ar    1  LIG1        0.2300
      2 C           0.6580   -0.8290    0.0000 C.ar    1  LIG1        0.0673
      3 C           0.8670    0.1460    0.0000 C.ar    1  LIG1        0.1233
      4 N           0.0000    0.6460    0.0000 N.ar    1  LIG1       -0.0768
      5 O          -0.7460   -0.0210    0.0000 O.2     1  LIG1       -0.3487
      6 C           1.7830    0.5540    0.0000 C.ar    1  LIG1        0.0242
      7 C           1.8880    1.5500    0.0000 C.ar    1  LIG1        0.0416
      8 C           2.8000    1.9580    0.0000 C.ar    1  LIG1        0.1724
      9 C           3.6080    1.3670    0.0000 C.ar    1  LIG1        0.1724
     10 C           3.5040    0.3750    0.0000 C.ar    1  LIG1        0.0401
     11 C           2.5880   -0.0290    0.0000 C.ar    1  LIG1        0.0049
     12 O           4.5210    1.7750    0.0000 O.3     1  LIG1       -0.4684
     13 C           5.3330    1.1880    0.0000 C.3     1  LIG1        0.2526
     14 O           2.9040    2.9540    0.0000 O.3     1  LIG1       -0.4684
     15 C           2.0960    3.5380    0.0000 C.3     1  LIG1        0.2526
     16 C          -0.8380   -1.8040    0.0000 C.2     1  LIG1        0.2867
     17 N          -1.8380   -1.8040    0.0000 N.am    1  LIG1       -0.2676
     18 C          -2.3380   -2.6670    0.0000 C.3     1  LIG1        0.1206
     19 C          -3.3380   -2.6670    0.0000 C.ar    1  LIG1       -0.0023
     20 C          -3.8380   -3.5330    0.0000 C.ar    1  LIG1       -0.0026
     21 C          -4.8380   -3.5330    0.0000 C.ar    1  LIG1       -0.0003
     22 C          -5.3380   -2.6670    0.0000 C.ar    1  LIG1       -0.0000
     23 C          -4.8380   -1.8040    0.0000 C.ar    1  LIG1       -0.0003
     24 C          -3.8380   -1.8040    0.0000 C.ar    1  LIG1       -0.0026
     25 C          -2.3380   -0.9380    0.0000 C.3     1  LIG1        0.1156
     26 O          -0.3380   -2.6670    0.0000 O.2     1  LIG1       -0.2665
@<TRIPOS>BOND
     1     1     2   ar
     2     1     5   ar
     3     1    16    1
     4     2     3   ar
     5     3     4   ar
     6     3     6    1
     7     4     5   ar
     8     6     7   ar
     9     6    11   ar
    10     7     8   ar
    11     8     9   ar
    12     8    14    1
    13     9    10   ar
    14     9    12    1
    15    10    11   ar
    16    12    13    1
    17    14    15    1
    18    16    17   am
    19    16    26    2
    20    17    18    1
    21    17    25    1
    22    18    19    1
    23    19    20   ar
    24    19    24   ar
    25    20    21   ar
    26    21    22   ar
    27    22    23   ar
    28    23    24   ar
