@<TRIPOS>MOLECULE
28447_ChemDiv_2595-0250
 24 26 0 0 0
SMALL
GASTEIGER
Energy = 0

@<TRIPOS>ATOM
      1 C          -0.0210    0.2330    0.0000 C.ar    1  LIG1        0.1205
      2 N          -0.0210   -0.7540    0.0000 N.ar    1  LIG1       -0.1445
      3 N          -0.8710   -1.2290    0.0000 N.ar    1  LIG1       -0.1218
      4 C          -1.7330   -0.7380    0.0000 C.ar    1  LIG1        0.2110
      5 N          -1.7330    0.2540    0.0000 N.ar    1  LIG1       -0.2183
      6 C          -0.8710    0.7540    0.0000 C.ar    1  LIG1        0.1028
      7 C          -0.8710    1.7670    0.0000 C.ar    1  LIG1        0.0193
      8 C          -1.7330    2.2670    0.0000 C.ar    1  LIG1        0.0015
      9 C          -1.7330    3.2710    0.0000 C.ar    1  LIG1        0.0000
     10 C          -0.8710    3.7630    0.0000 C.ar    1  LIG1        0.0000
     11 C          -0.0210    3.3040    0.0000 C.ar    1  LIG1        0.0000
     12 C          -0.0080    2.2790    0.0000 C.ar    1  LIG1        0.0015
     13 S          -2.5960   -1.2540    0.0000 S.3     1  LIG1       -0.0621
     14 C          -2.5960   -2.2500    0.0000 C.3     1  LIG1        0.1743
     15 C          -1.7330   -2.7380    0.0000 C.2     1  LIG1        0.3287
     16 O          -1.7330   -3.7580    0.0000 O.2     1  LIG1       -0.2491
     17 O          -0.8630   -2.2500    0.0000 O.3     1  LIG1       -0.4438
     18 C           0.0170   -2.7380    0.0000 C.3     1  LIG1        0.2556
     19 C           0.8420    0.7420    0.0000 C.ar    1  LIG1        0.0209
     20 C           1.7210    0.2330    0.0000 C.ar    1  LIG1        0.0016
     21 C           2.5920    0.7420    0.0000 C.ar    1  LIG1        0.0000
     22 C           2.5830    1.7420    0.0000 C.ar    1  LIG1        0.0000
     23 C           1.7210    2.2460    0.0000 C.ar    1  LIG1        0.0000
     24 C           0.8420    1.7420    0.0000 C.ar    1  LIG1        0.0016
@<TRIPOS>BOND
     1     1     2   ar
     2     1     6   ar
     3     1    19    1
     4     2     3   ar
     5     3     4   ar
     6     4     5   ar
     7     4    13    1
     8     5     6   ar
     9     6     7    1
    10     7     8   ar
    11     7    12   ar
    12     8     9   ar
    13     9    10   ar
    14    10    11   ar
    15    11    12   ar
    16    13    14    1
    17    14    15    1
    18    15    16    2
    19    15    17    1
    20    17    18    1
    21    19    20   ar
    22    19    24   ar
    23    20    21   ar
    24    21    22   ar
    25    22    23   ar
    26    23    24   ar
