@<TRIPOS>MOLECULE
28443_ChemDiv_2582-0138
 30 32 0 0 0
SMALL
GASTEIGER
Energy = 0

@<TRIPOS>ATOM
      1 N           0.8830   -0.5290    0.0000 N.3     1  LIG1       -0.2604
      2 C           1.7500   -1.0130    0.0000 C.3     1  LIG1        0.1096
      3 C           2.6290   -0.5290    0.0000 C.3     1  LIG1        0.2112
      4 C           3.5000   -1.0130    0.0000 C.3     1  LIG1        0.2394
      5 O           4.3380   -0.5040    0.0000 O.3     1  LIG1       -0.4727
      6 C           5.2210   -0.9920    0.0000 C.ar    1  LIG1        0.1384
      7 C           5.2210   -2.0000    0.0000 C.ar    1  LIG1        0.0326
      8 C           6.0880   -2.4630    0.0000 C.ar    1  LIG1       -0.0188
      9 C           6.9630   -1.9670    0.0000 C.ar    1  LIG1       -0.0041
     10 C           6.9630   -0.9920    0.0000 C.ar    1  LIG1        0.0028
     11 C           6.0880   -0.5040    0.0000 C.ar    1  LIG1        0.0369
     12 C           6.0880   -3.4580    0.0000 C.3     1  LIG1        0.0311
     13 O           2.6290    0.4830    0.0000 O.3     1  LIG1       -0.2176
     14 C           0.0170   -1.0130    0.0000 C.3     1  LIG1        0.1359
     15 C          -0.8580   -0.5290    0.0000 C.3     1  LIG1        0.1564
     16 N          -0.8580    0.4830    0.0000 N.4     1  LIG1        0.3816
     17 C          -1.7540    0.9960    0.0000 C.3     1  LIG1        0.1759
     18 C          -2.6080    0.4830    0.0000 C.3     1  LIG1        0.2514
     19 C          -3.4750    0.9670    0.0000 C.3     1  LIG1        0.2443
     20 O          -4.3420    0.4830    0.0000 O.3     1  LIG1       -0.4725
     21 C          -5.2170    0.9670    0.0000 C.ar    1  LIG1        0.1384
     22 C          -5.2170    1.9830    0.0000 C.ar    1  LIG1        0.0326
     23 C          -6.0580    2.4670    0.0000 C.ar    1  LIG1       -0.0188
     24 C          -6.9630    1.9830    0.0000 C.ar    1  LIG1       -0.0041
     25 C          -6.9630    0.9670    0.0000 C.ar    1  LIG1        0.0028
     26 C          -6.0830    0.4830    0.0000 C.ar    1  LIG1        0.0369
     27 C          -6.0080    3.4630    0.0000 C.3     1  LIG1        0.0311
     28 O          -2.6080   -0.5040    0.0000 O.3     1  LIG1       -0.2127
     29 C           0.0170    0.9670    0.0000 C.3     1  LIG1        0.1564
     30 C           0.8830    0.4830    0.0000 C.3     1  LIG1        0.1359
@<TRIPOS>BOND
     1     1     2    1
     2     1    14    1
     3     1    30    1
     4     2     3    1
     5     3     4    1
     6     3    13    1
     7     4     5    1
     8     5     6    1
     9     6     7   ar
    10     6    11   ar
    11     7     8   ar
    12     8     9   ar
    13     8    12    1
    14     9    10   ar
    15    10    11   ar
    16    14    15    1
    17    15    16    1
    18    16    17    1
    19    16    29    1
    20    17    18    1
    21    18    19    1
    22    18    28    1
    23    19    20    1
    24    20    21    1
    25    21    22   ar
    26    21    26   ar
    27    22    23   ar
    28    23    24   ar
    29    23    27    1
    30    24    25   ar
    31    25    26   ar
    32    29    30    1
