@<TRIPOS>MOLECULE
28451_ChemDiv_8012-6566
 30 34 0 0 0
SMALL
GASTEIGER
Energy = 0

@<TRIPOS>ATOM
      1 N          -0.9080    0.4580    0.0000 N.am    1  LIG1       -0.2031
      2 C          -0.4130    1.2960    0.0000 C.2     1  LIG1        0.2419
      3 C           0.5540    1.2960    0.0000 C.3     1  LIG1        0.1581
      4 C           1.0460    0.4580    0.0000 C.3     1  LIG1        0.2305
      5 C          -0.4130   -0.3830    0.0000 C.2     1  LIG1        0.2927
      6 O          -0.8830   -1.2210    0.0000 O.2     1  LIG1       -0.2677
      7 N           2.0040    0.4580    0.0000 N.4     1  LIG1        0.4509
      8 C           2.4750   -0.3670    0.0000 C.3     1  LIG1        0.2006
      9 C           3.4880   -0.3830    0.0000 C.3     1  LIG1        0.0575
     10 C           3.4880    0.6330    0.0000 C.3     1  LIG1        0.0059
     11 C           4.3420    1.0290    0.0000 C.3     1  LIG1        0.0002
     12 C           5.2790    0.5040    0.0000 C.3     1  LIG1        0.0000
     13 C           5.2790   -0.4580    0.0000 C.3     1  LIG1        0.0002
     14 C           4.4040   -0.7630    0.0000 C.3     1  LIG1        0.0059
     15 C           4.7040   -1.3380    0.0000 C.3     1  LIG1        0.0000
     16 C           3.8330   -0.9290    0.0000 C.3     1  LIG1        0.0002
     17 C           3.0460   -1.2830    0.0000 C.3     1  LIG1        0.0059
     18 C           3.8330    0.1130    0.0000 C.3     1  LIG1        0.0000
     19 O          -0.8830    2.1290    0.0000 O.2     1  LIG1       -0.2739
     20 C          -1.8750    0.4580    0.0000 C.ar    1  LIG1        0.0608
     21 C          -2.3670   -0.3830    0.0000 C.ar    1  LIG1        0.0155
     22 C          -3.3330   -0.3830    0.0000 C.ar    1  LIG1        0.0077
     23 C          -3.8250    0.4580    0.0000 C.ar    1  LIG1        0.0757
     24 C          -4.7960    0.4580    0.0000 C.2     1  LIG1        0.3412
     25 O          -5.2750    1.2830    0.0000 O.2     1  LIG1       -0.2449
     26 O          -5.2830   -0.3920    0.0000 O.3     1  LIG1       -0.4454
     27 C          -4.7750   -1.2380    0.0000 C.3     1  LIG1        0.2089
     28 C          -5.2750   -2.1250    0.0000 C.3     1  LIG1        0.0513
     29 C          -3.3330    1.2960    0.0000 C.ar    1  LIG1        0.0077
     30 C          -2.3670    1.2960    0.0000 C.ar    1  LIG1        0.0155
@<TRIPOS>BOND
     1     1     2   am
     2     1     5   am
     3     1    20    1
     4     2     3    1
     5     2    19    2
     6     3     4    1
     7     4     5    1
     8     4     7    1
     9     5     6    2
    10     7     8    1
    11     8     9    1
    12     9    10    1
    13     9    14    1
    14     9    17    1
    15    10    11    1
    16    11    12    1
    17    11    18    1
    18    12    13    1
    19    13    14    1
    20    13    15    1
    21    15    16    1
    22    16    17    1
    23    16    18    1
    24    20    21   ar
    25    20    30   ar
    26    21    22   ar
    27    22    23   ar
    28    23    24    1
    29    23    29   ar
    30    24    25    2
    31    24    26    1
    32    26    27    1
    33    27    28    1
    34    29    30   ar
