@<TRIPOS>MOLECULE
28454_ChemDiv_3010-1986
 24 27 0 0 0
SMALL
GASTEIGER
Energy = 0

@<TRIPOS>ATOM
      1 N           0.5080   -0.4290    0.0000 N.am    1  LIG1       -0.2790
      2 C           0.0210    0.4290    0.0000 C.2     1  LIG1        0.2336
      3 C          -0.9960    0.4330    0.0000 C.3     1  LIG1        0.1269
      4 C          -1.4880    1.3000    0.0000 C.ar    1  LIG1        0.0249
      5 C          -2.5000    1.3000    0.0000 C.ar    1  LIG1        0.1420
      6 O          -3.0000    0.4330    0.0000 O.3     1  LIG1       -0.4541
      7 C          -2.5000   -0.4290    0.0000 C.ar    1  LIG1        0.1420
      8 C          -1.5040   -0.4380    0.0000 C.ar    1  LIG1        0.0249
      9 C          -0.9960   -1.3000    0.0000 C.ar    1  LIG1       -0.0005
     10 C          -1.5040   -2.1670    0.0000 C.ar    1  LIG1       -0.0001
     11 C          -2.5080   -2.1670    0.0000 C.ar    1  LIG1        0.0031
     12 C          -3.0000   -1.2960    0.0000 C.ar    1  LIG1        0.0372
     13 C          -2.9880    2.1630    0.0000 C.ar    1  LIG1        0.0372
     14 C          -2.4830    3.0290    0.0000 C.ar    1  LIG1        0.0031
     15 C          -1.4710    3.0290    0.0000 C.ar    1  LIG1       -0.0001
     16 C          -0.9790    2.1630    0.0000 C.ar    1  LIG1       -0.0005
     17 O           0.5080    1.2920    0.0000 O.2     1  LIG1       -0.2742
     18 C           1.4880   -0.4380    0.0000 C.3     1  LIG1        0.0934
     19 C           2.0000   -1.3000    0.0000 C.3     1  LIG1        0.0199
     20 C           1.4880   -2.1670    0.0000 C.3     1  LIG1        0.0034
     21 C           0.4920   -2.1580    0.0000 C.3     1  LIG1        0.0199
     22 C           0.0040   -1.2960    0.0000 C.3     1  LIG1        0.0934
     23 C          -0.0080   -3.0250    0.0000 C.3     1  LIG1        0.0018
     24 C           2.9960   -1.3000    0.0000 C.3     1  LIG1        0.0018
@<TRIPOS>BOND
     1     1     2   am
     2     1    18    1
     3     1    22    1
     4     2     3    1
     5     2    17    2
     6     3     4    1
     7     3     8    1
     8     4     5   ar
     9     4    16   ar
    10     5     6    1
    11     5    13   ar
    12     6     7    1
    13     7     8   ar
    14     7    12   ar
    15     8     9   ar
    16     9    10   ar
    17    10    11   ar
    18    11    12   ar
    19    13    14   ar
    20    14    15   ar
    21    15    16   ar
    22    18    19    1
    23    19    20    1
    24    19    24    1
    25    20    21    1
    26    21    22    1
    27    21    23    1
