@<TRIPOS>MOLECULE
28456_ChemDiv_3010-2021
 29 33 0 0 0
SMALL
GASTEIGER
Energy = 0

@<TRIPOS>ATOM
      1 C          -1.9710    0.8830    0.0000 C.3     1  LIG1        0.1269
      2 C          -0.9670    0.8830    0.0000 C.2     1  LIG1        0.2339
      3 N          -0.4670    0.0130    0.0000 N.am    1  LIG1       -0.2676
      4 C           0.5380    0.0130    0.0000 C.3     1  LIG1        0.1565
      5 C           0.9960   -0.8540    0.0000 C.3     1  LIG1        0.1610
      6 N           0.5290   -1.7250    0.0000 N.4     1  LIG1        0.3834
      7 C           0.9960   -2.5920    0.0000 C.3     1  LIG1        0.1663
      8 C           2.0000   -2.5920    0.0000 C.ar    1  LIG1        0.0344
      9 C           2.4920   -1.7290    0.0000 C.ar    1  LIG1        0.0014
     10 C           3.4920   -1.7250    0.0000 C.ar    1  LIG1       -0.0001
     11 C           4.0040   -2.5920    0.0000 C.ar    1  LIG1       -0.0000
     12 C           3.4920   -3.4630    0.0000 C.ar    1  LIG1       -0.0001
     13 C           2.4920   -3.4630    0.0000 C.ar    1  LIG1        0.0014
     14 C          -0.4710   -1.7250    0.0000 C.3     1  LIG1        0.1610
     15 C          -0.9670   -0.8540    0.0000 C.3     1  LIG1        0.1565
     16 O          -0.4670    1.7130    0.0000 O.2     1  LIG1       -0.2742
     17 C          -2.4790    1.7130    0.0000 C.ar    1  LIG1        0.0249
     18 C          -3.4790    1.7290    0.0000 C.ar    1  LIG1        0.1420
     19 O          -3.9920    0.8830    0.0000 O.3     1  LIG1       -0.4541
     20 C          -3.4960    0.0130    0.0000 C.ar    1  LIG1        0.1420
     21 C          -2.4960    0.0130    0.0000 C.ar    1  LIG1        0.0249
     22 C          -1.9880   -0.8540    0.0000 C.ar    1  LIG1       -0.0005
     23 C          -2.4960   -1.7290    0.0000 C.ar    1  LIG1       -0.0001
     24 C          -3.5080   -1.7250    0.0000 C.ar    1  LIG1        0.0031
     25 C          -4.0080   -0.8540    0.0000 C.ar    1  LIG1        0.0372
     26 C          -3.9750    2.5960    0.0000 C.ar    1  LIG1        0.0372
     27 C          -3.4790    3.4670    0.0000 C.ar    1  LIG1        0.0031
     28 C          -2.4710    3.4500    0.0000 C.ar    1  LIG1       -0.0001
     29 C          -1.9710    2.5790    0.0000 C.ar    1  LIG1       -0.0005
@<TRIPOS>BOND
     1     1     2    1
     2     1    17    1
     3     1    21    1
     4     2     3   am
     5     2    16    2
     6     3     4    1
     7     3    15    1
     8     4     5    1
     9     5     6    1
    10     6     7    1
    11     6    14    1
    12     7     8    1
    13     8     9   ar
    14     8    13   ar
    15     9    10   ar
    16    10    11   ar
    17    11    12   ar
    18    12    13   ar
    19    14    15    1
    20    17    18   ar
    21    17    29   ar
    22    18    19    1
    23    18    26   ar
    24    19    20    1
    25    20    21   ar
    26    20    25   ar
    27    21    22   ar
    28    22    23   ar
    29    23    24   ar
    30    24    25   ar
    31    26    27   ar
    32    27    28   ar
    33    28    29   ar
