@<TRIPOS>MOLECULE
28458_ChemDiv_3010-2023
 27 30 0 0 0
SMALL
GASTEIGER
Energy = 0

@<TRIPOS>ATOM
      1 C          -1.7460    0.8960    0.0000 C.3     1  LIG1        0.1269
      2 C          -0.7460    0.8960    0.0000 C.2     1  LIG1        0.2336
      3 N          -0.2580    0.0000    0.0000 N.am    1  LIG1       -0.2790
      4 C           0.7420    0.0000    0.0000 C.3     1  LIG1        0.0940
      5 C           1.2540   -0.8630    0.0000 C.3     1  LIG1        0.0326
      6 C           0.7420   -1.7290    0.0000 C.3     1  LIG1        0.1025
      7 C           1.2540   -2.5960    0.0000 C.2     1  LIG1        0.3165
      8 O           0.7420   -3.4630    0.0000 O.2     1  LIG1       -0.2501
      9 O           2.2540   -2.5960    0.0000 O.3     1  LIG1       -0.4485
     10 C           2.7420   -3.4630    0.0000 C.3     1  LIG1        0.2086
     11 C           3.7420   -3.4630    0.0000 C.3     1  LIG1        0.0513
     12 C          -0.2580   -1.7290    0.0000 C.3     1  LIG1        0.0326
     13 C          -0.7460   -0.8630    0.0000 C.3     1  LIG1        0.0940
     14 O          -0.2580    1.7290    0.0000 O.2     1  LIG1       -0.2742
     15 C          -2.2580    1.7290    0.0000 C.ar    1  LIG1        0.0249
     16 C          -3.2750    1.7330    0.0000 C.ar    1  LIG1        0.1420
     17 O          -3.7460    0.9130    0.0000 O.3     1  LIG1       -0.4541
     18 C          -3.2790    0.0000    0.0000 C.ar    1  LIG1        0.1420
     19 C          -2.2750    0.0000    0.0000 C.ar    1  LIG1        0.0249
     20 C          -1.7460   -0.8630    0.0000 C.ar    1  LIG1       -0.0005
     21 C          -2.2750   -1.7290    0.0000 C.ar    1  LIG1       -0.0001
     22 C          -3.2790   -1.7290    0.0000 C.ar    1  LIG1        0.0031
     23 C          -3.7460   -0.8630    0.0000 C.ar    1  LIG1        0.0372
     24 C          -3.7460    2.6000    0.0000 C.ar    1  LIG1        0.0372
     25 C          -3.2580    3.4670    0.0000 C.ar    1  LIG1        0.0031
     26 C          -2.2580    3.4670    0.0000 C.ar    1  LIG1       -0.0001
     27 C          -1.7460    2.5960    0.0000 C.ar    1  LIG1       -0.0005
@<TRIPOS>BOND
     1     1     2    1
     2     1    15    1
     3     1    19    1
     4     2     3   am
     5     2    14    2
     6     3     4    1
     7     3    13    1
     8     4     5    1
     9     5     6    1
    10     6     7    1
    11     6    12    1
    12     7     8    2
    13     7     9    1
    14     9    10    1
    15    10    11    1
    16    12    13    1
    17    15    16   ar
    18    15    27   ar
    19    16    17    1
    20    16    24   ar
    21    17    18    1
    22    18    19   ar
    23    18    23   ar
    24    19    20   ar
    25    20    21   ar
    26    21    22   ar
    27    22    23   ar
    28    24    25   ar
    29    25    26   ar
    30    26    27   ar
