@<TRIPOS>MOLECULE
28466_ChemDiv_C447-1016
 28 32 0 0 0
SMALL
GASTEIGER
Energy = 0

@<TRIPOS>ATOM
      1 C           0.4500    1.9790    0.0000 C.2     1  LIG1        0.2491
      2 N          -0.1380    2.7960    0.0000 N.am    1  LIG1       -0.2736
      3 C           0.4500    3.6000    0.0000 C.3     1  LIG1        0.1205
      4 C           1.3920    3.2920    0.0000 C.ar    1  LIG1        0.0022
      5 C           1.3920    2.2920    0.0000 C.ar    1  LIG1        0.0557
      6 C           2.2540    1.8000    0.0000 C.ar    1  LIG1        0.0595
      7 C           2.2540    0.8040    0.0000 C.2     1  LIG1        0.2691
      8 N           1.3920    0.3040    0.0000 N.am    1  LIG1       -0.1753
      9 C           1.3920   -0.7080    0.0000 C.ar    1  LIG1        0.0769
     10 C           0.5210   -1.2080    0.0000 C.ar    1  LIG1        0.0568
     11 C           0.5130   -2.2080    0.0000 C.ar    1  LIG1        0.1777
     12 C           1.3790   -2.7080    0.0000 C.ar    1  LIG1        0.1765
     13 O           1.1830   -3.6880    0.0000 O.3     1  LIG1       -0.4346
     14 C           0.1830   -3.7920    0.0000 C.3     1  LIG1        0.4294
     15 O          -0.2170   -2.8750    0.0000 O.3     1  LIG1       -0.4346
     16 C           2.2540   -2.2170    0.0000 C.ar    1  LIG1        0.0415
     17 C           2.2540   -1.2080    0.0000 C.ar    1  LIG1        0.0199
     18 O           3.1290    0.3040    0.0000 O.2     1  LIG1       -0.2680
     19 C           3.1290    2.2830    0.0000 C.ar    1  LIG1        0.0047
     20 C           3.1290    3.2830    0.0000 C.ar    1  LIG1       -0.0001
     21 C           2.2540    3.7960    0.0000 C.ar    1  LIG1       -0.0025
     22 C          -1.1330    2.7960    0.0000 C.3     1  LIG1        0.0759
     23 C          -1.6250    3.6750    0.0000 C.3     1  LIG1        0.0198
     24 C          -2.6250    3.6750    0.0000 C.3     1  LIG1        0.0017
     25 C          -3.1330    2.8290    0.0000 C.3     1  LIG1        0.0001
     26 C          -2.6330    1.9500    0.0000 C.3     1  LIG1        0.0017
     27 C          -1.6330    1.9460    0.0000 C.3     1  LIG1        0.0198
     28 O           0.1330    1.0380    0.0000 O.2     1  LIG1       -0.2699
@<TRIPOS>BOND
     1     1     2   am
     2     1     5    1
     3     1    28    2
     4     2     3    1
     5     2    22    1
     6     3     4    1
     7     4     5   ar
     8     4    21   ar
     9     5     6   ar
    10     6     7    1
    11     6    19   ar
    12     7     8   am
    13     7    18    2
    14     8     9    1
    15     9    10   ar
    16     9    17   ar
    17    10    11   ar
    18    11    12   ar
    19    11    15    1
    20    12    13    1
    21    12    16   ar
    22    13    14    1
    23    14    15    1
    24    16    17   ar
    25    19    20   ar
    26    20    21   ar
    27    22    23    1
    28    22    27    1
    29    23    24    1
    30    24    25    1
    31    25    26    1
    32    26    27    1
