@<TRIPOS>MOLECULE
28464_ChemDiv_3966-2787
 23 25 0 0 0
SMALL
GASTEIGER
Energy = 0

@<TRIPOS>ATOM
      1 C          -0.7420    0.4130    0.0000 C.3     1  LIG1        0.1270
      2 C           0.2630    0.4130    0.0000 C.2     1  LIG1        0.2351
      3 N           0.7380   -0.4630    0.0000 N.am    1  LIG1       -0.2522
      4 C           0.2630   -1.3170    0.0000 C.3     1  LIG1        0.2011
      5 C           0.7380   -2.1500    0.0000 C.1     1  LIG1        0.0955
      6 N           1.2710   -3.0420    0.0000 N.1     1  LIG1       -0.1941
      7 C           1.7460   -0.4630    0.0000 C.3     1  LIG1        0.2011
      8 C           2.2790   -1.3330    0.0000 C.1     1  LIG1        0.0955
      9 N           2.7540   -2.1500    0.0000 N.1     1  LIG1       -0.1941
     10 O           0.7380    1.2830    0.0000 O.2     1  LIG1       -0.2741
     11 C          -1.2790   -0.4630    0.0000 C.ar    1  LIG1        0.0249
     12 C          -2.2880   -0.4460    0.0000 C.ar    1  LIG1        0.1420
     13 O          -2.7580    0.4290    0.0000 O.3     1  LIG1       -0.4541
     14 C          -2.2880    1.3000    0.0000 C.ar    1  LIG1        0.1420
     15 C          -1.2750    1.3000    0.0000 C.ar    1  LIG1        0.0249
     16 C          -0.7420    2.1710    0.0000 C.ar    1  LIG1       -0.0005
     17 C          -1.2750    3.0460    0.0000 C.ar    1  LIG1       -0.0001
     18 C          -2.2830    3.0460    0.0000 C.ar    1  LIG1        0.0031
     19 C          -2.7580    2.1880    0.0000 C.ar    1  LIG1        0.0372
     20 C          -2.7580   -1.3170    0.0000 C.ar    1  LIG1        0.0372
     21 C          -2.2880   -2.1500    0.0000 C.ar    1  LIG1        0.0031
     22 C          -1.2790   -2.1500    0.0000 C.ar    1  LIG1       -0.0001
     23 C          -0.7420   -1.3330    0.0000 C.ar    1  LIG1       -0.0005
@<TRIPOS>BOND
     1     1     2    1
     2     1    11    1
     3     1    15    1
     4     2     3   am
     5     2    10    2
     6     3     4    1
     7     3     7    1
     8     4     5    1
     9     5     6    3
    10     7     8    1
    11     8     9    3
    12    11    12   ar
    13    11    23   ar
    14    12    13    1
    15    12    20   ar
    16    13    14    1
    17    14    15   ar
    18    14    19   ar
    19    15    16   ar
    20    16    17   ar
    21    17    18   ar
    22    18    19   ar
    23    20    21   ar
    24    21    22   ar
    25    22    23   ar
