@<TRIPOS>MOLECULE
28462_ChemDiv_3365-6111
 31 35 0 0 0
SMALL
GASTEIGER
Energy = 0

@<TRIPOS>ATOM
      1 C           2.5710    0.4670    0.0000 C.3     1  LIG1        0.1269
      2 C           2.0710    1.3250    0.0000 C.2     1  LIG1        0.2339
      3 N           1.0830    1.3250    0.0000 N.am    1  LIG1       -0.2676
      4 C           0.5710    2.2040    0.0000 C.3     1  LIG1        0.1565
      5 C          -0.4460    2.1880    0.0000 C.3     1  LIG1        0.1610
      6 N          -0.9380    1.3250    0.0000 N.4     1  LIG1        0.3834
      7 C          -0.4290    0.4290    0.0000 C.3     1  LIG1        0.1610
      8 C           0.5880    0.4630    0.0000 C.3     1  LIG1        0.1565
      9 C          -2.0210    1.3250    0.0000 C.3     1  LIG1        0.1662
     10 C          -2.5130    0.4290    0.0000 C.2     1  LIG1        0.0359
     11 C          -3.5170    0.4290    0.0000 C.2     1  LIG1        0.0013
     12 C          -4.0040   -0.4380    0.0000 C.ar    1  LIG1       -0.0001
     13 C          -3.5170   -1.3210    0.0000 C.ar    1  LIG1       -0.0000
     14 C          -4.0040   -2.1880    0.0000 C.ar    1  LIG1       -0.0000
     15 C          -5.0080   -2.2000    0.0000 C.ar    1  LIG1       -0.0000
     16 C          -5.5250   -1.3210    0.0000 C.ar    1  LIG1       -0.0000
     17 C          -5.0080   -0.4380    0.0000 C.ar    1  LIG1       -0.0000
     18 O           2.5790    2.1790    0.0000 O.2     1  LIG1       -0.2742
     19 C           3.5460    0.4670    0.0000 C.ar    1  LIG1        0.0249
     20 C           4.0540   -0.3880    0.0000 C.ar    1  LIG1        0.1420
     21 O           3.5460   -1.2380    0.0000 O.3     1  LIG1       -0.4541
     22 C           2.5790   -1.2380    0.0000 C.ar    1  LIG1        0.1420
     23 C           2.0710   -0.3710    0.0000 C.ar    1  LIG1        0.0249
     24 C           1.0830   -0.3710    0.0000 C.ar    1  LIG1       -0.0005
     25 C           0.5830   -1.2250    0.0000 C.ar    1  LIG1       -0.0001
     26 C           1.0830   -2.0960    0.0000 C.ar    1  LIG1        0.0031
     27 C           2.0880   -2.0960    0.0000 C.ar    1  LIG1        0.0372
     28 C           5.0130   -0.4000    0.0000 C.ar    1  LIG1        0.0372
     29 C           5.5210    0.4460    0.0000 C.ar    1  LIG1        0.0031
     30 C           5.0130    1.3130    0.0000 C.ar    1  LIG1       -0.0001
     31 C           4.0130    1.3130    0.0000 C.ar    1  LIG1       -0.0005
@<TRIPOS>BOND
     1     1     2    1
     2     1    19    1
     3     1    23    1
     4     2     3   am
     5     2    18    2
     6     3     4    1
     7     3     8    1
     8     4     5    1
     9     5     6    1
    10     6     7    1
    11     6     9    1
    12     7     8    1
    13     9    10    1
    14    10    11    2
    15    11    12    1
    16    12    13   ar
    17    12    17   ar
    18    13    14   ar
    19    14    15   ar
    20    15    16   ar
    21    16    17   ar
    22    19    20   ar
    23    19    31   ar
    24    20    21    1
    25    20    28   ar
    26    21    22    1
    27    22    23   ar
    28    22    27   ar
    29    23    24   ar
    30    24    25   ar
    31    25    26   ar
    32    26    27   ar
    33    28    29   ar
    34    29    30   ar
    35    30    31   ar
