@<TRIPOS>MOLECULE
28468_ChemDiv_2922-2844
 26 30 0 0 0
SMALL
GASTEIGER
Energy = 0

@<TRIPOS>ATOM
      1 N          -0.8040   -1.5330    0.0000 N.am    1  LIG1       -0.1998
      2 C          -1.3710   -0.7130    0.0000 C.2     1  LIG1        0.2604
      3 C          -2.3380   -1.0170    0.0000 C.ar    1  LIG1        0.0764
      4 C          -2.3500   -2.0170    0.0000 C.ar    1  LIG1        0.1397
      5 C          -1.4080   -2.3580    0.0000 C.2     1  LIG1        0.2766
      6 O          -1.1080   -3.3250    0.0000 O.2     1  LIG1       -0.2675
      7 N          -3.2420   -2.5040    0.0000 N.ar    1  LIG1       -0.2391
      8 C          -4.0960   -1.9750    0.0000 C.ar    1  LIG1        0.0990
      9 C          -4.0710   -1.0000    0.0000 C.ar    1  LIG1        0.0208
     10 C          -3.2000   -0.4830    0.0000 C.ar    1  LIG1        0.0078
     11 O          -1.0210    0.2290    0.0000 O.2     1  LIG1       -0.2691
     12 C           0.1790   -1.5330    0.0000 C.ar    1  LIG1        0.0614
     13 C           0.6960   -0.6630    0.0000 C.ar    1  LIG1        0.0200
     14 C           1.6710   -0.6630    0.0000 C.ar    1  LIG1        0.0548
     15 C           2.1420    0.2040    0.0000 C.ar    1  LIG1        0.2297
     16 N           1.7130    1.0670    0.0000 N.ar    1  LIG1       -0.2083
     17 C           2.3710    1.7790    0.0000 C.ar    1  LIG1        0.1189
     18 C           3.2920    1.3460    0.0000 C.ar    1  LIG1        0.1647
     19 O           3.1460    0.3540    0.0000 O.2     1  LIG1       -0.4346
     20 C           4.0920    1.9040    0.0000 C.ar    1  LIG1        0.0391
     21 C           4.0370    2.9080    0.0000 C.ar    1  LIG1        0.0032
     22 C           3.1330    3.3290    0.0000 C.ar    1  LIG1        0.0018
     23 C           2.3130    2.7750    0.0000 C.ar    1  LIG1        0.0223
     24 C           2.2000   -1.5330    0.0000 C.ar    1  LIG1        0.0047
     25 C           1.6830   -2.4040    0.0000 C.ar    1  LIG1        0.0014
     26 C           0.6960   -2.4040    0.0000 C.ar    1  LIG1        0.0153
@<TRIPOS>BOND
     1     1     2   am
     2     1     5   am
     3     1    12    1
     4     2     3    1
     5     2    11    2
     6     3     4   ar
     7     3    10   ar
     8     4     5    1
     9     4     7   ar
    10     5     6    2
    11     7     8   ar
    12     8     9   ar
    13     9    10   ar
    14    12    13   ar
    15    12    26   ar
    16    13    14   ar
    17    14    15    1
    18    14    24   ar
    19    15    16   ar
    20    15    19   ar
    21    16    17   ar
    22    17    18   ar
    23    17    23   ar
    24    18    19   ar
    25    18    20   ar
    26    20    21   ar
    27    21    22   ar
    28    22    23   ar
    29    24    25   ar
    30    25    26   ar
