@<TRIPOS>MOLECULE
28478_ChemDiv_5594-1188
 25 27 0 0 0
SMALL
GASTEIGER
Energy = 0

@<TRIPOS>ATOM
      1 C           2.8830   -1.6460    0.0000 C.2     1  LIG1        0.4494
      2 N           3.7960   -1.9710    0.0000 N.am    1  LIG1        0.0033
      3 C           4.3500   -1.1880    0.0000 C.2     1  LIG1        0.3583
      4 C           3.7960   -0.3710    0.0000 C.3     1  LIG1        0.2804
      5 N           2.8830   -0.6460    0.0000 N.2     1  LIG1       -0.0875
      6 C           4.0630    0.6040    0.0000 C.3     1  LIG1        0.0963
      7 C           3.4330    1.2880    0.0000 C.2     1  LIG1        0.0544
      8 O           2.4630    1.3750    0.0000 O.co2   1  LIG1       -0.5490
      9 O           3.7130    2.2040    0.0000 O.co2   1  LIG1       -0.5490
     10 O           5.3500   -1.1880    0.0000 O.2     1  LIG1       -0.2496
     11 N           2.0630   -2.1420    0.0000 N.pl3   1  LIG1        0.0021
     12 C           1.1960   -1.6830    0.0000 C.ar    1  LIG1        0.3198
     13 N           1.1960   -0.7330    0.0000 N.ar    1  LIG1       -0.2012
     14 C           0.3670   -0.2250    0.0000 C.ar    1  LIG1        0.0652
     15 C          -0.5130   -0.6830    0.0000 C.ar    1  LIG1        0.0345
     16 C          -0.5130   -1.6830    0.0000 C.ar    1  LIG1        0.0869
     17 N           0.3670   -2.2000    0.0000 N.ar    1  LIG1       -0.1969
     18 C          -1.3710   -2.2000    0.0000 C.ar    1  LIG1        0.0224
     19 C          -2.2000   -1.6830    0.0000 C.ar    1  LIG1        0.0384
     20 C          -2.2000   -0.7330    0.0000 C.ar    1  LIG1        0.1387
     21 C          -1.3710   -0.2250    0.0000 C.ar    1  LIG1        0.0396
     22 O          -3.2960   -0.5040    0.0000 O.3     1  LIG1       -0.4755
     23 C          -4.2130   -1.1880    0.0000 C.3     1  LIG1        0.2055
     24 C          -5.3540   -0.6460    0.0000 C.3     1  LIG1        0.0512
     25 C           0.4040    0.7750    0.0000 C.3     1  LIG1        0.0523
@<TRIPOS>BOND
     1     1     2    1
     2     1     5    2
     3     1    11    1
     4     2     3   am
     5     3     4    1
     6     3    10    2
     7     4     5    1
     8     4     6    1
     9     6     7    1
    10     7     8   ar
    11     7     9   ar
    12    11    12    1
    13    12    13   ar
    14    12    17   ar
    15    13    14   ar
    16    14    15   ar
    17    14    25    1
    18    15    16   ar
    19    15    21   ar
    20    16    17   ar
    21    16    18   ar
    22    18    19   ar
    23    19    20   ar
    24    20    21   ar
    25    20    22    1
    26    22    23    1
    27    23    24    1
