@<TRIPOS>MOLECULE
28472_ChemDiv_2932-1209
 23 25 0 0 0
SMALL
GASTEIGER
Energy = 0

@<TRIPOS>ATOM
      1 C           1.8210   -1.6710    0.0000 C.2     1  LIG1        0.4494
      2 N           2.7580   -1.9960    0.0000 N.am    1  LIG1        0.0033
      3 C           3.3290   -1.1960    0.0000 C.2     1  LIG1        0.3583
      4 C           2.7580   -0.3540    0.0000 C.3     1  LIG1        0.2804
      5 N           1.8210   -0.6830    0.0000 N.2     1  LIG1       -0.0875
      6 C           3.0670    0.5920    0.0000 C.3     1  LIG1        0.0963
      7 C           2.3920    1.2960    0.0000 C.2     1  LIG1        0.0544
      8 O           1.4250    1.3920    0.0000 O.co2   1  LIG1       -0.5490
      9 O           2.7210    2.2330    0.0000 O.co2   1  LIG1       -0.5490
     10 O           4.3630   -1.1960    0.0000 O.2     1  LIG1       -0.2496
     11 N           0.9830   -2.2080    0.0000 N.pl3   1  LIG1        0.0021
     12 C           0.1290   -1.7380    0.0000 C.ar    1  LIG1        0.3198
     13 N           0.1290   -0.7330    0.0000 N.ar    1  LIG1       -0.2012
     14 C          -0.7540   -0.2080    0.0000 C.ar    1  LIG1        0.0651
     15 C          -1.6080   -0.6830    0.0000 C.ar    1  LIG1        0.0312
     16 C          -1.6080   -1.7380    0.0000 C.ar    1  LIG1        0.0867
     17 N          -0.7540   -2.2290    0.0000 N.ar    1  LIG1       -0.1969
     18 C          -2.4920   -2.2290    0.0000 C.ar    1  LIG1        0.0190
     19 C          -3.3460   -1.7380    0.0000 C.ar    1  LIG1       -0.0027
     20 C          -3.3460   -0.7330    0.0000 C.ar    1  LIG1       -0.0217
     21 C          -2.4920   -0.2080    0.0000 C.ar    1  LIG1       -0.0016
     22 C          -4.3670   -0.5880    0.0000 C.3     1  LIG1        0.0310
     23 C          -0.6920    0.7710    0.0000 C.3     1  LIG1        0.0523
@<TRIPOS>BOND
     1     1     2    1
     2     1     5    2
     3     1    11    1
     4     2     3   am
     5     3     4    1
     6     3    10    2
     7     4     5    1
     8     4     6    1
     9     6     7    1
    10     7     8   ar
    11     7     9   ar
    12    11    12    1
    13    12    13   ar
    14    12    17   ar
    15    13    14   ar
    16    14    15   ar
    17    14    23    1
    18    15    16   ar
    19    15    21   ar
    20    16    17   ar
    21    16    18   ar
    22    18    19   ar
    23    19    20   ar
    24    20    21   ar
    25    20    22    1
