@<TRIPOS>MOLECULE
28476_ChemDiv_4181-3292
 27 30 0 0 0
SMALL
GASTEIGER
Energy = 0

@<TRIPOS>ATOM
      1 C           0.9210   -0.3210    0.0000 C.2     1  LIG1        0.4491
      2 N           0.0580   -0.8210    0.0000 N.am    1  LIG1       -0.0001
      3 C           0.0580   -1.7960    0.0000 C.2     1  LIG1        0.3225
      4 C           0.9210   -2.3000    0.0000 C.3     1  LIG1        0.1540
      5 C           1.8000   -1.7960    0.0000 C.3     1  LIG1        0.2135
      6 N           1.8000   -0.7830    0.0000 N.2     1  LIG1       -0.0941
      7 C           2.6670   -2.3000    0.0000 C.ar    1  LIG1        0.0175
      8 C           3.5460   -1.8130    0.0000 C.ar    1  LIG1       -0.0009
      9 C           4.4380   -2.3130    0.0000 C.ar    1  LIG1       -0.0002
     10 C           4.4170   -3.3040    0.0000 C.ar    1  LIG1       -0.0000
     11 C           3.5580   -3.8000    0.0000 C.ar    1  LIG1       -0.0002
     12 C           2.6670   -3.2830    0.0000 C.ar    1  LIG1       -0.0009
     13 O          -0.6580   -2.1960    0.0000 O.2     1  LIG1       -0.2533
     14 N           0.9790    0.6790    0.0000 N.pl3   1  LIG1        0.0021
     15 C           0.1080    1.2830    0.0000 C.ar    1  LIG1        0.3198
     16 N          -0.7710    0.7880    0.0000 N.ar    1  LIG1       -0.1972
     17 C          -1.6420    1.2830    0.0000 C.ar    1  LIG1        0.0827
     18 C          -1.6420    2.2880    0.0000 C.ar    1  LIG1        0.0309
     19 C          -0.7710    2.7920    0.0000 C.ar    1  LIG1        0.0651
     20 N           0.1080    2.3330    0.0000 N.ar    1  LIG1       -0.2012
     21 C          -0.7710    3.8040    0.0000 C.3     1  LIG1        0.0523
     22 C          -2.5210    2.7920    0.0000 C.ar    1  LIG1       -0.0016
     23 C          -3.3790    2.3330    0.0000 C.ar    1  LIG1       -0.0220
     24 C          -3.3790    1.2830    0.0000 C.ar    1  LIG1       -0.0070
     25 C          -2.5210    0.7880    0.0000 C.ar    1  LIG1       -0.0043
     26 C          -2.5210   -0.1330    0.0000 C.3     1  LIG1        0.0326
     27 C          -4.4420    2.4500    0.0000 C.3     1  LIG1        0.0310
@<TRIPOS>BOND
     1     1     2    1
     2     1     6    2
     3     1    14    1
     4     2     3   am
     5     3     4    1
     6     3    13    2
     7     4     5    1
     8     5     6    1
     9     5     7    1
    10     7     8   ar
    11     7    12   ar
    12     8     9   ar
    13     9    10   ar
    14    10    11   ar
    15    11    12   ar
    16    14    15    1
    17    15    16   ar
    18    15    20   ar
    19    16    17   ar
    20    17    18   ar
    21    17    25   ar
    22    18    19   ar
    23    18    22   ar
    24    19    20   ar
    25    19    21    1
    26    22    23   ar
    27    23    24   ar
    28    23    27    1
    29    24    25   ar
    30    25    26    1
