@<TRIPOS>MOLECULE
28470_ChemDiv_2932-0486
 23 25 0 0 0
SMALL
GASTEIGER
Energy = 0

@<TRIPOS>ATOM
      1 C          -0.7330   -0.3920    0.0000 C.ar    1  LIG1        0.4569
      2 N          -0.8290    0.5920    0.0000 N.ar    1  LIG1       -0.1957
      3 C          -0.0790    1.2210    0.0000 C.ar    1  LIG1        0.0748
      4 C          -0.2210    2.1880    0.0000 C.ar    1  LIG1        0.0301
      5 C           0.5290    2.8290    0.0000 C.ar    1  LIG1        0.0696
      6 C           1.4790    2.4830    0.0000 C.ar    1  LIG1        0.0683
      7 C           1.6330    1.4790    0.0000 C.ar    1  LIG1        0.0137
      8 C           0.8540    0.8710    0.0000 C.ar    1  LIG1        0.0188
      9 CL          2.4460    3.1710    0.0000 Cl      1  LIG1       -0.0814
     10 CL          0.4580    3.8710    0.0000 Cl      1  LIG1       -0.0813
     11 C          -1.8330    0.8330    0.0000 C.ar    1  LIG1        0.3474
     12 C          -2.3330   -0.0500    0.0000 C.ar    1  LIG1        0.4300
     13 N          -1.6880   -0.7500    0.0000 N.ar    1  LIG1        0.1272
     14 O          -2.4500    1.4540    0.0000 O.3     1  LIG1       -0.2594
     15 N           0.1000   -0.8580    0.0000 N.pl3   1  LIG1       -0.0937
     16 C           0.1000   -1.8500    0.0000 C.ar    1  LIG1        0.2463
     17 N           0.9580   -2.3630    0.0000 N.ar    1  LIG1       -0.2164
     18 C           0.9580   -3.3540    0.0000 C.ar    1  LIG1        0.0635
     19 C           0.1000   -3.8670    0.0000 C.ar    1  LIG1        0.0296
     20 C          -0.7580   -3.3540    0.0000 C.ar    1  LIG1        0.0635
     21 N          -0.7580   -2.3630    0.0000 N.ar    1  LIG1       -0.2164
     22 C          -1.6170   -3.8670    0.0000 C.3     1  LIG1        0.0522
     23 C           1.8210   -3.8670    0.0000 C.3     1  LIG1        0.0522
@<TRIPOS>BOND
     1     1     2   ar
     2     1    13   ar
     3     1    15    1
     4     2     3    1
     5     2    11   ar
     6     3     4   ar
     7     3     8   ar
     8     4     5   ar
     9     5     6   ar
    10     5    10    1
    11     6     7   ar
    12     6     9    1
    13     7     8   ar
    14    11    12   ar
    15    11    14    1
    16    12    13   ar
    17    15    16    1
    18    16    17   ar
    19    16    21   ar
    20    17    18   ar
    21    18    19   ar
    22    18    23    1
    23    19    20   ar
    24    20    21   ar
    25    20    22    1
