@<TRIPOS>MOLECULE
28474_ChemDiv_4151-0057
 30 33 0 0 0
SMALL
GASTEIGER
Energy = 0

@<TRIPOS>ATOM
      1 C          -0.8540    0.3080    0.0000 C.2     1  LIG1        0.4493
      2 N          -0.8130    1.3080    0.0000 N.am    1  LIG1       -0.0001
      3 C           0.0460    1.7830    0.0000 C.2     1  LIG1        0.3227
      4 C           0.9080    1.2580    0.0000 C.3     1  LIG1        0.1591
      5 C           0.8500    0.2710    0.0000 C.3     1  LIG1        0.2682
      6 N           0.0080   -0.2040    0.0000 N.2     1  LIG1       -0.0891
      7 C           1.7580   -0.3130    0.0000 C.2     1  LIG1        0.2861
      8 N           2.6210    0.1580    0.0000 N.am    1  LIG1       -0.1762
      9 C           3.4630   -0.3540    0.0000 C.ar    1  LIG1        0.0743
     10 C           3.4210   -1.3540    0.0000 C.ar    1  LIG1        0.0277
     11 C           4.2830   -1.8670    0.0000 C.ar    1  LIG1        0.0550
     12 C           5.1210   -1.3540    0.0000 C.ar    1  LIG1       -0.0112
     13 C           5.1830   -0.3540    0.0000 C.ar    1  LIG1       -0.0021
     14 C           4.3210    0.1580    0.0000 C.ar    1  LIG1        0.0163
     15 C           6.0330   -1.9250    0.0000 C.3     1  LIG1        0.0319
     16 CL          4.2830   -2.8750    0.0000 Cl      1  LIG1       -0.0825
     17 O           1.7080   -1.3040    0.0000 O.2     1  LIG1       -0.2692
     18 O           0.0460    2.7710    0.0000 O.2     1  LIG1       -0.2533
     19 N          -1.7630   -0.1670    0.0000 N.pl3   1  LIG1        0.0021
     20 C          -2.6040    0.3580    0.0000 C.ar    1  LIG1        0.3198
     21 N          -2.6040    1.3460    0.0000 N.ar    1  LIG1       -0.2012
     22 C          -3.4630    1.8710    0.0000 C.ar    1  LIG1        0.0651
     23 C          -4.3170    1.3460    0.0000 C.ar    1  LIG1        0.0315
     24 C          -4.3170    0.3580    0.0000 C.ar    1  LIG1        0.0867
     25 N          -3.4630   -0.1170    0.0000 N.ar    1  LIG1       -0.1969
     26 C          -5.1750   -0.1170    0.0000 C.ar    1  LIG1        0.0193
     27 C          -6.0330    0.3580    0.0000 C.ar    1  LIG1        0.0015
     28 C          -6.0330    1.3460    0.0000 C.ar    1  LIG1        0.0001
     29 C          -5.1750    1.8710    0.0000 C.ar    1  LIG1        0.0027
     30 C          -3.4630    2.8790    0.0000 C.3     1  LIG1        0.0523
@<TRIPOS>BOND
     1     1     2    1
     2     1     6    2
     3     1    19    1
     4     2     3   am
     5     3     4    1
     6     3    18    2
     7     4     5    1
     8     5     6    1
     9     5     7    1
    10     7     8   am
    11     7    17    2
    12     8     9    1
    13     9    10   ar
    14     9    14   ar
    15    10    11   ar
    16    11    12   ar
    17    11    16    1
    18    12    13   ar
    19    12    15    1
    20    13    14   ar
    21    19    20    1
    22    20    21   ar
    23    20    25   ar
    24    21    22   ar
    25    22    23   ar
    26    22    30    1
    27    23    24   ar
    28    23    29   ar
    29    24    25   ar
    30    24    26   ar
    31    26    27   ar
    32    27    28   ar
    33    28    29   ar
