@<TRIPOS>MOLECULE
28477_ChemDiv_5731-0176
 30 34 0 0 0
SMALL
GASTEIGER
Energy = 0

@<TRIPOS>ATOM
      1 C          -0.9500   -0.3630    0.0000 C.ar    1  LIG1        0.0517
      2 C           0.0170   -0.6000    0.0000 C.ar    1  LIG1        0.2641
      3 N           0.7210    0.1250    0.0000 N.ar    1  LIG1       -0.2463
      4 C           0.4330    1.0960    0.0000 C.ar    1  LIG1        0.2238
      5 N          -0.5670    1.3330    0.0000 N.ar    1  LIG1       -0.2137
      6 C          -1.2420    0.5920    0.0000 C.ar    1  LIG1        0.0844
      7 C          -2.2080    0.8170    0.0000 C.ar    1  LIG1        0.0136
      8 C          -2.9000    0.0790    0.0000 C.ar    1  LIG1       -0.0204
      9 C          -2.6130   -0.8630    0.0000 C.3     1  LIG1        0.0306
     10 C          -1.6290   -1.0920    0.0000 C.3     1  LIG1        0.0289
     11 C          -0.7080   -1.4540    0.0000 C.3     1  LIG1        0.0046
     12 C          -0.7710   -2.4540    0.0000 C.3     1  LIG1        0.0003
     13 C          -1.7250   -2.7080    0.0000 C.3     1  LIG1        0.0003
     14 C          -2.2670   -1.8750    0.0000 C.3     1  LIG1        0.0046
     15 C          -3.8710    0.3040    0.0000 C.ar    1  LIG1       -0.0042
     16 C          -4.1670    1.2580    0.0000 C.ar    1  LIG1       -0.0003
     17 C          -3.4830    2.0000    0.0000 C.ar    1  LIG1        0.0000
     18 C          -2.5130    1.7790    0.0000 C.ar    1  LIG1        0.0012
     19 N           1.2670    1.6380    0.0000 N.pl3   1  LIG1       -0.2021
     20 C           2.1540    1.1710    0.0000 C.3     1  LIG1        0.1508
     21 C           3.0040    1.7170    0.0000 C.3     1  LIG1        0.2054
     22 O           2.9880    2.7130    0.0000 O.3     1  LIG1       -0.2184
     23 C           1.5830   -0.3580    0.0000 C.ar    1  LIG1        0.0694
     24 C           1.5710   -1.3630    0.0000 C.ar    1  LIG1        0.0174
     25 C           2.4330   -1.8580    0.0000 C.ar    1  LIG1       -0.0028
     26 C           3.3080   -1.3630    0.0000 C.ar    1  LIG1       -0.0218
     27 C           3.3080   -0.3580    0.0000 C.ar    1  LIG1       -0.0028
     28 C           2.4420    0.1250    0.0000 C.ar    1  LIG1        0.0174
     29 C           4.1630   -1.8580    0.0000 C.3     1  LIG1        0.0310
     30 O           0.3130   -1.5580    0.0000 O.2     1  LIG1       -0.2668
@<TRIPOS>BOND
     1     1     2   ar
     2     1     6   ar
     3     1    10    1
     4     2     3   ar
     5     2    30    2
     6     3     4   ar
     7     3    23    1
     8     4     5   ar
     9     4    19    1
    10     5     6   ar
    11     6     7    1
    12     7     8   ar
    13     7    18   ar
    14     8     9    1
    15     8    15   ar
    16     9    10    1
    17    10    11    1
    18    10    14    1
    19    11    12    1
    20    12    13    1
    21    13    14    1
    22    15    16   ar
    23    16    17   ar
    24    17    18   ar
    25    19    20    1
    26    20    21    1
    27    21    22    1
    28    23    24   ar
    29    23    28   ar
    30    24    25   ar
    31    25    26   ar
    32    26    27   ar
    33    26    29    1
    34    27    28   ar
