@<TRIPOS>MOLECULE
28479_ChemDiv_6500-0107
 28 31 0 0 0
SMALL
GASTEIGER
Energy = 0

@<TRIPOS>ATOM
      1 C          -1.3170   -0.4790    0.0000 C.ar    1  LIG1        0.0517
      2 C          -0.4500   -0.9880    0.0000 C.ar    1  LIG1        0.2641
      3 N           0.4380   -0.4880    0.0000 N.ar    1  LIG1       -0.2463
      4 C           0.4380    0.5210    0.0000 C.ar    1  LIG1        0.2238
      5 N          -0.4290    1.0330    0.0000 N.ar    1  LIG1       -0.2137
      6 C          -1.3040    0.5330    0.0000 C.ar    1  LIG1        0.0844
      7 C          -2.1710    1.0330    0.0000 C.ar    1  LIG1        0.0136
      8 C          -3.0380    0.5380    0.0000 C.ar    1  LIG1       -0.0204
      9 C          -3.0460   -0.4580    0.0000 C.3     1  LIG1        0.0306
     10 C          -2.1830   -0.9670    0.0000 C.3     1  LIG1        0.0289
     11 C          -2.8920   -1.6710    0.0000 C.3     1  LIG1        0.0046
     12 C          -2.3960   -2.5330    0.0000 C.3     1  LIG1        0.0003
     13 C          -1.4790   -1.6710    0.0000 C.3     1  LIG1        0.0049
     14 C          -3.9000    1.0330    0.0000 C.ar    1  LIG1       -0.0042
     15 C          -3.9000    2.0380    0.0000 C.ar    1  LIG1       -0.0003
     16 C          -3.0380    2.5380    0.0000 C.ar    1  LIG1        0.0000
     17 C          -2.1710    2.0380    0.0000 C.ar    1  LIG1        0.0012
     18 N           1.3080    1.0080    0.0000 N.pl3   1  LIG1       -0.2021
     19 C           2.1670    0.5040    0.0000 C.3     1  LIG1        0.1508
     20 C           3.0330    0.9960    0.0000 C.3     1  LIG1        0.2054
     21 O           3.8960    0.4880    0.0000 O.3     1  LIG1       -0.2184
     22 C           1.2920   -0.9960    0.0000 C.ar    1  LIG1        0.0694
     23 C           1.2790   -1.9920    0.0000 C.ar    1  LIG1        0.0177
     24 C           2.1380   -2.5000    0.0000 C.ar    1  LIG1        0.0015
     25 C           3.0080   -2.0130    0.0000 C.ar    1  LIG1        0.0001
     26 C           3.0080   -1.0080    0.0000 C.ar    1  LIG1        0.0015
     27 C           2.1540   -0.5040    0.0000 C.ar    1  LIG1        0.0177
     28 O          -0.4580   -1.9830    0.0000 O.2     1  LIG1       -0.2668
@<TRIPOS>BOND
     1     1     2   ar
     2     1     6   ar
     3     1    10    1
     4     2     3   ar
     5     2    28    2
     6     3     4   ar
     7     3    22    1
     8     4     5   ar
     9     4    18    1
    10     5     6   ar
    11     6     7    1
    12     7     8   ar
    13     7    17   ar
    14     8     9    1
    15     8    14   ar
    16     9    10    1
    17    10    11    1
    18    10    13    1
    19    11    12    1
    20    14    15   ar
    21    15    16   ar
    22    16    17   ar
    23    18    19    1
    24    19    20    1
    25    20    21    1
    26    22    23   ar
    27    22    27   ar
    28    23    24   ar
    29    24    25   ar
    30    25    26   ar
    31    26    27   ar
