@<TRIPOS>MOLECULE
28488_ChemDiv_5556-0467
 26 29 0 0 0
SMALL
GASTEIGER
Energy = 0

@<TRIPOS>ATOM
      1 C          -0.8710   -0.5040    0.0000 C.2     1  LIG1        0.3251
      2 C          -0.8710    0.5000    0.0000 C.3     1  LIG1        0.1493
      3 C           0.0040    0.9920    0.0000 C.ar    1  LIG1        0.0268
      4 C           0.0040    1.9960    0.0000 C.ar    1  LIG1        0.1421
      5 O          -0.8710    2.5040    0.0000 O.3     1  LIG1       -0.4541
      6 C          -1.7380    1.9960    0.0000 C.ar    1  LIG1        0.1421
      7 C          -1.7380    0.9920    0.0000 C.ar    1  LIG1        0.0268
      8 C          -2.6000    0.5000    0.0000 C.ar    1  LIG1       -0.0004
      9 C          -3.4540    0.9920    0.0000 C.ar    1  LIG1       -0.0001
     10 C          -3.4540    1.9960    0.0000 C.ar    1  LIG1        0.0031
     11 C          -2.6000    2.4960    0.0000 C.ar    1  LIG1        0.0372
     12 C           0.8710    2.5040    0.0000 C.ar    1  LIG1        0.0372
     13 C           1.7330    2.0130    0.0000 C.ar    1  LIG1        0.0031
     14 C           1.7460    0.9920    0.0000 C.ar    1  LIG1       -0.0001
     15 C           0.8710    0.5000    0.0000 C.ar    1  LIG1       -0.0004
     16 O          -0.0080   -1.0040    0.0000 O.3     1  LIG1       -0.4456
     17 C          -0.0080   -2.0000    0.0000 C.3     1  LIG1        0.2251
     18 C           0.8670   -2.5000    0.0000 C.3     1  LIG1        0.1827
     19 N           1.7170   -2.0000    0.0000 N.4     1  LIG1        0.3801
     20 C           2.5960   -2.5000    0.0000 C.3     1  LIG1        0.1387
     21 C           3.4500   -2.0000    0.0000 C.3     1  LIG1        0.0629
     22 C           3.4500   -1.0130    0.0000 C.3     1  LIG1        0.0123
     23 C           2.5960   -0.5040    0.0000 C.3     1  LIG1        0.0629
     24 C           1.7170   -1.0040    0.0000 C.3     1  LIG1        0.1387
     25 C          -0.8710   -2.5000    0.0000 C.3     1  LIG1        0.0539
     26 O          -1.7380   -1.0040    0.0000 O.2     1  LIG1       -0.2494
@<TRIPOS>BOND
     1     1     2    1
     2     1    16    1
     3     1    26    2
     4     2     3    1
     5     2     7    1
     6     3     4   ar
     7     3    15   ar
     8     4     5    1
     9     4    12   ar
    10     5     6    1
    11     6     7   ar
    12     6    11   ar
    13     7     8   ar
    14     8     9   ar
    15     9    10   ar
    16    10    11   ar
    17    12    13   ar
    18    13    14   ar
    19    14    15   ar
    20    16    17    1
    21    17    18    1
    22    17    25    1
    23    18    19    1
    24    19    20    1
    25    19    24    1
    26    20    21    1
    27    21    22    1
    28    22    23    1
    29    23    24    1
