@<TRIPOS>MOLECULE
28480_ChemDiv_6882-0081
 25 27 0 0 0
SMALL
GASTEIGER
Energy = 0

@<TRIPOS>ATOM
      1 C          -0.8580   -1.2420    0.0000 C.ar    1  LIG1        0.3198
      2 N           0.0130   -1.7420    0.0000 N.pl3   1  LIG1        0.0020
      3 C           0.8710   -1.2380    0.0000 C.cat   1  LIG1        0.4518
      4 N           0.8670   -0.2460    0.0000 N.2     1  LIG1       -0.0343
      5 C           1.7290    0.2580    0.0000 C.3     1  LIG1        0.3718
      6 N           2.6000   -0.2420    0.0000 N.4     1  LIG1        0.4424
      7 C           2.6000   -1.2380    0.0000 C.3     1  LIG1        0.3597
      8 N           1.7380   -1.7380    0.0000 N.pl3   1  LIG1       -0.0023
      9 C           3.4500    0.2540    0.0000 C.3     1  LIG1        0.1513
     10 C           4.3210   -0.2460    0.0000 C.3     1  LIG1        0.0950
     11 C           5.1830    0.2540    0.0000 C.3     1  LIG1        0.1484
     12 O           5.1920    1.2540    0.0000 O.3     1  LIG1       -0.3509
     13 C           4.3210    1.7460    0.0000 C.3     1  LIG1        0.1741
     14 N          -0.8580   -0.2330    0.0000 N.ar    1  LIG1       -0.2012
     15 C          -1.7330    0.2670    0.0000 C.ar    1  LIG1        0.0651
     16 C          -2.5960   -0.2420    0.0000 C.ar    1  LIG1        0.0312
     17 C          -2.5960   -1.2420    0.0000 C.ar    1  LIG1        0.0867
     18 N          -1.7330   -1.7420    0.0000 N.ar    1  LIG1       -0.1969
     19 C          -3.4540   -1.7420    0.0000 C.ar    1  LIG1        0.0190
     20 C          -4.3210   -1.2420    0.0000 C.ar    1  LIG1       -0.0027
     21 C          -4.3210   -0.2420    0.0000 C.ar    1  LIG1       -0.0221
     22 C          -3.4540    0.2670    0.0000 C.ar    1  LIG1       -0.0016
     23 C          -5.1960    0.2580    0.0000 C.3     1  LIG1        0.0264
     24 C          -5.1960    1.2540    0.0000 C.3     1  LIG1        0.0050
     25 C          -1.7330    1.2710    0.0000 C.3     1  LIG1        0.0523
@<TRIPOS>BOND
     1     1     2    1
     2     1    14   ar
     3     1    18   ar
     4     2     3    1
     5     3     4    2
     6     3     8    1
     7     4     5    1
     8     5     6    1
     9     6     7    1
    10     6     9    1
    11     7     8    1
    12     9    10    1
    13    10    11    1
    14    11    12    1
    15    12    13    1
    16    14    15   ar
    17    15    16   ar
    18    15    25    1
    19    16    17   ar
    20    16    22   ar
    21    17    18   ar
    22    17    19   ar
    23    19    20   ar
    24    20    21   ar
    25    21    22   ar
    26    21    23    1
    27    23    24    1
