@<TRIPOS>MOLECULE
28489_ChemDiv_2740-0156
 30 32 0 0 0
SMALL
GASTEIGER
Energy = 0

@<TRIPOS>ATOM
      1 N          -1.5330    0.3580    0.0000 N.am    1  LIG1       -0.2031
      2 C          -1.5330    1.2250    0.0000 C.2     1  LIG1        0.2419
      3 C          -0.0460    1.2250    0.0000 C.3     1  LIG1        0.1581
      4 C          -0.0460    0.3580    0.0000 C.3     1  LIG1        0.2305
      5 C          -0.8250   -0.0880    0.0000 C.2     1  LIG1        0.2927
      6 O          -0.8250   -1.1170    0.0000 O.2     1  LIG1       -0.2677
      7 N           0.7630   -0.0880    0.0000 N.4     1  LIG1        0.4512
      8 C           1.5330    0.3460    0.0000 C.3     1  LIG1        0.2058
      9 C           2.3960   -0.1500    0.0000 C.3     1  LIG1        0.0952
     10 C           3.2710    0.3250    0.0000 C.ar    1  LIG1       -0.0160
     11 C           4.1250   -0.1790    0.0000 C.ar    1  LIG1       -0.0027
     12 C           5.0170    0.3250    0.0000 C.ar    1  LIG1        0.0197
     13 C           5.0170    1.3460    0.0000 C.ar    1  LIG1        0.1250
     14 S           5.8670    1.8580    0.0000 S.O2    1  LIG1        0.0935
     15 O           5.3580    2.7170    0.0000 O.2     1  LIG1       -0.1503
     16 O           6.3790    0.9830    0.0000 O.2     1  LIG1       -0.1503
     17 N           6.7130    2.3500    0.0000 N.3     1  LIG1        0.0392
     18 C           4.1250    1.8250    0.0000 C.ar    1  LIG1        0.0197
     19 C           3.2710    1.3460    0.0000 C.ar    1  LIG1       -0.0027
     20 O          -2.4040    1.7290    0.0000 O.2     1  LIG1       -0.2739
     21 C          -2.4040   -0.1000    0.0000 C.ar    1  LIG1        0.0608
     22 C          -3.3130    0.3960    0.0000 C.ar    1  LIG1        0.0155
     23 C          -4.1880   -0.1000    0.0000 C.ar    1  LIG1        0.0077
     24 C          -4.1880   -1.1710    0.0000 C.ar    1  LIG1        0.0757
     25 C          -5.0170   -1.6920    0.0000 C.2     1  LIG1        0.3413
     26 O          -5.0170   -2.7130    0.0000 O.2     1  LIG1       -0.2449
     27 O          -5.8670   -1.1830    0.0000 O.3     1  LIG1       -0.4413
     28 C          -6.7130   -1.6920    0.0000 C.3     1  LIG1        0.2560
     29 C          -3.3130   -1.6500    0.0000 C.ar    1  LIG1        0.0077
     30 C          -2.4040   -1.1710    0.0000 C.ar    1  LIG1        0.0155
@<TRIPOS>BOND
     1     1     2   am
     2     1     5   am
     3     1    21    1
     4     2     3    1
     5     2    20    2
     6     3     4    1
     7     4     5    1
     8     4     7    1
     9     5     6    2
    10     7     8    1
    11     8     9    1
    12     9    10    1
    13    10    11   ar
    14    10    19   ar
    15    11    12   ar
    16    12    13   ar
    17    13    14    1
    18    13    18   ar
    19    14    15    2
    20    14    16    2
    21    14    17    1
    22    18    19   ar
    23    21    22   ar
    24    21    30   ar
    25    22    23   ar
    26    23    24   ar
    27    24    25    1
    28    24    29   ar
    29    25    26    2
    30    25    27    1
    31    27    28    1
    32    29    30   ar
