@<TRIPOS>MOLECULE
28482_ChemDiv_4100-3900
 26 29 0 0 0
SMALL
GASTEIGER
Energy = 0

@<TRIPOS>ATOM
      1 C          -1.1540   -0.7210    0.0000 C.3     1  LIG1        0.1269
      2 C          -0.1880   -0.9500    0.0000 C.2     1  LIG1        0.2336
      3 N           0.5130   -0.2210    0.0000 N.am    1  LIG1       -0.2790
      4 C           1.4790   -0.4630    0.0000 C.3     1  LIG1        0.0940
      5 C           2.1580    0.2670    0.0000 C.3     1  LIG1        0.0326
      6 C           1.8790    1.2040    0.0000 C.3     1  LIG1        0.1025
      7 C           2.5540    1.9540    0.0000 C.2     1  LIG1        0.3167
      8 O           3.5330    1.7210    0.0000 O.2     1  LIG1       -0.2501
      9 O           2.2500    2.8960    0.0000 O.3     1  LIG1       -0.4444
     10 C           1.2880    3.1210    0.0000 C.3     1  LIG1        0.2556
     11 C           0.9210    1.4460    0.0000 C.3     1  LIG1        0.0326
     12 C           0.2210    0.7250    0.0000 C.3     1  LIG1        0.0940
     13 O           0.1040   -1.9040    0.0000 O.2     1  LIG1       -0.2742
     14 C          -1.8630   -1.4460    0.0000 C.ar    1  LIG1        0.0249
     15 C          -2.8250   -1.1790    0.0000 C.ar    1  LIG1        0.1420
     16 O          -3.1040   -0.2170    0.0000 O.3     1  LIG1       -0.4541
     17 C          -2.3920    0.4960    0.0000 C.ar    1  LIG1        0.1420
     18 C          -1.4170    0.2380    0.0000 C.ar    1  LIG1        0.0249
     19 C          -0.7210    0.9670    0.0000 C.ar    1  LIG1       -0.0005
     20 C          -0.9750    1.9250    0.0000 C.ar    1  LIG1       -0.0001
     21 C          -1.9540    2.1670    0.0000 C.ar    1  LIG1        0.0031
     22 C          -2.6630    1.4540    0.0000 C.ar    1  LIG1        0.0372
     23 C          -3.5380   -1.9040    0.0000 C.ar    1  LIG1        0.0372
     24 C          -3.2790   -2.8670    0.0000 C.ar    1  LIG1        0.0031
     25 C          -2.3040   -3.1170    0.0000 C.ar    1  LIG1       -0.0001
     26 C          -1.5960   -2.4040    0.0000 C.ar    1  LIG1       -0.0005
@<TRIPOS>BOND
     1     1     2    1
     2     1    14    1
     3     1    18    1
     4     2     3   am
     5     2    13    2
     6     3     4    1
     7     3    12    1
     8     4     5    1
     9     5     6    1
    10     6     7    1
    11     6    11    1
    12     7     8    2
    13     7     9    1
    14     9    10    1
    15    11    12    1
    16    14    15   ar
    17    14    26   ar
    18    15    16    1
    19    15    23   ar
    20    16    17    1
    21    17    18   ar
    22    17    22   ar
    23    18    19   ar
    24    19    20   ar
    25    20    21   ar
    26    21    22   ar
    27    23    24   ar
    28    24    25   ar
    29    25    26   ar
