@<TRIPOS>MOLECULE
28484_ChemDiv_4506-0484
 22 24 0 0 0
SMALL
GASTEIGER
Energy = 0

@<TRIPOS>ATOM
      1 C           0.3210    0.5130    0.0000 C.2     1  LIG1        0.2493
      2 C           1.2920    0.2630    0.0000 C.3     1  LIG1        0.1284
      3 C           1.5580   -0.7080    0.0000 C.ar    1  LIG1        0.0250
      4 C           2.5210   -0.9580    0.0000 C.ar    1  LIG1        0.1420
      5 O           3.2290   -0.2580    0.0000 O.3     1  LIG1       -0.4541
      6 C           2.9630    0.7040    0.0000 C.ar    1  LIG1        0.1420
      7 C           1.9960    0.9790    0.0000 C.ar    1  LIG1        0.0250
      8 C           1.7420    1.9500    0.0000 C.ar    1  LIG1       -0.0005
      9 C           2.4630    2.6420    0.0000 C.ar    1  LIG1       -0.0001
     10 C           3.4460    2.3630    0.0000 C.ar    1  LIG1        0.0031
     11 C           3.6830    1.4040    0.0000 C.ar    1  LIG1        0.0372
     12 C           2.7960   -1.9290    0.0000 C.ar    1  LIG1        0.0372
     13 C           2.0880   -2.6380    0.0000 C.ar    1  LIG1        0.0031
     14 C           1.1210   -2.3710    0.0000 C.ar    1  LIG1       -0.0001
     15 C           0.8540   -1.4130    0.0000 C.ar    1  LIG1       -0.0005
     16 N          -0.3830   -0.2040    0.0000 N.am    1  LIG1       -0.2066
     17 C          -1.3380    0.0500    0.0000 C.3     1  LIG1        0.0954
     18 C          -2.0330   -0.6670    0.0000 C.3     1  LIG1        0.0217
     19 C          -2.9960   -0.4290    0.0000 C.3     1  LIG1        0.0018
     20 C          -3.6880   -1.1580    0.0000 C.3     1  LIG1        0.0001
     21 C          -1.6040    1.0040    0.0000 C.3     1  LIG1        0.0234
     22 O           0.0540    1.4710    0.0000 O.2     1  LIG1       -0.2726
@<TRIPOS>BOND
     1     1     2    1
     2     1    16   am
     3     1    22    2
     4     2     3    1
     5     2     7    1
     6     3     4   ar
     7     3    15   ar
     8     4     5    1
     9     4    12   ar
    10     5     6    1
    11     6     7   ar
    12     6    11   ar
    13     7     8   ar
    14     8     9   ar
    15     9    10   ar
    16    10    11   ar
    17    12    13   ar
    18    13    14   ar
    19    14    15   ar
    20    16    17    1
    21    17    18    1
    22    17    21    1
    23    18    19    1
    24    19    20    1
