@<TRIPOS>MOLECULE
28486_ChemDiv_4606-1877
 25 27 0 0 0
SMALL
GASTEIGER
Energy = 0

@<TRIPOS>ATOM
      1 C          -2.6790    0.5790    0.0000 C.3     1  LIG1        0.1284
      2 C          -3.4000   -0.0920    0.0000 C.ar    1  LIG1        0.0250
      3 C          -4.3540    0.2080    0.0000 C.ar    1  LIG1        0.1420
      4 O          -4.5580    1.1630    0.0000 O.3     1  LIG1       -0.4541
      5 C          -3.8040    1.8330    0.0000 C.ar    1  LIG1        0.1420
      6 C          -2.8960    1.5380    0.0000 C.ar    1  LIG1        0.0250
      7 C          -2.1250    2.2040    0.0000 C.ar    1  LIG1       -0.0005
      8 C          -2.3420    3.2040    0.0000 C.ar    1  LIG1       -0.0001
      9 C          -3.3040    3.5210    0.0000 C.ar    1  LIG1        0.0031
     10 C          -4.0000    2.8330    0.0000 C.ar    1  LIG1        0.0372
     11 C          -5.1040   -0.4630    0.0000 C.ar    1  LIG1        0.0372
     12 C          -4.8920   -1.4670    0.0000 C.ar    1  LIG1        0.0031
     13 C          -3.9290   -1.7710    0.0000 C.ar    1  LIG1       -0.0001
     14 C          -3.1920   -1.0960    0.0000 C.ar    1  LIG1       -0.0005
     15 C          -1.7210    0.0880    0.0000 C.2     1  LIG1        0.2493
     16 O          -1.9380   -0.7880    0.0000 O.2     1  LIG1       -0.2726
     17 N          -0.7250    0.0880    0.0000 N.am    1  LIG1       -0.2048
     18 C          -0.2580   -0.8000    0.0000 C.3     1  LIG1        0.1177
     19 C           0.7460   -0.8130    0.0000 C.3     1  LIG1        0.0555
     20 C           1.1750   -1.7000    0.0000 C.3     1  LIG1        0.1440
     21 O           2.1830   -1.7330    0.0000 O.3     1  LIG1       -0.3537
     22 C           2.6250   -2.5960    0.0000 C.3     1  LIG1        0.1422
     23 C           3.6630   -2.6170    0.0000 C.3     1  LIG1        0.0321
     24 C           4.0880   -3.5040    0.0000 C.3     1  LIG1        0.0026
     25 C           5.1000   -3.5170    0.0000 C.3     1  LIG1        0.0001
@<TRIPOS>BOND
     1     1     2    1
     2     1     6    1
     3     1    15    1
     4     2     3   ar
     5     2    14   ar
     6     3     4    1
     7     3    11   ar
     8     4     5    1
     9     5     6   ar
    10     5    10   ar
    11     6     7   ar
    12     7     8   ar
    13     8     9   ar
    14     9    10   ar
    15    11    12   ar
    16    12    13   ar
    17    13    14   ar
    18    15    16    2
    19    15    17   am
    20    17    18    1
    21    18    19    1
    22    19    20    1
    23    20    21    1
    24    21    22    1
    25    22    23    1
    26    23    24    1
    27    24    25    1
