@<TRIPOS>MOLECULE
28494_ChemDiv_6048-0147
 31 35 0 0 0
SMALL
GASTEIGER
Energy = 0

@<TRIPOS>ATOM
      1 C           1.7880    0.4000    0.0000 C.3     1  LIG1        0.1269
      2 C           1.2960    1.2500    0.0000 C.2     1  LIG1        0.2337
      3 N           0.2880    1.2500    0.0000 N.am    1  LIG1       -0.2755
      4 C          -0.2290    0.4040    0.0000 C.3     1  LIG1        0.1148
      5 C          -1.2420    0.4040    0.0000 C.3     1  LIG1        0.1124
      6 N          -1.7380    1.2880    0.0000 N.pl3   1  LIG1       -0.3017
      7 C          -2.7500    1.2880    0.0000 C.ar    1  LIG1        0.0824
      8 C          -3.2460    0.4670    0.0000 C.ar    1  LIG1        0.1517
      9 O          -2.7500   -0.4460    0.0000 O.3     1  LIG1       -0.4742
     10 C          -1.7380   -0.4460    0.0000 C.3     1  LIG1        0.2056
     11 C          -1.2960   -1.3830    0.0000 C.3     1  LIG1        0.0512
     12 C          -4.2670    0.4670    0.0000 C.ar    1  LIG1        0.0382
     13 C          -4.7630    1.3380    0.0000 C.ar    1  LIG1        0.0032
     14 C          -4.2540    2.1790    0.0000 C.ar    1  LIG1        0.0015
     15 C          -3.2380    2.1790    0.0000 C.ar    1  LIG1        0.0176
     16 C          -1.2210    2.1540    0.0000 C.3     1  LIG1        0.1124
     17 C          -0.2080    2.1250    0.0000 C.3     1  LIG1        0.1148
     18 O           1.8000    2.1170    0.0000 O.2     1  LIG1       -0.2742
     19 C           2.7710    0.4000    0.0000 C.ar    1  LIG1        0.0249
     20 C           3.2830   -0.4580    0.0000 C.ar    1  LIG1        0.1420
     21 O           2.7710   -1.3130    0.0000 O.3     1  LIG1       -0.4541
     22 C           1.8000   -1.3130    0.0000 C.ar    1  LIG1        0.1420
     23 C           1.2960   -0.4460    0.0000 C.ar    1  LIG1        0.0249
     24 C           0.3000   -0.4460    0.0000 C.ar    1  LIG1       -0.0005
     25 C          -0.2080   -1.3040    0.0000 C.ar    1  LIG1       -0.0001
     26 C           0.3000   -2.1750    0.0000 C.ar    1  LIG1        0.0031
     27 C           1.3040   -2.1750    0.0000 C.ar    1  LIG1        0.0372
     28 C           4.2500   -0.4750    0.0000 C.ar    1  LIG1        0.0372
     29 C           4.7580    0.3750    0.0000 C.ar    1  LIG1        0.0031
     30 C           4.2500    1.2420    0.0000 C.ar    1  LIG1       -0.0001
     31 C           3.2420    1.2420    0.0000 C.ar    1  LIG1       -0.0005
@<TRIPOS>BOND
     1     1     2    1
     2     1    19    1
     3     1    23    1
     4     2     3   am
     5     2    18    2
     6     3     4    1
     7     3    17    1
     8     4     5    1
     9     5     6    1
    10     6     7    1
    11     6    16    1
    12     7     8   ar
    13     7    15   ar
    14     8     9    1
    15     8    12   ar
    16     9    10    1
    17    10    11    1
    18    12    13   ar
    19    13    14   ar
    20    14    15   ar
    21    16    17    1
    22    19    20   ar
    23    19    31   ar
    24    20    21    1
    25    20    28   ar
    26    21    22    1
    27    22    23   ar
    28    22    27   ar
    29    23    24   ar
    30    24    25   ar
    31    25    26   ar
    32    26    27   ar
    33    28    29   ar
    34    29    30   ar
    35    30    31   ar
