@<TRIPOS>MOLECULE
28497_ChemDiv_6500-0108
 29 32 0 0 0
SMALL
GASTEIGER
Energy = 0

@<TRIPOS>ATOM
      1 C          -1.7540   -0.4790    0.0000 C.ar    1  LIG1        0.0517
      2 C          -0.8880   -0.9880    0.0000 C.ar    1  LIG1        0.2641
      3 N          -0.0040   -0.4880    0.0000 N.ar    1  LIG1       -0.2463
      4 C           0.0000    0.5210    0.0000 C.ar    1  LIG1        0.2237
      5 N          -0.8710    1.0330    0.0000 N.ar    1  LIG1       -0.2137
      6 C          -1.7460    0.5330    0.0000 C.ar    1  LIG1        0.0844
      7 C          -2.6080    1.0330    0.0000 C.ar    1  LIG1        0.0136
      8 C          -3.4790    0.5420    0.0000 C.ar    1  LIG1       -0.0204
      9 C          -3.4830   -0.4580    0.0000 C.3     1  LIG1        0.0306
     10 C          -2.6210   -0.9710    0.0000 C.3     1  LIG1        0.0289
     11 C          -3.3290   -1.6670    0.0000 C.3     1  LIG1        0.0046
     12 C          -2.8380   -2.5330    0.0000 C.3     1  LIG1        0.0003
     13 C          -1.9130   -1.6670    0.0000 C.3     1  LIG1        0.0049
     14 C          -4.3380    1.0330    0.0000 C.ar    1  LIG1       -0.0042
     15 C          -4.3380    2.0380    0.0000 C.ar    1  LIG1       -0.0003
     16 C          -3.4790    2.5380    0.0000 C.ar    1  LIG1        0.0000
     17 C          -2.6080    2.0380    0.0000 C.ar    1  LIG1        0.0012
     18 N           0.8710    1.0080    0.0000 N.pl3   1  LIG1       -0.2048
     19 C           1.7290    0.5040    0.0000 C.3     1  LIG1        0.1180
     20 C           2.6000    0.9920    0.0000 C.3     1  LIG1        0.0590
     21 C           3.4580    0.4920    0.0000 C.3     1  LIG1        0.1839
     22 O           4.3330    0.9790    0.0000 O.3     1  LIG1       -0.2204
     23 C           0.8540   -1.0000    0.0000 C.ar    1  LIG1        0.0694
     24 C           0.8420   -1.9960    0.0000 C.ar    1  LIG1        0.0177
     25 C           1.7000   -2.5000    0.0000 C.ar    1  LIG1        0.0015
     26 C           2.5710   -2.0080    0.0000 C.ar    1  LIG1        0.0001
     27 C           2.5790   -1.0080    0.0000 C.ar    1  LIG1        0.0015
     28 C           1.7210   -0.5040    0.0000 C.ar    1  LIG1        0.0177
     29 O          -0.8960   -1.9880    0.0000 O.2     1  LIG1       -0.2668
@<TRIPOS>BOND
     1     1     2   ar
     2     1     6   ar
     3     1    10    1
     4     2     3   ar
     5     2    29    2
     6     3     4   ar
     7     3    23    1
     8     4     5   ar
     9     4    18    1
    10     5     6   ar
    11     6     7    1
    12     7     8   ar
    13     7    17   ar
    14     8     9    1
    15     8    14   ar
    16     9    10    1
    17    10    11    1
    18    10    13    1
    19    11    12    1
    20    14    15   ar
    21    15    16   ar
    22    16    17   ar
    23    18    19    1
    24    19    20    1
    25    20    21    1
    26    21    22    1
    27    23    24   ar
    28    23    28   ar
    29    24    25   ar
    30    25    26   ar
    31    26    27   ar
    32    27    28   ar
