@<TRIPOS>MOLECULE
28491_ChemDiv_2752-0198
 28 32 0 0 0
SMALL
GASTEIGER
Energy = 0

@<TRIPOS>ATOM
      1 C          -1.3040   -1.1920    0.0000 C.ar    1  LIG1        0.0530
      2 C          -1.3040   -0.1790    0.0000 C.ar    1  LIG1        0.0830
      3 N          -0.4420    0.3210    0.0000 N.ar    1  LIG1       -0.2299
      4 C           0.4380   -0.1960    0.0000 C.ar    1  LIG1        0.1532
      5 N           0.4380   -1.1920    0.0000 N.ar    1  LIG1       -0.1923
      6 C          -0.4420   -1.6790    0.0000 C.ar    1  LIG1        0.2777
      7 O          -0.4420   -2.7040    0.0000 O.2     1  LIG1       -0.2655
      8 C           1.3080    0.2750    0.0000 C.3     1  LIG1        0.1234
      9 S           2.1580   -0.2420    0.0000 S.3     1  LIG1       -0.1273
     10 C           3.0250    0.2250    0.0000 C.3     1  LIG1        0.0842
     11 C           3.0380    1.2210    0.0000 C.ar    1  LIG1       -0.0113
     12 C           3.9040    1.7250    0.0000 C.ar    1  LIG1       -0.0034
     13 C           3.9080    2.7080    0.0000 C.ar    1  LIG1       -0.0003
     14 C           3.0580    3.2290    0.0000 C.ar    1  LIG1       -0.0000
     15 C           2.2040    2.7170    0.0000 C.ar    1  LIG1       -0.0003
     16 C           2.1920    1.7330    0.0000 C.ar    1  LIG1       -0.0034
     17 C          -2.1710    0.3210    0.0000 C.ar    1  LIG1        0.0136
     18 C          -3.0330   -0.1790    0.0000 C.ar    1  LIG1       -0.0204
     19 C          -3.0330   -1.1920    0.0000 C.3     1  LIG1        0.0306
     20 C          -2.1710   -1.6920    0.0000 C.3     1  LIG1        0.0290
     21 C          -2.9670   -2.2710    0.0000 C.3     1  LIG1        0.0046
     22 C          -2.6130   -3.2250    0.0000 C.3     1  LIG1        0.0003
     23 C          -1.6380   -3.2250    0.0000 C.3     1  LIG1        0.0003
     24 C          -1.3420   -2.2500    0.0000 C.3     1  LIG1        0.0046
     25 C          -3.9130    0.3210    0.0000 C.ar    1  LIG1       -0.0042
     26 C          -3.9130    1.3380    0.0000 C.ar    1  LIG1       -0.0003
     27 C          -3.0330    1.8170    0.0000 C.ar    1  LIG1        0.0000
     28 C          -2.1710    1.3380    0.0000 C.ar    1  LIG1        0.0012
@<TRIPOS>BOND
     1     1     2   ar
     2     1     6   ar
     3     1    20    1
     4     2     3   ar
     5     2    17    1
     6     3     4   ar
     7     4     5   ar
     8     4     8    1
     9     5     6   ar
    10     6     7    2
    11     8     9    1
    12     9    10    1
    13    10    11    1
    14    11    12   ar
    15    11    16   ar
    16    12    13   ar
    17    13    14   ar
    18    14    15   ar
    19    15    16   ar
    20    17    18   ar
    21    17    28   ar
    22    18    19    1
    23    18    25   ar
    24    19    20    1
    25    20    21    1
    26    20    24    1
    27    21    22    1
    28    22    23    1
    29    23    24    1
    30    25    26   ar
    31    26    27   ar
    32    27    28   ar
