@<TRIPOS>MOLECULE
28492_ChemDiv_5556-0486
 23 26 0 0 0
SMALL
GASTEIGER
Energy = 0

@<TRIPOS>ATOM
      1 C          -0.4290    0.5000    0.0000 C.3     1  LIG1        0.1269
      2 C          -0.4290   -0.5040    0.0000 C.2     1  LIG1        0.2339
      3 N           0.4420   -1.0040    0.0000 N.am    1  LIG1       -0.2676
      4 C           0.4250   -1.9960    0.0000 C.3     1  LIG1        0.1565
      5 C           1.2880   -2.5000    0.0000 C.3     1  LIG1        0.1608
      6 N           2.1540   -2.0000    0.0000 N.4     1  LIG1        0.3847
      7 C           2.1540   -1.0040    0.0000 C.3     1  LIG1        0.1608
      8 C           1.2920   -0.4880    0.0000 C.3     1  LIG1        0.1565
      9 C           3.0170   -2.5000    0.0000 C.3     1  LIG1        0.2024
     10 O          -1.2920   -1.0040    0.0000 O.2     1  LIG1       -0.2742
     11 C          -1.2920    0.9920    0.0000 C.ar    1  LIG1        0.0249
     12 C          -1.2920    1.9960    0.0000 C.ar    1  LIG1        0.1420
     13 O          -0.4290    2.5040    0.0000 O.3     1  LIG1       -0.4541
     14 C           0.4460    1.9960    0.0000 C.ar    1  LIG1        0.1420
     15 C           0.4420    0.9920    0.0000 C.ar    1  LIG1        0.0249
     16 C           1.3080    0.5000    0.0000 C.ar    1  LIG1       -0.0005
     17 C           2.1790    0.9920    0.0000 C.ar    1  LIG1       -0.0001
     18 C           2.1790    2.0080    0.0000 C.ar    1  LIG1        0.0031
     19 C           1.3080    2.5040    0.0000 C.ar    1  LIG1        0.0372
     20 C          -2.1580    2.4920    0.0000 C.ar    1  LIG1        0.0372
     21 C          -3.0210    1.9960    0.0000 C.ar    1  LIG1        0.0031
     22 C          -3.0210    0.9920    0.0000 C.ar    1  LIG1       -0.0001
     23 C          -2.1580    0.5000    0.0000 C.ar    1  LIG1       -0.0005
@<TRIPOS>BOND
     1     1     2    1
     2     1    11    1
     3     1    15    1
     4     2     3   am
     5     2    10    2
     6     3     4    1
     7     3     8    1
     8     4     5    1
     9     5     6    1
    10     6     7    1
    11     6     9    1
    12     7     8    1
    13    11    12   ar
    14    11    23   ar
    15    12    13    1
    16    12    20   ar
    17    13    14    1
    18    14    15   ar
    19    14    19   ar
    20    15    16   ar
    21    16    17   ar
    22    17    18   ar
    23    18    19   ar
    24    20    21   ar
    25    21    22   ar
    26    22    23   ar
