@<TRIPOS>MOLECULE
28498_ChemDiv_8017-2094
 27 30 0 0 0
SMALL
GASTEIGER
Energy = 0

@<TRIPOS>ATOM
      1 N           0.8630    1.0000    0.0000 N.pl3   1  LIG1       -0.0891
      2 C           0.0000    0.5000    0.0000 C.ar    1  LIG1        0.2918
      3 N          -0.8710    1.0000    0.0000 N.ar    1  LIG1       -0.2035
      4 C          -1.7330    0.5000    0.0000 C.ar    1  LIG1        0.0651
      5 C          -1.7330   -0.4960    0.0000 C.ar    1  LIG1        0.0345
      6 C          -0.8710   -1.0000    0.0000 C.ar    1  LIG1        0.0869
      7 N           0.0000   -0.4960    0.0000 N.ar    1  LIG1       -0.1991
      8 C          -0.8710   -1.9880    0.0000 C.ar    1  LIG1        0.0224
      9 C          -1.7330   -2.5000    0.0000 C.ar    1  LIG1        0.0384
     10 C          -2.6000   -1.9880    0.0000 C.ar    1  LIG1        0.1389
     11 C          -2.6000   -1.0000    0.0000 C.ar    1  LIG1        0.0396
     12 O          -3.4710   -2.5000    0.0000 O.3     1  LIG1       -0.4714
     13 C          -4.3330   -1.9880    0.0000 C.3     1  LIG1        0.2525
     14 C          -2.6000    1.0000    0.0000 C.3     1  LIG1        0.0523
     15 C           0.8630    2.0080    0.0000 C.cat   1  LIG1        0.4585
     16 N           1.7290    2.5000    0.0000 N.2     1  LIG1       -0.0340
     17 C           2.5920    2.0080    0.0000 C.3     1  LIG1        0.3722
     18 N           2.5920    1.0000    0.0000 N.4     1  LIG1        0.4437
     19 C           1.7290    0.5000    0.0000 C.3     1  LIG1        0.3326
     20 C           3.4630    0.5000    0.0000 C.3     1  LIG1        0.1762
     21 C           3.4630   -0.4960    0.0000 C.ar    1  LIG1        0.0347
     22 C           2.5920   -1.0000    0.0000 C.ar    1  LIG1        0.0014
     23 C           2.5920   -1.9880    0.0000 C.ar    1  LIG1       -0.0001
     24 C           3.4630   -2.5000    0.0000 C.ar    1  LIG1       -0.0000
     25 C           4.3290   -1.9880    0.0000 C.ar    1  LIG1       -0.0001
     26 C           4.3290   -1.0000    0.0000 C.ar    1  LIG1        0.0014
     27 N           0.0000    2.5000    0.0000 N.pl3   1  LIG1        0.1444
@<TRIPOS>BOND
     1     1     2    1
     2     1    15    1
     3     1    19    1
     4     2     3   ar
     5     2     7   ar
     6     3     4   ar
     7     4     5   ar
     8     4    14    1
     9     5     6   ar
    10     5    11   ar
    11     6     7   ar
    12     6     8   ar
    13     8     9   ar
    14     9    10   ar
    15    10    11   ar
    16    10    12    1
    17    12    13    1
    18    15    16    2
    19    15    27    1
    20    16    17    1
    21    17    18    1
    22    18    19    1
    23    18    20    1
    24    20    21    1
    25    21    22   ar
    26    21    26   ar
    27    22    23   ar
    28    23    24   ar
    29    24    25   ar
    30    25    26   ar
