@<TRIPOS>MOLECULE
28493_ChemDiv_2944-0155
 20 23 0 0 0
SMALL
GASTEIGER
Energy = 0

@<TRIPOS>ATOM
      1 C          -0.0130   -0.4830    0.0000 C.ar    1  LIG1        0.0530
      2 C          -0.0080    0.5000    0.0000 C.ar    1  LIG1        0.0838
      3 N           0.8170    0.9920    0.0000 N.ar    1  LIG1       -0.2207
      4 C           1.6750    0.5000    0.0000 C.ar    1  LIG1        0.2030
      5 N           1.6580   -0.4830    0.0000 N.ar    1  LIG1       -0.1823
      6 C           0.8330   -0.9540    0.0000 C.ar    1  LIG1        0.2784
      7 O           0.8170   -1.9210    0.0000 O.2     1  LIG1       -0.2654
      8 S           2.5250    0.9830    0.0000 S.2     1  LIG1       -0.0092
      9 C          -0.8380    0.9710    0.0000 C.ar    1  LIG1        0.0136
     10 C          -1.6880    0.5000    0.0000 C.ar    1  LIG1       -0.0204
     11 C          -1.6790   -0.4710    0.0000 C.3     1  LIG1        0.0306
     12 C          -0.8380   -0.9540    0.0000 C.3     1  LIG1        0.0290
     13 C          -0.0130   -1.4330    0.0000 C.3     1  LIG1        0.0046
     14 C          -0.0130   -2.4170    0.0000 C.3     1  LIG1        0.0003
     15 C          -1.7000   -2.4040    0.0000 C.3     1  LIG1        0.0003
     16 C          -1.7000   -1.4330    0.0000 C.3     1  LIG1        0.0046
     17 C          -2.5290    0.9710    0.0000 C.ar    1  LIG1       -0.0042
     18 C          -2.5290    1.9290    0.0000 C.ar    1  LIG1       -0.0003
     19 C          -1.6880    2.4210    0.0000 C.ar    1  LIG1        0.0000
     20 C          -0.8540    1.9330    0.0000 C.ar    1  LIG1        0.0012
@<TRIPOS>BOND
     1     1     2   ar
     2     1     6   ar
     3     1    12    1
     4     2     3   ar
     5     2     9    1
     6     3     4   ar
     7     4     5   ar
     8     4     8    2
     9     5     6   ar
    10     6     7    2
    11     9    10   ar
    12     9    20   ar
    13    10    11    1
    14    10    17   ar
    15    11    12    1
    16    12    13    1
    17    12    16    1
    18    13    14    1
    19    14    15    1
    20    15    16    1
    21    17    18   ar
    22    18    19   ar
    23    19    20   ar
