@<TRIPOS>MOLECULE
28496_ChemDiv_6048-0214
 27 32 0 0 0
SMALL
GASTEIGER
Energy = 0

@<TRIPOS>ATOM
      1 C           0.2250    0.4000    0.0000 C.2     1  LIG1        0.2492
      2 C           0.7250   -0.4540    0.0000 C.3     1  LIG1        0.1284
      3 C           0.2250   -1.3000    0.0000 C.ar    1  LIG1        0.0250
      4 C           0.7330   -2.1710    0.0000 C.ar    1  LIG1        0.1420
      5 O           1.7080   -2.1710    0.0000 O.3     1  LIG1       -0.4541
      6 C           2.2130   -1.3130    0.0000 C.ar    1  LIG1        0.1420
      7 C           1.7080   -0.4540    0.0000 C.ar    1  LIG1        0.0250
      8 C           2.1790    0.3880    0.0000 C.ar    1  LIG1       -0.0005
      9 C           3.1790    0.3880    0.0000 C.ar    1  LIG1       -0.0001
     10 C           3.6880   -0.4790    0.0000 C.ar    1  LIG1        0.0031
     11 C           3.1790   -1.3290    0.0000 C.ar    1  LIG1        0.0372
     12 C           0.2420   -3.0290    0.0000 C.ar    1  LIG1        0.0372
     13 C          -0.7540   -3.0290    0.0000 C.ar    1  LIG1        0.0031
     14 C          -1.2670   -2.1540    0.0000 C.ar    1  LIG1       -0.0001
     15 C          -0.7540   -1.3000    0.0000 C.ar    1  LIG1       -0.0005
     16 N          -0.7670    0.4000    0.0000 N.am    1  LIG1       -0.2083
     17 C          -1.2500    1.2670    0.0000 C.3     1  LIG1        0.0786
     18 C          -2.3290    0.8830    0.0000 C.3     1  LIG1        0.0200
     19 C          -2.7500    1.6830    0.0000 C.3     1  LIG1        0.0017
     20 C          -3.6920    1.9130    0.0000 C.3     1  LIG1        0.0001
     21 C          -2.7330    2.1540    0.0000 C.3     1  LIG1        0.0017
     22 C          -2.2380    1.2670    0.0000 C.3     1  LIG1        0.0200
     23 C          -2.2000    3.0330    0.0000 C.3     1  LIG1        0.0001
     24 C          -1.2130    3.0040    0.0000 C.3     1  LIG1        0.0017
     25 C          -0.7380    2.1170    0.0000 C.3     1  LIG1        0.0200
     26 C          -2.1170    2.7250    0.0000 C.3     1  LIG1        0.0001
     27 O           0.7330    1.2630    0.0000 O.2     1  LIG1       -0.2726
@<TRIPOS>BOND
     1     1     2    1
     2     1    16   am
     3     1    27    2
     4     2     3    1
     5     2     7    1
     6     3     4   ar
     7     3    15   ar
     8     4     5    1
     9     4    12   ar
    10     5     6    1
    11     6     7   ar
    12     6    11   ar
    13     7     8   ar
    14     8     9   ar
    15     9    10   ar
    16    10    11   ar
    17    12    13   ar
    18    13    14   ar
    19    14    15   ar
    20    16    17    1
    21    17    18    1
    22    17    22    1
    23    17    25    1
    24    18    19    1
    25    19    20    1
    26    19    26    1
    27    20    21    1
    28    21    22    1
    29    21    23    1
    30    23    24    1
    31    24    25    1
    32    24    26    1
