@<TRIPOS>MOLECULE
28490_ChemDiv_5556-0476
 24 27 0 0 0
SMALL
GASTEIGER
Energy = 0

@<TRIPOS>ATOM
      1 C           0.0000    0.7420    0.0000 C.2     1  LIG1        0.3249
      2 C           0.0000    1.7380    0.0000 C.3     1  LIG1        0.1493
      3 C           0.8710    2.2420    0.0000 C.ar    1  LIG1        0.0268
      4 C           0.8710    3.2500    0.0000 C.ar    1  LIG1        0.1421
      5 O           0.0000    3.7540    0.0000 O.3     1  LIG1       -0.4541
      6 C          -0.8790    3.2500    0.0000 C.ar    1  LIG1        0.1421
      7 C          -0.8790    2.2420    0.0000 C.ar    1  LIG1        0.0268
      8 C          -1.7330    1.7500    0.0000 C.ar    1  LIG1       -0.0004
      9 C          -2.6040    2.2420    0.0000 C.ar    1  LIG1       -0.0001
     10 C          -2.5920    3.2500    0.0000 C.ar    1  LIG1        0.0031
     11 C          -1.7330    3.7500    0.0000 C.ar    1  LIG1        0.0372
     12 C           1.7380    3.7500    0.0000 C.ar    1  LIG1        0.0372
     13 C           2.6000    3.2500    0.0000 C.ar    1  LIG1        0.0031
     14 C           2.6000    2.2420    0.0000 C.ar    1  LIG1       -0.0001
     15 C           1.7380    1.7380    0.0000 C.ar    1  LIG1       -0.0004
     16 O           0.8540    0.2380    0.0000 O.3     1  LIG1       -0.4514
     17 C           0.8540   -0.7580    0.0000 C.3     1  LIG1        0.1808
     18 C           0.0000   -1.2540    0.0000 C.3     1  LIG1        0.1064
     19 C           0.0000   -2.2420    0.0000 C.3     1  LIG1        0.1427
     20 N           0.8540   -2.7540    0.0000 N.4     1  LIG1        0.3822
     21 C           1.7210   -2.2420    0.0000 C.3     1  LIG1        0.1427
     22 C           1.7210   -1.2540    0.0000 C.3     1  LIG1        0.1064
     23 C           0.8540   -3.7500    0.0000 C.3     1  LIG1        0.2022
     24 O          -0.8790    0.2380    0.0000 O.2     1  LIG1       -0.2494
@<TRIPOS>BOND
     1     1     2    1
     2     1    16    1
     3     1    24    2
     4     2     3    1
     5     2     7    1
     6     3     4   ar
     7     3    15   ar
     8     4     5    1
     9     4    12   ar
    10     5     6    1
    11     6     7   ar
    12     6    11   ar
    13     7     8   ar
    14     8     9   ar
    15     9    10   ar
    16    10    11   ar
    17    12    13   ar
    18    13    14   ar
    19    14    15   ar
    20    16    17    1
    21    17    18    1
    22    17    22    1
    23    18    19    1
    24    19    20    1
    25    20    21    1
    26    20    23    1
    27    21    22    1
