@<TRIPOS>MOLECULE
28495_ChemDiv_3089-0294
 22 25 0 0 0
SMALL
GASTEIGER
Energy = 0

@<TRIPOS>ATOM
      1 C          -0.0130   -0.2580    0.0000 C.ar    1  LIG1        0.0530
      2 C          -0.0250    0.7670    0.0000 C.ar    1  LIG1        0.0837
      3 N           0.8540    1.2460    0.0000 N.ar    1  LIG1       -0.2213
      4 C           1.7380    0.7330    0.0000 C.ar    1  LIG1        0.1928
      5 N           1.7380   -0.2500    0.0000 N.ar    1  LIG1       -0.1830
      6 C           0.8540   -0.7630    0.0000 C.ar    1  LIG1        0.2784
      7 O           0.8540   -1.7420    0.0000 O.2     1  LIG1       -0.2654
      8 S           2.6040    1.2460    0.0000 S.3     1  LIG1       -0.0747
      9 C           2.6040    2.2460    0.0000 C.3     1  LIG1        0.0772
     10 C          -0.8790    1.2460    0.0000 C.ar    1  LIG1        0.0136
     11 C          -1.7420    0.7330    0.0000 C.ar    1  LIG1       -0.0204
     12 C          -1.7420   -0.2580    0.0000 C.3     1  LIG1        0.0306
     13 C          -0.8880   -0.7670    0.0000 C.3     1  LIG1        0.0290
     14 C          -1.7420   -1.2380    0.0000 C.3     1  LIG1        0.0046
     15 C          -1.7420   -2.2420    0.0000 C.3     1  LIG1        0.0003
     16 C          -0.8880   -2.7420    0.0000 C.3     1  LIG1        0.0000
     17 C          -0.0130   -2.2250    0.0000 C.3     1  LIG1        0.0003
     18 C          -0.0130   -1.2380    0.0000 C.3     1  LIG1        0.0046
     19 C          -2.6080    1.2460    0.0000 C.ar    1  LIG1       -0.0042
     20 C          -2.5960    2.2460    0.0000 C.ar    1  LIG1       -0.0003
     21 C          -1.7420    2.7460    0.0000 C.ar    1  LIG1        0.0000
     22 C          -0.8790    2.2460    0.0000 C.ar    1  LIG1        0.0012
@<TRIPOS>BOND
     1     1     2   ar
     2     1     6   ar
     3     1    13    1
     4     2     3   ar
     5     2    10    1
     6     3     4   ar
     7     4     5   ar
     8     4     8    1
     9     5     6   ar
    10     6     7    2
    11     8     9    1
    12    10    11   ar
    13    10    22   ar
    14    11    12    1
    15    11    19   ar
    16    12    13    1
    17    13    14    1
    18    13    18    1
    19    14    15    1
    20    15    16    1
    21    16    17    1
    22    17    18    1
    23    19    20   ar
    24    20    21   ar
    25    21    22   ar
