@<TRIPOS>MOLECULE
28509_ChemDiv_5750-3283
 32 36 0 0 0
SMALL
GASTEIGER
Energy = 0

@<TRIPOS>ATOM
      1 C           0.4580   -2.0750    0.0000 C.ar    1  LIG1        0.1483
      2 C           1.1710   -1.3710    0.0000 C.ar    1  LIG1        0.0762
      3 C           2.1290   -1.6250    0.0000 C.ar    1  LIG1        0.2638
      4 N           2.3830   -2.5920    0.0000 N.ar    1  LIG1       -0.2469
      5 C           1.6960   -3.2920    0.0000 C.ar    1  LIG1        0.3349
      6 N           0.7290   -3.0380    0.0000 N.ar    1  LIG1       -0.2642
      7 C           0.0000   -3.7330    0.0000 C.3     1  LIG1        0.1366
      8 O           1.9830   -4.2630    0.0000 O.2     1  LIG1       -0.2461
      9 C           3.3540   -2.8830    0.0000 C.3     1  LIG1        0.1382
     10 O           2.8330   -0.9130    0.0000 O.2     1  LIG1       -0.2671
     11 C           0.9080   -0.4170    0.0000 C.3     1  LIG1        0.0788
     12 C          -0.0710   -0.1580    0.0000 C.2     1  LIG1        0.0382
     13 C          -0.7540   -0.8420    0.0000 C.2     1  LIG1        0.0825
     14 N          -0.4960   -1.8080    0.0000 N.2     1  LIG1       -0.2285
     15 C          -1.6330   -0.3830    0.0000 C.ar    1  LIG1        0.0204
     16 C          -1.5130    0.5710    0.0000 C.ar    1  LIG1        0.0359
     17 C          -0.5250    0.7210    0.0000 C.2     1  LIG1        0.1464
     18 O          -0.0420    1.6290    0.0000 O.3     1  LIG1       -0.4244
     19 C          -0.6040    2.5420    0.0000 C.2     1  LIG1        0.3215
     20 O          -1.6040    2.5540    0.0000 O.2     1  LIG1       -0.2497
     21 C          -0.0710    3.3790    0.0000 C.3     1  LIG1        0.1100
     22 C          -0.5330    4.2630    0.0000 C.3     1  LIG1        0.0122
     23 C          -2.3130    1.1630    0.0000 C.ar    1  LIG1        0.0031
     24 C          -3.2420    0.7580    0.0000 C.ar    1  LIG1        0.0001
     25 C          -3.3580   -0.2000    0.0000 C.ar    1  LIG1        0.0001
     26 C          -2.5540   -0.7960    0.0000 C.ar    1  LIG1        0.0016
     27 C           1.6250    0.3000    0.0000 C.ar    1  LIG1       -0.0139
     28 C           2.5960    0.0540    0.0000 C.ar    1  LIG1       -0.0036
     29 C           3.3080    0.7580    0.0000 C.ar    1  LIG1       -0.0003
     30 C           3.0290    1.7250    0.0000 C.ar    1  LIG1       -0.0000
     31 C           2.0670    1.9750    0.0000 C.ar    1  LIG1       -0.0003
     32 C           1.3630    1.2580    0.0000 C.ar    1  LIG1       -0.0036
@<TRIPOS>BOND
     1     1     2   ar
     2     1     6   ar
     3     1    14    1
     4     2     3   ar
     5     2    11    1
     6     3     4   ar
     7     3    10    2
     8     4     5   ar
     9     4     9    1
    10     5     6   ar
    11     5     8    2
    12     6     7    1
    13    11    12    1
    14    11    27    1
    15    12    13    1
    16    12    17    2
    17    13    14    2
    18    13    15    1
    19    15    16   ar
    20    15    26   ar
    21    16    17    1
    22    16    23   ar
    23    17    18    1
    24    18    19    1
    25    19    20    2
    26    19    21    1
    27    21    22    1
    28    23    24   ar
    29    24    25   ar
    30    25    26   ar
    31    27    28   ar
    32    27    32   ar
    33    28    29   ar
    34    29    30   ar
    35    30    31   ar
    36    31    32   ar
