@<TRIPOS>MOLECULE
28500_ChemDiv_2932-1361
 23 26 0 0 0
SMALL
GASTEIGER
Energy = 0

@<TRIPOS>ATOM
      1 N           0.0540    1.1670    0.0000 N.am    1  LIG1       -0.2316
      2 C           0.0830    0.1960    0.0000 C.2     1  LIG1        0.2909
      3 C           0.9880   -0.2920    0.0000 C.3     1  LIG1        0.2259
      4 N           1.0580   -1.2040    0.0000 N.4     1  LIG1        0.3884
      5 C           1.9710   -1.6920    0.0000 C.3     1  LIG1        0.1720
      6 C           2.0790   -2.6920    0.0000 C.3     1  LIG1        0.2048
      7 O           1.2000   -3.2630    0.0000 O.3     1  LIG1       -0.3411
      8 C           0.3460   -2.8170    0.0000 C.3     1  LIG1        0.2048
      9 C           0.2580   -1.8420    0.0000 C.3     1  LIG1        0.1720
     10 O          -0.7670   -0.2920    0.0000 O.2     1  LIG1       -0.2678
     11 C          -0.8290    1.6040    0.0000 C.ar    1  LIG1        0.0642
     12 C          -0.8880    2.6250    0.0000 C.ar    1  LIG1        0.0435
     13 S          -0.0670    3.1750    0.0000 S.3     1  LIG1       -0.0844
     14 C           0.8130    2.6960    0.0000 C.ar    1  LIG1        0.0435
     15 C           0.8750    1.7750    0.0000 C.ar    1  LIG1        0.0642
     16 C           1.7880    1.3500    0.0000 C.ar    1  LIG1        0.0157
     17 C           2.6880    1.8960    0.0000 C.ar    1  LIG1        0.0013
     18 C           2.5750    2.8210    0.0000 C.ar    1  LIG1        0.0006
     19 C           1.6670    3.2670    0.0000 C.ar    1  LIG1        0.0077
     20 C          -1.8130    3.0500    0.0000 C.ar    1  LIG1        0.0077
     21 C          -2.6920    2.4540    0.0000 C.ar    1  LIG1        0.0006
     22 C          -2.6210    1.5330    0.0000 C.ar    1  LIG1        0.0013
     23 C          -1.6790    1.0460    0.0000 C.ar    1  LIG1        0.0157
@<TRIPOS>BOND
     1     1     2   am
     2     1    11    1
     3     1    15    1
     4     2     3    1
     5     2    10    2
     6     3     4    1
     7     4     5    1
     8     4     9    1
     9     5     6    1
    10     6     7    1
    11     7     8    1
    12     8     9    1
    13    11    12   ar
    14    11    23   ar
    15    12    13    1
    16    12    20   ar
    17    13    14    1
    18    14    15   ar
    19    14    19   ar
    20    15    16   ar
    21    16    17   ar
    22    17    18   ar
    23    18    19   ar
    24    20    21   ar
    25    21    22   ar
    26    22    23   ar
