@<TRIPOS>MOLECULE
28504_ChemDiv_8012-0106
 27 30 0 0 0
SMALL
GASTEIGER
Energy = 0

@<TRIPOS>ATOM
      1 N           1.7290   -0.4790    0.0000 N.am    1  LIG1       -0.2352
      2 C           1.7290    0.5210    0.0000 C.ar    1  LIG1        0.0649
      3 C           2.5920    1.0170    0.0000 C.ar    1  LIG1        0.0435
      4 S           3.4380    0.5210    0.0000 S.3     1  LIG1       -0.0844
      5 C           3.4380   -0.4790    0.0000 C.ar    1  LIG1        0.0435
      6 C           2.5880   -0.9830    0.0000 C.ar    1  LIG1        0.0641
      7 C           2.5880   -2.0040    0.0000 C.ar    1  LIG1        0.0157
      8 C           3.4630   -2.4830    0.0000 C.ar    1  LIG1        0.0013
      9 C           4.3420   -2.0040    0.0000 C.ar    1  LIG1        0.0006
     10 C           4.3420   -0.9920    0.0000 C.ar    1  LIG1        0.0077
     11 C           2.5920    1.9580    0.0000 C.ar    1  LIG1        0.0086
     12 C           1.7130    2.4710    0.0000 C.ar    1  LIG1        0.0120
     13 C           0.8330    1.9920    0.0000 C.ar    1  LIG1        0.0590
     14 C           0.8420    1.0000    0.0000 C.ar    1  LIG1        0.0271
     15 CL         -0.0210    2.4880    0.0000 Cl      1  LIG1       -0.0822
     16 C           0.8290   -0.9670    0.0000 C.2     1  LIG1        0.2495
     17 C          -0.0380   -0.4710    0.0000 C.3     1  LIG1        0.1596
     18 N          -0.8960   -0.9500    0.0000 N.3     1  LIG1       -0.2549
     19 C          -0.8960   -1.9630    0.0000 C.3     1  LIG1        0.1362
     20 C          -1.7750   -2.4580    0.0000 C.3     1  LIG1        0.1564
     21 N          -2.6250   -1.9630    0.0000 N.4     1  LIG1        0.3815
     22 C          -2.6250   -0.9500    0.0000 C.3     1  LIG1        0.1564
     23 C          -1.7750   -0.4540    0.0000 C.3     1  LIG1        0.1362
     24 C          -3.4670   -2.4670    0.0000 C.3     1  LIG1        0.1749
     25 C          -4.3460   -1.9540    0.0000 C.3     1  LIG1        0.2442
     26 O          -4.3460   -0.9710    0.0000 O.3     1  LIG1       -0.2137
     27 O           0.8170   -1.9880    0.0000 O.2     1  LIG1       -0.2727
@<TRIPOS>BOND
     1     1     2    1
     2     1     6    1
     3     1    16   am
     4     2     3   ar
     5     2    14   ar
     6     3     4    1
     7     3    11   ar
     8     4     5    1
     9     5     6   ar
    10     5    10   ar
    11     6     7   ar
    12     7     8   ar
    13     8     9   ar
    14     9    10   ar
    15    11    12   ar
    16    12    13   ar
    17    13    14   ar
    18    13    15    1
    19    16    17    1
    20    16    27    2
    21    17    18    1
    22    18    19    1
    23    18    23    1
    24    19    20    1
    25    20    21    1
    26    21    22    1
    27    21    24    1
    28    22    23    1
    29    24    25    1
    30    25    26    1
