@<TRIPOS>MOLECULE
28507_ChemDiv_5750-3024
 31 36 0 0 0
SMALL
GASTEIGER
Energy = 0

@<TRIPOS>ATOM
      1 C           1.0170    2.0380    0.0000 C.ar    1  LIG1        0.1477
      2 C           1.0170    1.0540    0.0000 C.ar    1  LIG1        0.0727
      3 C           1.8790    0.5630    0.0000 C.ar    1  LIG1        0.2635
      4 N           2.7420    1.0540    0.0000 N.ar    1  LIG1       -0.2469
      5 C           2.7420    2.0380    0.0000 C.ar    1  LIG1        0.3349
      6 N           1.8790    2.5290    0.0000 N.ar    1  LIG1       -0.2643
      7 C           1.8790    3.5580    0.0000 C.3     1  LIG1        0.1366
      8 O           3.6580    2.5000    0.0000 O.2     1  LIG1       -0.2461
      9 C           3.6580    0.6040    0.0000 C.3     1  LIG1        0.1382
     10 O           1.8790   -0.4540    0.0000 O.2     1  LIG1       -0.2671
     11 C           0.1250    0.5630    0.0000 C.3     1  LIG1        0.0652
     12 C          -0.7460    1.0540    0.0000 C.3     1  LIG1        0.1103
     13 C          -0.7460    2.0380    0.0000 C.2     1  LIG1        0.0682
     14 N           0.1250    2.5290    0.0000 N.2     1  LIG1       -0.2322
     15 C          -1.6880    2.3250    0.0000 C.ar    1  LIG1        0.0168
     16 C          -2.2540    1.5130    0.0000 C.ar    1  LIG1        0.0362
     17 C          -1.6880    0.7790    0.0000 C.2     1  LIG1        0.1789
     18 O          -2.0580   -0.2080    0.0000 O.2     1  LIG1       -0.2909
     19 C          -3.2420    1.6170    0.0000 C.ar    1  LIG1        0.0029
     20 C          -3.6630    2.5000    0.0000 C.ar    1  LIG1        0.0001
     21 C          -3.1170    3.3420    0.0000 C.ar    1  LIG1        0.0000
     22 C          -2.1290    3.2380    0.0000 C.ar    1  LIG1        0.0013
     23 C           0.1250   -0.4540    0.0000 C.ar    1  LIG1       -0.0141
     24 C           1.0500   -0.9460    0.0000 C.ar    1  LIG1        0.0363
     25 C           1.0500   -1.9830    0.0000 C.ar    1  LIG1        0.1761
     26 C           0.1250   -2.4250    0.0000 C.ar    1  LIG1        0.1764
     27 O           0.3130   -3.4080    0.0000 O.3     1  LIG1       -0.4346
     28 C           1.2960   -3.5540    0.0000 C.3     1  LIG1        0.4294
     29 O           1.7580   -2.6080    0.0000 O.3     1  LIG1       -0.4346
     30 C          -0.7040   -1.9330    0.0000 C.ar    1  LIG1        0.0399
     31 C          -0.7040   -0.9460    0.0000 C.ar    1  LIG1       -0.0006
@<TRIPOS>BOND
     1     1     2   ar
     2     1     6   ar
     3     1    14    1
     4     2     3   ar
     5     2    11    1
     6     3     4   ar
     7     3    10    2
     8     4     5   ar
     9     4     9    1
    10     5     6   ar
    11     5     8    2
    12     6     7    1
    13    11    12    1
    14    11    23    1
    15    12    13    1
    16    12    17    1
    17    13    14    2
    18    13    15    1
    19    15    16   ar
    20    15    22   ar
    21    16    17    1
    22    16    19   ar
    23    17    18    2
    24    19    20   ar
    25    20    21   ar
    26    21    22   ar
    27    23    24   ar
    28    23    31   ar
    29    24    25   ar
    30    25    26   ar
    31    25    29    1
    32    26    27    1
    33    26    30   ar
    34    27    28    1
    35    28    29    1
    36    30    31   ar
