@<TRIPOS>MOLECULE
28502_ChemDiv_3228-0105
 25 29 0 0 0
SMALL
GASTEIGER
Energy = 0

@<TRIPOS>ATOM
      1 N           0.4250   -0.2580    0.0000 N.am    1  LIG1       -0.2316
      2 C          -0.4420    0.2540    0.0000 C.2     1  LIG1        0.2892
      3 C          -0.4250    1.2420    0.0000 C.3     1  LIG1        0.1956
      4 N          -1.2960    1.7460    0.0000 N.4     1  LIG1        0.3072
      5 C          -1.2960    2.7330    0.0000 C.3     1  LIG1        0.1268
      6 C          -2.1750    3.2380    0.0000 C.3     1  LIG1        0.1343
      7 N          -3.0460    2.7330    0.0000 N.3     1  LIG1       -0.2577
      8 C          -1.9830    2.5080    0.0000 C.3     1  LIG1        0.1343
      9 C          -2.4630    2.0540    0.0000 C.3     1  LIG1        0.1268
     10 C          -3.0460    1.7460    0.0000 C.3     1  LIG1        0.1343
     11 C          -2.1750    1.2420    0.0000 C.3     1  LIG1        0.1268
     12 O          -1.3170   -0.2580    0.0000 O.2     1  LIG1       -0.2678
     13 C           1.3000    0.2540    0.0000 C.ar    1  LIG1        0.0642
     14 C           2.1710   -0.2710    0.0000 C.ar    1  LIG1        0.0435
     15 S           2.1710   -1.2580    0.0000 S.3     1  LIG1       -0.0844
     16 C           1.3000   -1.7420    0.0000 C.ar    1  LIG1        0.0435
     17 C           0.4250   -1.2580    0.0000 C.ar    1  LIG1        0.0642
     18 C          -0.4420   -1.7420    0.0000 C.ar    1  LIG1        0.0157
     19 C          -0.4420   -2.7290    0.0000 C.ar    1  LIG1        0.0013
     20 C           0.4250   -3.2330    0.0000 C.ar    1  LIG1        0.0006
     21 C           1.3000   -2.7420    0.0000 C.ar    1  LIG1        0.0077
     22 C           3.0420    0.2540    0.0000 C.ar    1  LIG1        0.0077
     23 C           3.0420    1.2420    0.0000 C.ar    1  LIG1        0.0006
     24 C           2.1540    1.7460    0.0000 C.ar    1  LIG1        0.0013
     25 C           1.3000    1.2670    0.0000 C.ar    1  LIG1        0.0157
@<TRIPOS>BOND
     1     1     2   am
     2     1    13    1
     3     1    17    1
     4     2     3    1
     5     2    12    2
     6     3     4    1
     7     4     5    1
     8     4     9    1
     9     4    11    1
    10     5     6    1
    11     6     7    1
    12     7     8    1
    13     7    10    1
    14     8     9    1
    15    10    11    1
    16    13    14   ar
    17    13    25   ar
    18    14    15    1
    19    14    22   ar
    20    15    16    1
    21    16    17   ar
    22    16    21   ar
    23    17    18   ar
    24    18    19   ar
    25    19    20   ar
    26    20    21   ar
    27    22    23   ar
    28    23    24   ar
    29    24    25   ar
