@<TRIPOS>MOLECULE
28505_ChemDiv_5750-3023
 32 36 0 0 0
SMALL
GASTEIGER
Energy = 0

@<TRIPOS>ATOM
      1 C           1.0040    2.2500    0.0000 C.ar    1  LIG1        0.1477
      2 C           1.0040    1.2540    0.0000 C.ar    1  LIG1        0.0727
      3 C           1.8960    0.7540    0.0000 C.ar    1  LIG1        0.2635
      4 N           2.7500    1.2130    0.0000 N.ar    1  LIG1       -0.2469
      5 C           2.7500    2.2500    0.0000 C.ar    1  LIG1        0.3349
      6 N           1.8960    2.7500    0.0000 N.ar    1  LIG1       -0.2643
      7 C           1.8960    3.7500    0.0000 C.3     1  LIG1        0.1366
      8 O           3.5960    2.8000    0.0000 O.2     1  LIG1       -0.2461
      9 C           3.5960    0.6170    0.0000 C.3     1  LIG1        0.1382
     10 O           1.8960   -0.2880    0.0000 O.2     1  LIG1       -0.2671
     11 C           0.1460    0.7540    0.0000 C.3     1  LIG1        0.0652
     12 C          -0.6920    1.2130    0.0000 C.3     1  LIG1        0.1103
     13 C          -0.6920    2.2500    0.0000 C.2     1  LIG1        0.0682
     14 N           0.1460    2.7500    0.0000 N.2     1  LIG1       -0.2322
     15 C          -1.6500    2.5540    0.0000 C.ar    1  LIG1        0.0168
     16 C          -2.1920    1.7500    0.0000 C.ar    1  LIG1        0.0362
     17 C          -1.6500    0.9080    0.0000 C.2     1  LIG1        0.1789
     18 O          -1.9420   -0.0380    0.0000 O.2     1  LIG1       -0.2909
     19 C          -3.1500    1.8040    0.0000 C.ar    1  LIG1        0.0029
     20 C          -3.6000    2.7080    0.0000 C.ar    1  LIG1        0.0001
     21 C          -3.0540    3.5540    0.0000 C.ar    1  LIG1        0.0000
     22 C          -2.0540    3.4540    0.0000 C.ar    1  LIG1        0.0013
     23 C           0.1460   -0.2880    0.0000 C.ar    1  LIG1       -0.0142
     24 C           1.0040   -0.7460    0.0000 C.ar    1  LIG1        0.0361
     25 C           1.0040   -1.7460    0.0000 C.ar    1  LIG1        0.1721
     26 C           0.1460   -2.2460    0.0000 C.ar    1  LIG1        0.1724
     27 C          -0.6920   -1.7460    0.0000 C.ar    1  LIG1        0.0397
     28 C          -0.6920   -0.7920    0.0000 C.ar    1  LIG1       -0.0006
     29 O           0.1460   -3.2460    0.0000 O.3     1  LIG1       -0.4684
     30 C          -0.6920   -3.7460    0.0000 C.3     1  LIG1        0.2526
     31 O           1.8960   -2.2880    0.0000 O.3     1  LIG1       -0.4684
     32 C           2.8040   -1.7880    0.0000 C.3     1  LIG1        0.2526
@<TRIPOS>BOND
     1     1     2   ar
     2     1     6   ar
     3     1    14    1
     4     2     3   ar
     5     2    11    1
     6     3     4   ar
     7     3    10    2
     8     4     5   ar
     9     4     9    1
    10     5     6   ar
    11     5     8    2
    12     6     7    1
    13    11    12    1
    14    11    23    1
    15    12    13    1
    16    12    17    1
    17    13    14    2
    18    13    15    1
    19    15    16   ar
    20    15    22   ar
    21    16    17    1
    22    16    19   ar
    23    17    18    2
    24    19    20   ar
    25    20    21   ar
    26    21    22   ar
    27    23    24   ar
    28    23    28   ar
    29    24    25   ar
    30    25    26   ar
    31    25    31    1
    32    26    27   ar
    33    26    29    1
    34    27    28   ar
    35    29    30    1
    36    31    32    1
