@<TRIPOS>MOLECULE
28503_ChemDiv_3807-4853
 33 37 0 0 0
SMALL
GASTEIGER
Energy = 0

@<TRIPOS>ATOM
      1 C           1.0380    2.2290    0.0000 C.ar    1  LIG1        0.1483
      2 C           1.0380    1.2250    0.0000 C.ar    1  LIG1        0.0762
      3 C           1.8960    0.7330    0.0000 C.ar    1  LIG1        0.2638
      4 N           2.7670    1.2250    0.0000 N.ar    1  LIG1       -0.2469
      5 C           2.7670    2.2750    0.0000 C.ar    1  LIG1        0.3349
      6 N           1.8960    2.7330    0.0000 N.ar    1  LIG1       -0.2642
      7 C           1.9290    3.7290    0.0000 C.3     1  LIG1        0.1366
      8 O           3.6330    2.8040    0.0000 O.2     1  LIG1       -0.2461
      9 C           3.5920    0.6460    0.0000 C.3     1  LIG1        0.1382
     10 O           1.9290   -0.2540    0.0000 O.2     1  LIG1       -0.2671
     11 C           0.1710    0.7330    0.0000 C.3     1  LIG1        0.0788
     12 C          -0.6710    1.2250    0.0000 C.2     1  LIG1        0.0382
     13 C          -0.6710    2.2750    0.0000 C.2     1  LIG1        0.0825
     14 N           0.1710    2.7330    0.0000 N.2     1  LIG1       -0.2285
     15 C          -1.6380    2.5710    0.0000 C.ar    1  LIG1        0.0204
     16 C          -2.2170    1.7710    0.0000 C.ar    1  LIG1        0.0359
     17 C          -1.6380    0.9250    0.0000 C.2     1  LIG1        0.1464
     18 O          -1.9500   -0.0630    0.0000 O.3     1  LIG1       -0.4244
     19 C          -2.9130   -0.3210    0.0000 C.2     1  LIG1        0.3220
     20 O          -3.5960    0.4210    0.0000 O.2     1  LIG1       -0.2497
     21 C          -3.2130   -1.2830    0.0000 C.3     1  LIG1        0.1216
     22 C          -3.1790    1.8420    0.0000 C.ar    1  LIG1        0.0031
     23 C          -3.6380    2.7330    0.0000 C.ar    1  LIG1        0.0001
     24 C          -2.9880    3.5380    0.0000 C.ar    1  LIG1        0.0001
     25 C          -2.0210    3.4630    0.0000 C.ar    1  LIG1        0.0016
     26 C           0.1710   -0.2540    0.0000 C.ar    1  LIG1       -0.0137
     27 C           1.0290   -0.7130    0.0000 C.ar    1  LIG1       -0.0005
     28 C           1.0290   -1.7250    0.0000 C.ar    1  LIG1        0.0366
     29 C           0.1710   -2.2460    0.0000 C.ar    1  LIG1        0.1387
     30 C          -0.7040   -1.7250    0.0000 C.ar    1  LIG1        0.0366
     31 C          -0.7040   -0.7630    0.0000 C.ar    1  LIG1       -0.0005
     32 O           0.1710   -3.2210    0.0000 O.3     1  LIG1       -0.4714
     33 C          -0.7040   -3.7250    0.0000 C.3     1  LIG1        0.2525
@<TRIPOS>BOND
     1     1     2   ar
     2     1     6   ar
     3     1    14    1
     4     2     3   ar
     5     2    11    1
     6     3     4   ar
     7     3    10    2
     8     4     5   ar
     9     4     9    1
    10     5     6   ar
    11     5     8    2
    12     6     7    1
    13    11    12    1
    14    11    26    1
    15    12    13    1
    16    12    17    2
    17    13    14    2
    18    13    15    1
    19    15    16   ar
    20    15    25   ar
    21    16    17    1
    22    16    22   ar
    23    17    18    1
    24    18    19    1
    25    19    20    2
    26    19    21    1
    27    22    23   ar
    28    23    24   ar
    29    24    25   ar
    30    26    27   ar
    31    26    31   ar
    32    27    28   ar
    33    28    29   ar
    34    29    30   ar
    35    29    32    1
    36    30    31   ar
    37    32    33    1
