@<TRIPOS>MOLECULE
28517_ChemDiv_3807-3249
 27 31 0 0 0
SMALL
GASTEIGER
Energy = 0

@<TRIPOS>ATOM
      1 C          -0.8790   -0.3500    0.0000 C.ar    1  LIG1        0.0513
      2 C          -0.8580    0.6420    0.0000 C.ar    1  LIG1        0.0831
      3 N           0.0040    1.1500    0.0000 N.ar    1  LIG1       -0.2284
      4 C           0.8580    0.6420    0.0000 C.ar    1  LIG1        0.1460
      5 N           0.8580   -0.3750    0.0000 N.ar    1  LIG1       -0.2789
      6 C          -0.0250   -0.8630    0.0000 C.ar    1  LIG1        0.2594
      7 O          -0.0250   -1.8790    0.0000 O.2     1  LIG1       -0.2672
      8 C           1.7130   -0.8880    0.0000 C.3     1  LIG1        0.1350
      9 C           1.7130    1.1500    0.0000 C.ar    1  LIG1        0.0342
     10 C           2.6130    0.6790    0.0000 C.ar    1  LIG1        0.0030
     11 C           3.4540    1.2040    0.0000 C.ar    1  LIG1        0.0001
     12 C           3.4210    2.2130    0.0000 C.ar    1  LIG1        0.0000
     13 C           2.5330    2.6710    0.0000 C.ar    1  LIG1        0.0001
     14 C           1.7130    2.1460    0.0000 C.ar    1  LIG1        0.0030
     15 C          -1.7170    1.1500    0.0000 C.ar    1  LIG1        0.0136
     16 C          -2.6000    0.6420    0.0000 C.ar    1  LIG1       -0.0204
     17 C          -2.6000   -0.3500    0.0000 C.3     1  LIG1        0.0306
     18 C          -1.7380   -0.8630    0.0000 C.3     1  LIG1        0.0289
     19 C          -1.1670   -1.6790    0.0000 C.3     1  LIG1        0.0046
     20 C          -1.5960   -2.6000    0.0000 C.3     1  LIG1        0.0003
     21 C          -2.5830   -2.6670    0.0000 C.3     1  LIG1        0.0000
     22 C          -3.1580   -1.8460    0.0000 C.3     1  LIG1        0.0003
     23 C          -2.7250   -0.9580    0.0000 C.3     1  LIG1        0.0046
     24 C          -3.4580    1.1750    0.0000 C.ar    1  LIG1       -0.0042
     25 C          -3.4580    2.1750    0.0000 C.ar    1  LIG1       -0.0003
     26 C          -2.5830    2.6460    0.0000 C.ar    1  LIG1        0.0000
     27 C          -1.7170    2.1580    0.0000 C.ar    1  LIG1        0.0012
@<TRIPOS>BOND
     1     1     2   ar
     2     1     6   ar
     3     1    18    1
     4     2     3   ar
     5     2    15    1
     6     3     4   ar
     7     4     5   ar
     8     4     9    1
     9     5     6   ar
    10     5     8    1
    11     6     7    2
    12     9    10   ar
    13     9    14   ar
    14    10    11   ar
    15    11    12   ar
    16    12    13   ar
    17    13    14   ar
    18    15    16   ar
    19    15    27   ar
    20    16    17    1
    21    16    24   ar
    22    17    18    1
    23    18    19    1
    24    18    23    1
    25    19    20    1
    26    20    21    1
    27    21    22    1
    28    22    23    1
    29    24    25   ar
    30    25    26   ar
    31    26    27   ar
