@<TRIPOS>MOLECULE
28513_ChemDiv_3455-1241
 24 27 0 0 0
SMALL
GASTEIGER
Energy = 0

@<TRIPOS>ATOM
      1 N           0.6960   -0.4960    0.0000 N.ar    1  LIG1       -0.2747
      2 C           0.6960    0.4920    0.0000 C.ar    1  LIG1        0.1738
      3 N          -0.1830    1.0130    0.0000 N.ar    1  LIG1       -0.2227
      4 C          -1.0580    0.4920    0.0000 C.ar    1  LIG1        0.0836
      5 C          -1.0580   -0.4960    0.0000 C.ar    1  LIG1        0.0513
      6 C          -0.1830   -1.0250    0.0000 C.ar    1  LIG1        0.2597
      7 O          -0.1830   -2.0040    0.0000 O.2     1  LIG1       -0.2672
      8 C          -1.9170   -1.0250    0.0000 C.3     1  LIG1        0.0289
      9 C          -2.7830   -0.4960    0.0000 C.3     1  LIG1        0.0306
     10 C          -2.7830    0.4920    0.0000 C.ar    1  LIG1       -0.0204
     11 C          -1.9170    1.0130    0.0000 C.ar    1  LIG1        0.0136
     12 C          -1.9170    2.0250    0.0000 C.ar    1  LIG1        0.0012
     13 C          -2.7830    2.5330    0.0000 C.ar    1  LIG1        0.0000
     14 C          -3.6880    2.0250    0.0000 C.ar    1  LIG1       -0.0003
     15 C          -3.6880    1.0130    0.0000 C.ar    1  LIG1       -0.0042
     16 C          -2.7830   -1.4960    0.0000 C.3     1  LIG1        0.0046
     17 C          -2.7830   -2.5290    0.0000 C.3     1  LIG1        0.0003
     18 C          -1.1290   -1.4670    0.0000 C.3     1  LIG1        0.0049
     19 S           1.6040    0.8000    0.0000 S.3     1  LIG1       -0.0705
     20 C           2.2000   -0.0080    0.0000 C.3     1  LIG1        0.1136
     21 C           1.6040   -0.8080    0.0000 C.3     1  LIG1        0.1277
     22 C           3.1920   -0.0080    0.0000 C.2     1  LIG1        0.0624
     23 O           3.6790   -0.8630    0.0000 O.co2   1  LIG1       -0.5482
     24 O           3.6830    0.8630    0.0000 O.co2   1  LIG1       -0.5482
@<TRIPOS>BOND
     1     1     2   ar
     2     1     6   ar
     3     1    21    1
     4     2     3   ar
     5     2    19    1
     6     3     4   ar
     7     4     5   ar
     8     4    11    1
     9     5     6   ar
    10     5     8    1
    11     6     7    2
    12     8     9    1
    13     8    16    1
    14     8    18    1
    15     9    10    1
    16    10    11   ar
    17    10    15   ar
    18    11    12   ar
    19    12    13   ar
    20    13    14   ar
    21    14    15   ar
    22    16    17    1
    23    19    20    1
    24    20    21    1
    25    20    22    1
    26    22    23   ar
    27    22    24   ar
