@<TRIPOS>MOLECULE
28519_ChemDiv_4121-0039
 26 29 0 0 0
SMALL
GASTEIGER
Energy = 0

@<TRIPOS>ATOM
      1 C          -1.7460    0.0460    0.0000 C.ar    1  LIG1        0.0533
      2 C          -1.7460    1.0290    0.0000 C.ar    1  LIG1        0.0837
      3 N          -0.8670    1.5630    0.0000 N.ar    1  LIG1       -0.2213
      4 C           0.0380    1.0290    0.0000 C.ar    1  LIG1        0.1933
      5 N           0.0380    0.0080    0.0000 N.ar    1  LIG1       -0.1830
      6 C          -0.8670   -0.4920    0.0000 C.ar    1  LIG1        0.2784
      7 O          -0.8670   -1.5080    0.0000 O.2     1  LIG1       -0.2654
      8 S           0.9250    1.4960    0.0000 S.3     1  LIG1       -0.0636
      9 C           1.7540    0.9790    0.0000 C.3     1  LIG1        0.1743
     10 C           2.6210    1.4290    0.0000 C.2     1  LIG1        0.3287
     11 O           2.6420    2.4460    0.0000 O.2     1  LIG1       -0.2491
     12 O           3.4210    0.8500    0.0000 O.3     1  LIG1       -0.4438
     13 C           4.3130    1.2500    0.0000 C.3     1  LIG1        0.2556
     14 C          -2.6000    1.5330    0.0000 C.ar    1  LIG1        0.0136
     15 C          -3.4540    1.0290    0.0000 C.ar    1  LIG1       -0.0204
     16 C          -3.4540    0.0460    0.0000 C.3     1  LIG1        0.0309
     17 C          -2.6000   -0.4670    0.0000 C.3     1  LIG1        0.0329
     18 C          -2.6000   -1.4580    0.0000 C.3     1  LIG1        0.0046
     19 C          -3.3460   -2.1250    0.0000 C.3     1  LIG1        0.0003
     20 C          -2.9460   -3.0250    0.0000 C.3     1  LIG1        0.0000
     21 C          -1.9630   -2.9250    0.0000 C.3     1  LIG1        0.0000
     22 C          -1.7460   -1.9580    0.0000 C.3     1  LIG1        0.0003
     23 C          -4.3170    1.5330    0.0000 C.ar    1  LIG1       -0.0042
     24 C          -4.3170    2.5460    0.0000 C.ar    1  LIG1       -0.0003
     25 C          -3.4540    3.0290    0.0000 C.ar    1  LIG1        0.0000
     26 C          -2.6000    2.5460    0.0000 C.ar    1  LIG1        0.0012
@<TRIPOS>BOND
     1     1     2   ar
     2     1     6   ar
     3     1    17    1
     4     2     3   ar
     5     2    14    1
     6     3     4   ar
     7     4     5   ar
     8     4     8    1
     9     5     6   ar
    10     6     7    2
    11     8     9    1
    12     9    10    1
    13    10    11    2
    14    10    12    1
    15    12    13    1
    16    14    15   ar
    17    14    26   ar
    18    15    16    1
    19    15    23   ar
    20    16    17    1
    21    17    18    1
    22    18    19    1
    23    18    22    1
    24    19    20    1
    25    20    21    1
    26    21    22    1
    27    23    24   ar
    28    24    25   ar
    29    25    26   ar
