@<TRIPOS>MOLECULE
28518_ChemDiv_6049-1173
 25 27 0 0 0
SMALL
GASTEIGER
Energy = 0

@<TRIPOS>ATOM
      1 C           0.6250   -0.0130    0.0000 C.3     1  LIG1        0.1269
      2 C           0.1380    0.8330    0.0000 C.2     1  LIG1        0.2336
      3 N          -0.8420    0.8330    0.0000 N.am    1  LIG1       -0.2790
      4 C          -1.3130   -0.0170    0.0000 C.3     1  LIG1        0.0934
      5 C          -2.2920    0.0000    0.0000 C.3     1  LIG1        0.0199
      6 C          -2.7750    0.8420    0.0000 C.3     1  LIG1        0.0018
      7 C          -2.7920   -0.8380    0.0000 C.3     1  LIG1        0.0018
      8 C          -1.3000    1.6790    0.0000 C.3     1  LIG1        0.0934
      9 C          -3.0130    1.6960    0.0000 C.3     1  LIG1        0.0199
     10 C          -3.5380    0.8830    0.0000 C.3     1  LIG1        0.0018
     11 C          -3.4830    2.5460    0.0000 C.3     1  LIG1        0.0018
     12 O           0.6330    1.6750    0.0000 O.2     1  LIG1       -0.2742
     13 C           1.5920   -0.0130    0.0000 C.ar    1  LIG1        0.0249
     14 C           2.0880   -0.8540    0.0000 C.ar    1  LIG1        0.1420
     15 O           1.5920   -1.6960    0.0000 O.3     1  LIG1       -0.4541
     16 C           0.6330   -1.6960    0.0000 C.ar    1  LIG1        0.1420
     17 C           0.1380   -0.8420    0.0000 C.ar    1  LIG1        0.0249
     18 C          -0.8330   -0.8420    0.0000 C.ar    1  LIG1       -0.0005
     19 C          -1.3290   -1.6830    0.0000 C.ar    1  LIG1       -0.0001
     20 C          -0.8330   -2.5420    0.0000 C.ar    1  LIG1        0.0031
     21 C           0.1500   -2.5420    0.0000 C.ar    1  LIG1        0.0372
     22 C           3.0330   -0.8670    0.0000 C.ar    1  LIG1        0.0372
     23 C           3.5330   -0.0380    0.0000 C.ar    1  LIG1        0.0031
     24 C           3.0330    0.8170    0.0000 C.ar    1  LIG1       -0.0001
     25 C           2.0500    0.8170    0.0000 C.ar    1  LIG1       -0.0005
@<TRIPOS>BOND
     1     1     2    1
     2     1    13    1
     3     1    17    1
     4     2     3   am
     5     2    12    2
     6     3     4    1
     7     3     8    1
     8     4     5    1
     9     5     6    1
    10     5     7    1
    11     8     9    1
    12     9    10    1
    13     9    11    1
    14    13    14   ar
    15    13    25   ar
    16    14    15    1
    17    14    22   ar
    18    15    16    1
    19    16    17   ar
    20    16    21   ar
    21    17    18   ar
    22    18    19   ar
    23    19    20   ar
    24    20    21   ar
    25    22    23   ar
    26    23    24   ar
    27    24    25   ar
