@<TRIPOS>MOLECULE
28515_ChemDiv_3807-3227
 28 31 0 0 0
SMALL
GASTEIGER
Energy = 0

@<TRIPOS>ATOM
      1 C          -0.8540   -1.1040    0.0000 C.ar    1  LIG1        0.0530
      2 C          -0.8540   -0.1080    0.0000 C.ar    1  LIG1        0.0831
      3 N          -0.0080    0.3750    0.0000 N.ar    1  LIG1       -0.2255
      4 C           0.8710   -0.1080    0.0000 C.ar    1  LIG1        0.1998
      5 N           0.8710   -1.1040    0.0000 N.ar    1  LIG1       -0.1872
      6 C          -0.0080   -1.5960    0.0000 C.ar    1  LIG1        0.2779
      7 O          -0.0080   -2.5960    0.0000 O.2     1  LIG1       -0.2655
      8 C           1.7380    0.3750    0.0000 C.3     1  LIG1        0.2056
      9 N           1.7380    1.3750    0.0000 N.4     1  LIG1        0.3874
     10 C           2.5830    1.8630    0.0000 C.3     1  LIG1        0.1755
     11 C           2.5830    2.8580    0.0000 C.3     1  LIG1        0.2443
     12 O           3.4630    3.3630    0.0000 O.3     1  LIG1       -0.2137
     13 C           0.8750    1.8790    0.0000 C.3     1  LIG1        0.1755
     14 C           0.0210    1.3960    0.0000 C.3     1  LIG1        0.2443
     15 O          -0.8540    1.9000    0.0000 O.3     1  LIG1       -0.2137
     16 C          -1.7210    0.3750    0.0000 C.ar    1  LIG1        0.0136
     17 C          -2.5960   -0.1080    0.0000 C.ar    1  LIG1       -0.0204
     18 C          -2.5960   -1.1040    0.0000 C.3     1  LIG1        0.0306
     19 C          -1.7210   -1.5960    0.0000 C.3     1  LIG1        0.0290
     20 C          -1.2040   -2.4750    0.0000 C.3     1  LIG1        0.0046
     21 C          -1.7040   -3.3540    0.0000 C.3     1  LIG1        0.0003
     22 C          -2.7000   -3.3580    0.0000 C.3     1  LIG1        0.0000
     23 C          -3.2210   -2.4750    0.0000 C.3     1  LIG1        0.0003
     24 C          -2.7170   -1.5960    0.0000 C.3     1  LIG1        0.0046
     25 C          -3.4670    0.3750    0.0000 C.ar    1  LIG1       -0.0042
     26 C          -3.4420    1.3750    0.0000 C.ar    1  LIG1       -0.0003
     27 C          -2.5710    1.8920    0.0000 C.ar    1  LIG1        0.0000
     28 C          -1.7040    1.3960    0.0000 C.ar    1  LIG1        0.0012
@<TRIPOS>BOND
     1     1     2   ar
     2     1     6   ar
     3     1    19    1
     4     2     3   ar
     5     2    16    1
     6     3     4   ar
     7     4     5   ar
     8     4     8    1
     9     5     6   ar
    10     6     7    2
    11     8     9    1
    12     9    10    1
    13     9    13    1
    14    10    11    1
    15    11    12    1
    16    13    14    1
    17    14    15    1
    18    16    17   ar
    19    16    28   ar
    20    17    18    1
    21    17    25   ar
    22    18    19    1
    23    19    20    1
    24    19    24    1
    25    20    21    1
    26    21    22    1
    27    22    23    1
    28    23    24    1
    29    25    26   ar
    30    26    27   ar
    31    27    28   ar
