@<TRIPOS>MOLECULE
28521_ChemDiv_4164-0139
 25 28 0 0 0
SMALL
GASTEIGER
Energy = 0

@<TRIPOS>ATOM
      1 C          -1.2380   -0.5080    0.0000 C.ar    1  LIG1        0.0530
      2 C          -1.2380    0.5130    0.0000 C.ar    1  LIG1        0.0831
      3 N          -0.4130    1.0000    0.0000 N.ar    1  LIG1       -0.2255
      4 C           0.4080    0.5130    0.0000 C.ar    1  LIG1        0.1998
      5 N           0.4080   -0.5080    0.0000 N.ar    1  LIG1       -0.1872
      6 C          -0.4130   -0.9880    0.0000 C.ar    1  LIG1        0.2779
      7 O          -0.4130   -1.9500    0.0000 O.2     1  LIG1       -0.2655
      8 C           1.3000    1.0000    0.0000 C.3     1  LIG1        0.2054
      9 N           2.1210    0.5130    0.0000 N.4     1  LIG1        0.3832
     10 C           2.9460    1.0000    0.0000 C.3     1  LIG1        0.1394
     11 C           3.7670    0.5130    0.0000 C.3     1  LIG1        0.0689
     12 C           2.1210   -0.5080    0.0000 C.3     1  LIG1        0.1394
     13 C           2.9460   -0.9880    0.0000 C.3     1  LIG1        0.0689
     14 C          -2.1250    1.0000    0.0000 C.ar    1  LIG1        0.0136
     15 C          -2.9500    0.5130    0.0000 C.ar    1  LIG1       -0.0204
     16 C          -2.9500   -0.5080    0.0000 C.3     1  LIG1        0.0306
     17 C          -2.1250   -0.9880    0.0000 C.3     1  LIG1        0.0290
     18 C          -1.2380   -1.4670    0.0000 C.3     1  LIG1        0.0046
     19 C          -1.2380   -2.4290    0.0000 C.3     1  LIG1        0.0003
     20 C          -2.9500   -2.4290    0.0000 C.3     1  LIG1        0.0003
     21 C          -2.9500   -1.4670    0.0000 C.3     1  LIG1        0.0046
     22 C          -3.7710    1.0000    0.0000 C.ar    1  LIG1       -0.0042
     23 C          -3.7710    1.9580    0.0000 C.ar    1  LIG1       -0.0003
     24 C          -2.9500    2.4330    0.0000 C.ar    1  LIG1        0.0000
     25 C          -2.1250    1.9580    0.0000 C.ar    1  LIG1        0.0012
@<TRIPOS>BOND
     1     1     2   ar
     2     1     6   ar
     3     1    17    1
     4     2     3   ar
     5     2    14    1
     6     3     4   ar
     7     4     5   ar
     8     4     8    1
     9     5     6   ar
    10     6     7    2
    11     8     9    1
    12     9    10    1
    13     9    12    1
    14    10    11    1
    15    12    13    1
    16    14    15   ar
    17    14    25   ar
    18    15    16    1
    19    15    22   ar
    20    16    17    1
    21    17    18    1
    22    17    21    1
    23    18    19    1
    24    19    20    1
    25    20    21    1
    26    22    23   ar
    27    23    24   ar
    28    24    25   ar
