@<TRIPOS>MOLECULE
28528_ChemDiv_6049-2909
 28 32 0 0 0
SMALL
GASTEIGER
Energy = 0

@<TRIPOS>ATOM
      1 C           2.1790    0.4210    0.0000 C.3     1  LIG1        0.1269
      2 C           1.7000    1.2580    0.0000 C.2     1  LIG1        0.2337
      3 N          -0.2500    1.2580    0.0000 N.am    1  LIG1       -0.2755
      4 C          -0.7420    0.4080    0.0000 C.3     1  LIG1        0.1149
      5 C          -1.7170    0.4000    0.0000 C.3     1  LIG1        0.1151
      6 N          -2.1830    1.2580    0.0000 N.pl3   1  LIG1       -0.2747
      7 C          -3.1500    1.2670    0.0000 C.ar    1  LIG1        0.2203
      8 N          -3.6460    0.4460    0.0000 N.ar    1  LIG1       -0.2121
      9 C          -4.6080    0.4460    0.0000 C.ar    1  LIG1        0.1034
     10 C          -5.1040    1.2670    0.0000 C.ar    1  LIG1        0.0414
     11 C          -4.6000    2.1000    0.0000 C.ar    1  LIG1        0.1034
     12 N          -3.6380    2.1000    0.0000 N.ar    1  LIG1       -0.2121
     13 C          -1.7040    2.1000    0.0000 C.3     1  LIG1        0.1151
     14 C          -0.7420    2.1000    0.0000 C.3     1  LIG1        0.1149
     15 O           2.2000    2.0830    0.0000 O.2     1  LIG1       -0.2742
     16 C           1.6790   -0.4170    0.0000 C.ar    1  LIG1        0.0249
     17 C           2.1710   -1.2630    0.0000 C.ar    1  LIG1        0.1420
     18 O           3.1330   -1.2670    0.0000 O.3     1  LIG1       -0.4541
     19 C           3.6380   -0.4250    0.0000 C.ar    1  LIG1        0.1420
     20 C           3.1460    0.4130    0.0000 C.ar    1  LIG1        0.0249
     21 C           3.6380    1.2460    0.0000 C.ar    1  LIG1       -0.0005
     22 C           4.6250    1.2540    0.0000 C.ar    1  LIG1       -0.0001
     23 C           5.1000    0.4000    0.0000 C.ar    1  LIG1        0.0031
     24 C           4.6040   -0.4250    0.0000 C.ar    1  LIG1        0.0372
     25 C           1.6790   -2.0960    0.0000 C.ar    1  LIG1        0.0372
     26 C           0.6960   -2.0960    0.0000 C.ar    1  LIG1        0.0031
     27 C           0.2290   -1.2460    0.0000 C.ar    1  LIG1       -0.0001
     28 C           0.7170   -0.4170    0.0000 C.ar    1  LIG1       -0.0005
@<TRIPOS>BOND
     1     1     2    1
     2     1    16    1
     3     1    20    1
     4     2     3   am
     5     2    15    2
     6     3     4    1
     7     3    14    1
     8     4     5    1
     9     5     6    1
    10     6     7    1
    11     6    13    1
    12     7     8   ar
    13     7    12   ar
    14     8     9   ar
    15     9    10   ar
    16    10    11   ar
    17    11    12   ar
    18    13    14    1
    19    16    17   ar
    20    16    28   ar
    21    17    18    1
    22    17    25   ar
    23    18    19    1
    24    19    20   ar
    25    19    24   ar
    26    20    21   ar
    27    21    22   ar
    28    22    23   ar
    29    23    24   ar
    30    25    26   ar
    31    26    27   ar
    32    27    28   ar
