@<TRIPOS>MOLECULE
28520_ChemDiv_6049-1192
 29 33 0 0 0
SMALL
GASTEIGER
Energy = 0

@<TRIPOS>ATOM
      1 C           1.7830    0.4420    0.0000 C.3     1  LIG1        0.1269
      2 C           1.2830    1.3000    0.0000 C.2     1  LIG1        0.2337
      3 N           0.2750    1.3000    0.0000 N.am    1  LIG1       -0.2755
      4 C          -0.2330    0.4330    0.0000 C.3     1  LIG1        0.1148
      5 C          -1.2250    0.4330    0.0000 C.3     1  LIG1        0.1123
      6 N          -1.7460    1.2750    0.0000 N.pl3   1  LIG1       -0.3040
      7 C          -2.7330    1.2750    0.0000 C.ar    1  LIG1        0.0488
      8 C          -3.2420    0.4080    0.0000 C.ar    1  LIG1        0.0259
      9 C          -4.2580    0.4330    0.0000 C.ar    1  LIG1        0.0589
     10 CL         -4.7670   -0.4750    0.0000 Cl      1  LIG1       -0.0822
     11 C          -4.7670    1.3000    0.0000 C.ar    1  LIG1        0.0115
     12 C          -4.2500    2.1580    0.0000 C.ar    1  LIG1        0.0021
     13 C          -3.2420    2.1290    0.0000 C.ar    1  LIG1        0.0146
     14 C          -1.2500    2.1290    0.0000 C.3     1  LIG1        0.1123
     15 C          -0.2580    2.1580    0.0000 C.3     1  LIG1        0.1148
     16 O           1.7920    2.1580    0.0000 O.2     1  LIG1       -0.2742
     17 C           2.7710    0.4420    0.0000 C.ar    1  LIG1        0.0249
     18 C           3.2790   -0.4250    0.0000 C.ar    1  LIG1        0.1420
     19 O           2.7710   -1.2880    0.0000 O.3     1  LIG1       -0.4541
     20 C           1.7920   -1.2880    0.0000 C.ar    1  LIG1        0.1420
     21 C           1.2830   -0.4130    0.0000 C.ar    1  LIG1        0.0249
     22 C           0.2790   -0.4130    0.0000 C.ar    1  LIG1       -0.0005
     23 C          -0.2330   -1.2710    0.0000 C.ar    1  LIG1       -0.0001
     24 C           0.2790   -2.1540    0.0000 C.ar    1  LIG1        0.0031
     25 C           1.2920   -2.1540    0.0000 C.ar    1  LIG1        0.0372
     26 C           4.2540   -0.4380    0.0000 C.ar    1  LIG1        0.0372
     27 C           4.7630    0.4170    0.0000 C.ar    1  LIG1        0.0031
     28 C           4.2540    1.2830    0.0000 C.ar    1  LIG1       -0.0001
     29 C           3.2420    1.2830    0.0000 C.ar    1  LIG1       -0.0005
@<TRIPOS>BOND
     1     1     2    1
     2     1    17    1
     3     1    21    1
     4     2     3   am
     5     2    16    2
     6     3     4    1
     7     3    15    1
     8     4     5    1
     9     5     6    1
    10     6     7    1
    11     6    14    1
    12     7     8   ar
    13     7    13   ar
    14     8     9   ar
    15     9    10    1
    16     9    11   ar
    17    11    12   ar
    18    12    13   ar
    19    14    15    1
    20    17    18   ar
    21    17    29   ar
    22    18    19    1
    23    18    26   ar
    24    19    20    1
    25    20    21   ar
    26    20    25   ar
    27    21    22   ar
    28    22    23   ar
    29    23    24   ar
    30    24    25   ar
    31    26    27   ar
    32    27    28   ar
    33    28    29   ar
