@<TRIPOS>MOLECULE
28523_ChemDiv_4164-0145
 25 28 0 0 0
SMALL
GASTEIGER
Energy = 0

@<TRIPOS>ATOM
      1 C          -2.1880   -0.5170    0.0000 C.ar    1  LIG1        0.0530
      2 C          -2.1880    0.4500    0.0000 C.ar    1  LIG1        0.0830
      3 N          -1.2880    0.9290    0.0000 N.ar    1  LIG1       -0.2299
      4 C          -0.4580    0.4500    0.0000 C.ar    1  LIG1        0.1532
      5 N          -0.4580   -0.5170    0.0000 N.ar    1  LIG1       -0.1923
      6 C          -1.2880   -1.0000    0.0000 C.ar    1  LIG1        0.2777
      7 O          -1.2880   -1.9710    0.0000 O.2     1  LIG1       -0.2655
      8 C           0.3750    0.9290    0.0000 C.3     1  LIG1        0.1231
      9 S           1.2710    0.4500    0.0000 S.3     1  LIG1       -0.1321
     10 C           2.1040    0.9290    0.0000 C.3     1  LIG1        0.0580
     11 C           2.9330    0.4500    0.0000 C.3     1  LIG1        0.0117
     12 C           3.7630    0.9290    0.0000 C.3     1  LIG1        0.0009
     13 C           4.6630    0.4500    0.0000 C.3     1  LIG1        0.0000
     14 C          -3.0170    0.9290    0.0000 C.ar    1  LIG1        0.0136
     15 C          -3.8460    0.4500    0.0000 C.ar    1  LIG1       -0.0204
     16 C          -3.8460   -0.5170    0.0000 C.3     1  LIG1        0.0306
     17 C          -3.0170   -1.0000    0.0000 C.3     1  LIG1        0.0290
     18 C          -2.1880   -1.4830    0.0000 C.3     1  LIG1        0.0046
     19 C          -2.1880   -2.4500    0.0000 C.3     1  LIG1        0.0003
     20 C          -3.8460   -2.4500    0.0000 C.3     1  LIG1        0.0003
     21 C          -3.8460   -1.4830    0.0000 C.3     1  LIG1        0.0046
     22 C          -4.6670    0.9290    0.0000 C.ar    1  LIG1       -0.0042
     23 C          -4.6670    1.9670    0.0000 C.ar    1  LIG1       -0.0003
     24 C          -3.8460    2.4540    0.0000 C.ar    1  LIG1        0.0000
     25 C          -3.0170    1.9670    0.0000 C.ar    1  LIG1        0.0012
@<TRIPOS>BOND
     1     1     2   ar
     2     1     6   ar
     3     1    17    1
     4     2     3   ar
     5     2    14    1
     6     3     4   ar
     7     4     5   ar
     8     4     8    1
     9     5     6   ar
    10     6     7    2
    11     8     9    1
    12     9    10    1
    13    10    11    1
    14    11    12    1
    15    12    13    1
    16    14    15   ar
    17    14    25   ar
    18    15    16    1
    19    15    22   ar
    20    16    17    1
    21    17    18    1
    22    17    21    1
    23    18    19    1
    24    19    20    1
    25    20    21    1
    26    22    23   ar
    27    23    24   ar
    28    24    25   ar
