@<TRIPOS>MOLECULE
28527_ChemDiv_4184-0150
 32 36 0 0 0
SMALL
GASTEIGER
Energy = 0

@<TRIPOS>ATOM
      1 N           0.4210   -0.2040    0.0000 N.ar    1  LIG1       -0.2776
      2 C          -0.4250   -0.7040    0.0000 C.ar    1  LIG1        0.2596
      3 C          -1.3420   -0.2040    0.0000 C.ar    1  LIG1        0.0513
      4 C          -1.3420    0.7790    0.0000 C.ar    1  LIG1        0.0836
      5 N          -0.4250    1.2710    0.0000 N.ar    1  LIG1       -0.2227
      6 C           0.4210    0.7790    0.0000 C.ar    1  LIG1        0.1744
      7 S           1.2670    1.2710    0.0000 S.3     1  LIG1       -0.0606
      8 C           2.1880    0.7790    0.0000 C.3     1  LIG1        0.1698
      9 C           3.0330    1.2710    0.0000 C.1     1  LIG1        0.0856
     10 N           3.8790    0.7790    0.0000 N.1     1  LIG1       -0.1949
     11 C          -2.1920    1.2710    0.0000 C.ar    1  LIG1        0.0136
     12 C          -3.0380    0.7790    0.0000 C.ar    1  LIG1       -0.0204
     13 C          -3.0380   -0.2040    0.0000 C.3     1  LIG1        0.0306
     14 C          -2.1920   -0.7040    0.0000 C.3     1  LIG1        0.0289
     15 C          -3.0380   -1.2670    0.0000 C.3     1  LIG1        0.0046
     16 C          -3.0380   -2.2540    0.0000 C.3     1  LIG1        0.0003
     17 C          -2.1920   -2.7500    0.0000 C.3     1  LIG1        0.0000
     18 C          -1.3420   -2.2540    0.0000 C.3     1  LIG1        0.0003
     19 C          -1.3420   -1.2670    0.0000 C.3     1  LIG1        0.0046
     20 C          -3.8830    1.2710    0.0000 C.ar    1  LIG1       -0.0042
     21 C          -3.8830    2.2540    0.0000 C.ar    1  LIG1       -0.0003
     22 C          -3.0380    2.7540    0.0000 C.ar    1  LIG1        0.0000
     23 C          -2.1920    2.2540    0.0000 C.ar    1  LIG1        0.0012
     24 O          -0.4250   -1.7630    0.0000 O.2     1  LIG1       -0.2672
     25 C           1.2670   -0.7040    0.0000 C.3     1  LIG1        0.0951
     26 C           2.1880   -0.2040    0.0000 C.3     1  LIG1        0.0500
     27 C           3.0330   -0.7040    0.0000 C.3     1  LIG1        0.0947
     28 O           3.0330   -1.7630    0.0000 O.3     1  LIG1       -0.3584
     29 C           2.1880   -2.2540    0.0000 C.3     1  LIG1        0.1439
     30 C           1.2670   -1.7630    0.0000 C.3     1  LIG1        0.0548
     31 C           3.0330    0.2790    0.0000 C.3     1  LIG1        0.0297
     32 C           3.8790   -1.2670    0.0000 C.3     1  LIG1        0.0297
@<TRIPOS>BOND
     1     1     2   ar
     2     1     6   ar
     3     1    25    1
     4     2     3   ar
     5     2    24    2
     6     3     4   ar
     7     3    14    1
     8     4     5   ar
     9     4    11    1
    10     5     6   ar
    11     6     7    1
    12     7     8    1
    13     8     9    1
    14     9    10    3
    15    11    12   ar
    16    11    23   ar
    17    12    13    1
    18    12    20   ar
    19    13    14    1
    20    14    15    1
    21    14    19    1
    22    15    16    1
    23    16    17    1
    24    17    18    1
    25    18    19    1
    26    20    21   ar
    27    21    22   ar
    28    22    23   ar
    29    25    26    1
    30    25    30    1
    31    26    27    1
    32    27    28    1
    33    27    31    1
    34    27    32    1
    35    28    29    1
    36    29    30    1
