@<TRIPOS>MOLECULE
28522_ChemDiv_6049-1352
 23 26 0 0 0
SMALL
GASTEIGER
Energy = 0

@<TRIPOS>ATOM
      1 C           0.7380    0.4420    0.0000 C.3     1  LIG1        0.1269
      2 C           0.2290    1.3130    0.0000 C.2     1  LIG1        0.2336
      3 N          -0.7790    1.3130    0.0000 N.am    1  LIG1       -0.2790
      4 C          -1.2750    2.1790    0.0000 C.3     1  LIG1        0.0934
      5 C          -2.2420    2.1790    0.0000 C.3     1  LIG1        0.0216
      6 C          -2.7250    1.3380    0.0000 C.3     1  LIG1        0.0034
      7 C          -2.2580    0.5250    0.0000 C.3     1  LIG1        0.0216
      8 C          -1.3460    0.4670    0.0000 C.3     1  LIG1        0.0934
      9 C          -3.7630    1.3790    0.0000 C.3     1  LIG1        0.0001
     10 O           0.7500    2.1830    0.0000 O.2     1  LIG1       -0.2742
     11 C           1.7420    0.4420    0.0000 C.ar    1  LIG1        0.0249
     12 C           2.2580   -0.4330    0.0000 C.ar    1  LIG1        0.1420
     13 O           1.7420   -1.3040    0.0000 O.3     1  LIG1       -0.4541
     14 C           0.7500   -1.3040    0.0000 C.ar    1  LIG1        0.1420
     15 C           0.2290   -0.4210    0.0000 C.ar    1  LIG1        0.0249
     16 C          -0.7670   -0.4210    0.0000 C.ar    1  LIG1       -0.0005
     17 C          -1.2880   -1.2920    0.0000 C.ar    1  LIG1       -0.0001
     18 C          -0.7670   -2.1790    0.0000 C.ar    1  LIG1        0.0031
     19 C           0.2460   -2.1790    0.0000 C.ar    1  LIG1        0.0372
     20 C           3.2380   -0.4500    0.0000 C.ar    1  LIG1        0.0372
     21 C           3.7580    0.4170    0.0000 C.ar    1  LIG1        0.0031
     22 C           3.2380    1.2960    0.0000 C.ar    1  LIG1       -0.0001
     23 C           2.2170    1.2960    0.0000 C.ar    1  LIG1       -0.0005
@<TRIPOS>BOND
     1     1     2    1
     2     1    11    1
     3     1    15    1
     4     2     3   am
     5     2    10    2
     6     3     4    1
     7     3     8    1
     8     4     5    1
     9     5     6    1
    10     6     7    1
    11     6     9    1
    12     7     8    1
    13    11    12   ar
    14    11    23   ar
    15    12    13    1
    16    12    20   ar
    17    13    14    1
    18    14    15   ar
    19    14    19   ar
    20    15    16   ar
    21    16    17   ar
    22    17    18   ar
    23    18    19   ar
    24    20    21   ar
    25    21    22   ar
    26    22    23   ar
