@<TRIPOS>MOLECULE
28525_ChemDiv_4184-0132
 30 34 0 0 0
SMALL
GASTEIGER
Energy = 0

@<TRIPOS>ATOM
      1 N           0.4460   -0.5130    0.0000 N.ar    1  LIG1       -0.2776
      2 C          -0.4500   -0.9960    0.0000 C.ar    1  LIG1        0.2596
      3 C          -1.2790   -0.5130    0.0000 C.ar    1  LIG1        0.0513
      4 C          -1.2790    0.5170    0.0000 C.ar    1  LIG1        0.0836
      5 N          -0.4500    1.0080    0.0000 N.ar    1  LIG1       -0.2227
      6 C           0.4460    0.5170    0.0000 C.ar    1  LIG1        0.1734
      7 S           1.2750    1.0080    0.0000 S.3     1  LIG1       -0.0773
      8 C           2.1040    0.4540    0.0000 C.3     1  LIG1        0.0651
      9 C           2.9330    1.0080    0.0000 C.3     1  LIG1        0.0130
     10 C          -2.1080    1.0080    0.0000 C.ar    1  LIG1        0.0136
     11 C          -2.9380    0.5170    0.0000 C.ar    1  LIG1       -0.0204
     12 C          -2.9380   -0.5130    0.0000 C.3     1  LIG1        0.0306
     13 C          -2.1080   -0.9960    0.0000 C.3     1  LIG1        0.0289
     14 C          -2.9380   -1.4790    0.0000 C.3     1  LIG1        0.0046
     15 C          -2.9380   -2.4500    0.0000 C.3     1  LIG1        0.0003
     16 C          -1.2790   -2.4500    0.0000 C.3     1  LIG1        0.0003
     17 C          -1.2790   -1.4790    0.0000 C.3     1  LIG1        0.0046
     18 C          -3.8380    1.0080    0.0000 C.ar    1  LIG1       -0.0042
     19 C          -3.8380    1.9750    0.0000 C.ar    1  LIG1       -0.0003
     20 C          -2.9380    2.4540    0.0000 C.ar    1  LIG1        0.0000
     21 C          -2.1080    1.9750    0.0000 C.ar    1  LIG1        0.0012
     22 O          -0.4500   -1.9670    0.0000 O.2     1  LIG1       -0.2672
     23 C           1.2750   -0.9960    0.0000 C.3     1  LIG1        0.0951
     24 C           2.1040   -0.5130    0.0000 C.3     1  LIG1        0.0500
     25 C           2.9330   -0.9960    0.0000 C.3     1  LIG1        0.0947
     26 O           2.9330   -1.9670    0.0000 O.3     1  LIG1       -0.3584
     27 C           2.1040   -2.4500    0.0000 C.3     1  LIG1        0.1439
     28 C           1.2750   -1.9670    0.0000 C.3     1  LIG1        0.0548
     29 C           2.9330   -0.0290    0.0000 C.3     1  LIG1        0.0297
     30 C           3.8330   -1.4790    0.0000 C.3     1  LIG1        0.0297
@<TRIPOS>BOND
     1     1     2   ar
     2     1     6   ar
     3     1    23    1
     4     2     3   ar
     5     2    22    2
     6     3     4   ar
     7     3    13    1
     8     4     5   ar
     9     4    10    1
    10     5     6   ar
    11     6     7    1
    12     7     8    1
    13     8     9    1
    14    10    11   ar
    15    10    21   ar
    16    11    12    1
    17    11    18   ar
    18    12    13    1
    19    13    14    1
    20    13    17    1
    21    14    15    1
    22    15    16    1
    23    16    17    1
    24    18    19   ar
    25    19    20   ar
    26    20    21   ar
    27    23    24    1
    28    23    28    1
    29    24    25    1
    30    25    26    1
    31    25    29    1
    32    25    30    1
    33    26    27    1
    34    27    28    1
