@<TRIPOS>MOLECULE
28526_ChemDiv_6049-1669
 24 26 0 0 0
SMALL
GASTEIGER
Energy = 0

@<TRIPOS>ATOM
      1 C           1.0330    0.2920    0.0000 C.2     1  LIG1        0.2493
      2 C           1.5210   -0.5500    0.0000 C.3     1  LIG1        0.1284
      3 C           2.5000   -0.5500    0.0000 C.ar    1  LIG1        0.0250
      4 C           3.0000   -1.4040    0.0000 C.ar    1  LIG1        0.1420
      5 O           2.5000   -2.2540    0.0000 O.3     1  LIG1       -0.4541
      6 C           1.5330   -2.2540    0.0000 C.ar    1  LIG1        0.1420
      7 C           1.0330   -1.3960    0.0000 C.ar    1  LIG1        0.0250
      8 C           0.0500   -1.3960    0.0000 C.ar    1  LIG1       -0.0005
      9 C          -0.4580   -2.2460    0.0000 C.ar    1  LIG1       -0.0001
     10 C           0.0500   -3.1080    0.0000 C.ar    1  LIG1        0.0031
     11 C           1.0420   -3.1080    0.0000 C.ar    1  LIG1        0.0372
     12 C           3.9580   -1.4250    0.0000 C.ar    1  LIG1        0.0372
     13 C           4.4630   -0.5750    0.0000 C.ar    1  LIG1        0.0031
     14 C           3.9580    0.2790    0.0000 C.ar    1  LIG1       -0.0001
     15 C           2.9630    0.2790    0.0000 C.ar    1  LIG1       -0.0005
     16 N           0.0380    0.2920    0.0000 N.am    1  LIG1       -0.2066
     17 C          -0.4290    1.1670    0.0000 C.3     1  LIG1        0.0954
     18 C          -1.4330    1.2170    0.0000 C.3     1  LIG1        0.0217
     19 C          -1.8670    2.1130    0.0000 C.3     1  LIG1        0.0018
     20 C          -2.8710    2.1670    0.0000 C.3     1  LIG1        0.0001
     21 C          -3.3330    3.1130    0.0000 C.3     1  LIG1        0.0000
     22 C          -4.4670    3.0000    0.0000 C.3     1  LIG1        0.0000
     23 C           0.3250    1.9960    0.0000 C.3     1  LIG1        0.0234
     24 O           1.5330    1.1460    0.0000 O.2     1  LIG1       -0.2726
@<TRIPOS>BOND
     1     1     2    1
     2     1    16   am
     3     1    24    2
     4     2     3    1
     5     2     7    1
     6     3     4   ar
     7     3    15   ar
     8     4     5    1
     9     4    12   ar
    10     5     6    1
    11     6     7   ar
    12     6    11   ar
    13     7     8   ar
    14     8     9   ar
    15     9    10   ar
    16    10    11   ar
    17    12    13   ar
    18    13    14   ar
    19    14    15   ar
    20    16    17    1
    21    17    18    1
    22    17    23    1
    23    18    19    1
    24    19    20    1
    25    20    21    1
    26    21    22    1
