@<TRIPOS>MOLECULE
28531_ChemDiv_2859-0394
 23 25 0 0 0
SMALL
GASTEIGER
Energy = 0

@<TRIPOS>ATOM
      1 N           0.9750    0.7540    0.0000 N.am    1  LIG1       -0.2415
      2 C           1.0790   -0.2380    0.0000 C.2     1  LIG1        0.3271
      3 N           0.3000   -0.8250    0.0000 N.am    1  LIG1       -0.1899
      4 C           0.3790   -1.8250    0.0000 C.3     1  LIG1        0.0969
      5 C           1.3000   -2.2380    0.0000 C.3     1  LIG1        0.0217
      6 C           1.4330   -3.1960    0.0000 C.3     1  LIG1        0.0018
      7 C           0.6710   -3.8290    0.0000 C.3     1  LIG1        0.0001
      8 C          -0.3130   -3.4330    0.0000 C.3     1  LIG1        0.0018
      9 C          -0.3920   -2.4500    0.0000 C.3     1  LIG1        0.0217
     10 O           1.9580   -0.5630    0.0000 O.2     1  LIG1       -0.2504
     11 C           0.0380    1.2330    0.0000 C.ar    1  LIG1        0.0548
     12 C           0.0040    2.2540    0.0000 C.ar    1  LIG1        0.0095
     13 C           0.9040    2.8130    0.0000 C.2     1  LIG1       -0.0234
     14 C           1.7130    2.3130    0.0000 C.2     1  LIG1       -0.0124
     15 C           1.7500    1.3040    0.0000 C.3     1  LIG1        0.0843
     16 C           2.5920    0.8040    0.0000 C.3     1  LIG1        0.0248
     17 C           2.5920    1.8920    0.0000 C.3     1  LIG1        0.0248
     18 C           0.8710    3.8330    0.0000 C.3     1  LIG1        0.0308
     19 C          -0.8580    2.7540    0.0000 C.ar    1  LIG1        0.0006
     20 C          -1.6830    2.1830    0.0000 C.ar    1  LIG1       -0.0042
     21 C          -1.6540    1.1750    0.0000 C.ar    1  LIG1       -0.0206
     22 C          -0.7790    0.7000    0.0000 C.ar    1  LIG1        0.0107
     23 C          -2.5960    0.7330    0.0000 C.3     1  LIG1        0.0311
@<TRIPOS>BOND
     1     1     2   am
     2     1    11    1
     3     1    15    1
     4     2     3   am
     5     2    10    2
     6     3     4    1
     7     4     5    1
     8     4     9    1
     9     5     6    1
    10     6     7    1
    11     7     8    1
    12     8     9    1
    13    11    12   ar
    14    11    22   ar
    15    12    13    1
    16    12    19   ar
    17    13    14    2
    18    13    18    1
    19    14    15    1
    20    15    16    1
    21    15    17    1
    22    19    20   ar
    23    20    21   ar
    24    21    22   ar
    25    21    23    1
