@<TRIPOS>MOLECULE
28539_ChemDiv_3807-4394
 24 26 0 0 0
SMALL
GASTEIGER
Energy = 0

@<TRIPOS>ATOM
      1 S           0.8210    0.0000    0.0000 S.O2    1  LIG1        0.0767
      2 N           0.8210    0.9920    0.0000 N.pl3   1  LIG1       -0.1901
      3 C          -0.0580    1.4960    0.0000 C.ar    1  LIG1        0.0687
      4 C          -0.0580    2.5000    0.0000 C.ar    1  LIG1        0.0115
      5 C           0.8210    2.9880    0.0000 C.2     1  LIG1       -0.0233
      6 C           1.6920    2.4880    0.0000 C.2     1  LIG1       -0.0111
      7 C           1.6920    1.5130    0.0000 C.3     1  LIG1        0.0976
      8 C           2.3130    0.7380    0.0000 C.3     1  LIG1        0.0262
      9 C           2.6670    1.6790    0.0000 C.3     1  LIG1        0.0262
     10 C           0.8210    3.9920    0.0000 C.3     1  LIG1        0.0308
     11 C          -0.9080    2.9880    0.0000 C.ar    1  LIG1        0.0123
     12 C          -1.7790    2.4880    0.0000 C.ar    1  LIG1        0.0577
     13 C          -1.7790    1.5130    0.0000 C.ar    1  LIG1        0.0127
     14 C          -0.9080    0.9920    0.0000 C.ar    1  LIG1        0.0170
     15 CL         -2.6710    2.9880    0.0000 Cl      1  LIG1       -0.0822
     16 C           0.8210   -1.0040    0.0000 C.ar    1  LIG1        0.1254
     17 C           1.6920   -1.5080    0.0000 C.ar    1  LIG1        0.0199
     18 C           1.6920   -2.4920    0.0000 C.ar    1  LIG1       -0.0029
     19 C           0.8040   -2.9960    0.0000 C.ar    1  LIG1       -0.0218
     20 C          -0.0580   -2.4920    0.0000 C.ar    1  LIG1       -0.0029
     21 C          -0.0580   -1.4880    0.0000 C.ar    1  LIG1        0.0199
     22 C           0.8040   -3.9880    0.0000 C.3     1  LIG1        0.0310
     23 O          -0.1880    0.0000    0.0000 O.2     1  LIG1       -0.1497
     24 O           1.8250    0.0000    0.0000 O.2     1  LIG1       -0.1497
@<TRIPOS>BOND
     1     1     2    1
     2     1    16    1
     3     1    23    2
     4     1    24    2
     5     2     3    1
     6     2     7    1
     7     3     4   ar
     8     3    14   ar
     9     4     5    1
    10     4    11   ar
    11     5     6    2
    12     5    10    1
    13     6     7    1
    14     7     8    1
    15     7     9    1
    16    11    12   ar
    17    12    13   ar
    18    12    15    1
    19    13    14   ar
    20    16    17   ar
    21    16    21   ar
    22    17    18   ar
    23    18    19   ar
    24    19    20   ar
    25    19    22    1
    26    20    21   ar
