@<TRIPOS>MOLECULE
28537_ChemDiv_3807-4124
 24 26 0 0 0
SMALL
GASTEIGER
Energy = 0

@<TRIPOS>ATOM
      1 N          -3.1080    0.2250    0.0000 N.am    1  LIG1       -0.2186
      2 C          -3.9000    0.7330    0.0000 C.2     1  LIG1        0.2323
      3 C          -4.6880    0.0920    0.0000 C.3     1  LIG1        0.0953
      4 C          -4.3290   -0.8130    0.0000 C.3     1  LIG1        0.0953
      5 C          -3.2880   -0.7290    0.0000 C.2     1  LIG1        0.2323
      6 O          -2.6540   -1.5170    0.0000 O.2     1  LIG1       -0.2744
      7 O          -3.9540    1.7460    0.0000 O.2     1  LIG1       -0.2744
      8 C          -2.1830    0.6580    0.0000 C.3     1  LIG1        0.2105
      9 C          -1.4130    0.0630    0.0000 C.2     1  LIG1        0.3424
     10 O          -0.5380    0.5170    0.0000 O.3     1  LIG1       -0.4229
     11 C           0.3290   -0.0210    0.0000 C.ar    1  LIG1        0.1486
     12 C           1.1830    0.4790    0.0000 C.ar    1  LIG1        0.0386
     13 C           2.0290   -0.0210    0.0000 C.ar    1  LIG1        0.0137
     14 C           2.8960    0.4790    0.0000 C.2     1  LIG1       -0.0232
     15 C           3.7540   -0.0210    0.0000 C.2     1  LIG1       -0.0112
     16 C           3.7540   -1.0210    0.0000 C.3     1  LIG1        0.0941
     17 N           2.8960   -1.5290    0.0000 N.pl3   1  LIG1       -0.2369
     18 C           2.0290   -1.0210    0.0000 C.ar    1  LIG1        0.0654
     19 C           1.1830   -1.5290    0.0000 C.ar    1  LIG1        0.0192
     20 C           0.3290   -1.0210    0.0000 C.ar    1  LIG1        0.0389
     21 C           4.6830   -0.7380    0.0000 C.3     1  LIG1        0.0261
     22 C           4.5040   -1.7420    0.0000 C.3     1  LIG1        0.0261
     23 C           2.8960    1.5210    0.0000 C.3     1  LIG1        0.0308
     24 O          -1.5080   -0.9630    0.0000 O.2     1  LIG1       -0.2478
@<TRIPOS>BOND
     1     1     2   am
     2     1     5   am
     3     1     8    1
     4     2     3    1
     5     2     7    2
     6     3     4    1
     7     4     5    1
     8     5     6    2
     9     8     9    1
    10     9    10    1
    11     9    24    2
    12    10    11    1
    13    11    12   ar
    14    11    20   ar
    15    12    13   ar
    16    13    14    1
    17    13    18   ar
    18    14    15    2
    19    14    23    1
    20    15    16    1
    21    16    17    1
    22    16    21    1
    23    16    22    1
    24    17    18    1
    25    18    19   ar
    26    19    20   ar
