@<TRIPOS>MOLECULE
28545_ChemDiv_4209-0008
 23 26 0 0 0
SMALL
GASTEIGER
Energy = 0

@<TRIPOS>ATOM
      1 C          -1.2290   -0.5080    0.0000 C.ar    1  LIG1        0.0530
      2 C          -1.2290    0.4500    0.0000 C.ar    1  LIG1        0.0837
      3 N          -0.4130    0.9920    0.0000 N.ar    1  LIG1       -0.2213
      4 C           0.4080    0.4500    0.0000 C.ar    1  LIG1        0.1937
      5 N           0.4080   -0.5080    0.0000 N.ar    1  LIG1       -0.1830
      6 C          -0.4130   -0.9830    0.0000 C.ar    1  LIG1        0.2784
      7 O          -0.4130   -1.9380    0.0000 O.2     1  LIG1       -0.2654
      8 S           1.2250    0.9920    0.0000 S.3     1  LIG1       -0.0612
      9 C           2.1130    0.4500    0.0000 C.3     1  LIG1        0.1416
     10 C           2.9290    0.9920    0.0000 C.1     1  LIG1       -0.0655
     11 C           3.7500    0.4500    0.0000 C.1     1  LIG1       -0.0132
     12 C          -2.1170    0.9920    0.0000 C.ar    1  LIG1        0.0136
     13 C          -2.9330    0.4500    0.0000 C.ar    1  LIG1       -0.0204
     14 C          -2.9330   -0.5080    0.0000 C.3     1  LIG1        0.0306
     15 C          -2.1170   -0.9830    0.0000 C.3     1  LIG1        0.0290
     16 C          -2.9330   -1.4630    0.0000 C.3     1  LIG1        0.0046
     17 C          -2.9330   -2.4170    0.0000 C.3     1  LIG1        0.0003
     18 C          -1.2290   -2.4170    0.0000 C.3     1  LIG1        0.0003
     19 C          -1.2290   -1.4630    0.0000 C.3     1  LIG1        0.0046
     20 C          -3.7540    0.9920    0.0000 C.ar    1  LIG1       -0.0042
     21 C          -3.7540    1.9500    0.0000 C.ar    1  LIG1       -0.0003
     22 C          -2.9330    2.4210    0.0000 C.ar    1  LIG1        0.0000
     23 C          -2.1170    1.9500    0.0000 C.ar    1  LIG1        0.0012
@<TRIPOS>BOND
     1     1     2   ar
     2     1     6   ar
     3     1    15    1
     4     2     3   ar
     5     2    12    1
     6     3     4   ar
     7     4     5   ar
     8     4     8    1
     9     5     6   ar
    10     6     7    2
    11     8     9    1
    12     9    10    1
    13    10    11    3
    14    12    13   ar
    15    12    23   ar
    16    13    14    1
    17    13    20   ar
    18    14    15    1
    19    15    16    1
    20    15    19    1
    21    16    17    1
    22    17    18    1
    23    18    19    1
    24    20    21   ar
    25    21    22   ar
    26    22    23   ar
