@<TRIPOS>MOLECULE
28547_ChemDiv_4222-0088
 29 32 0 0 0
SMALL
GASTEIGER
Energy = 0

@<TRIPOS>ATOM
      1 C          -2.1670   -0.2040    0.0000 C.ar    1  LIG1        0.0513
      2 C          -1.3170   -0.7080    0.0000 C.ar    1  LIG1        0.2597
      3 N          -0.4630   -0.2040    0.0000 N.ar    1  LIG1       -0.2759
      4 C          -0.4630    0.7830    0.0000 C.ar    1  LIG1        0.1739
      5 N          -1.3170    1.2790    0.0000 N.ar    1  LIG1       -0.2227
      6 C          -2.1670    0.7830    0.0000 C.ar    1  LIG1        0.0836
      7 C          -3.0170    1.2790    0.0000 C.ar    1  LIG1        0.0136
      8 C          -3.8710    0.7830    0.0000 C.ar    1  LIG1       -0.0204
      9 C          -3.8710   -0.2040    0.0000 C.3     1  LIG1        0.0306
     10 C          -3.0170   -0.7080    0.0000 C.3     1  LIG1        0.0289
     11 C          -3.8710   -1.2000    0.0000 C.3     1  LIG1        0.0046
     12 C          -3.8710   -2.2000    0.0000 C.3     1  LIG1        0.0003
     13 C          -3.0170   -2.7670    0.0000 C.3     1  LIG1        0.0000
     14 C          -2.1670   -2.2000    0.0000 C.3     1  LIG1        0.0003
     15 C          -2.1670   -1.2000    0.0000 C.3     1  LIG1        0.0046
     16 C          -4.7920    1.2790    0.0000 C.ar    1  LIG1       -0.0042
     17 C          -4.7920    2.2670    0.0000 C.ar    1  LIG1       -0.0003
     18 C          -3.8710    2.7710    0.0000 C.ar    1  LIG1        0.0000
     19 C          -3.0170    2.2670    0.0000 C.ar    1  LIG1        0.0012
     20 S           0.4580    1.2790    0.0000 S.3     1  LIG1       -0.0653
     21 C           1.3130    0.7830    0.0000 C.3     1  LIG1        0.1742
     22 C           2.1630    1.2790    0.0000 C.2     1  LIG1        0.3286
     23 O           2.1630    2.2670    0.0000 O.2     1  LIG1       -0.2491
     24 O           3.0830    0.7830    0.0000 O.3     1  LIG1       -0.4479
     25 C           3.9380    1.2790    0.0000 C.3     1  LIG1        0.2086
     26 C           4.7880    0.7830    0.0000 C.3     1  LIG1        0.0513
     27 C           0.4580   -0.7080    0.0000 C.3     1  LIG1        0.1110
     28 C           0.4580   -1.7000    0.0000 C.3     1  LIG1        0.0266
     29 O          -1.3170   -1.7000    0.0000 O.2     1  LIG1       -0.2672
@<TRIPOS>BOND
     1     1     2   ar
     2     1     6   ar
     3     1    10    1
     4     2     3   ar
     5     2    29    2
     6     3     4   ar
     7     3    27    1
     8     4     5   ar
     9     4    20    1
    10     5     6   ar
    11     6     7    1
    12     7     8   ar
    13     7    19   ar
    14     8     9    1
    15     8    16   ar
    16     9    10    1
    17    10    11    1
    18    10    15    1
    19    11    12    1
    20    12    13    1
    21    13    14    1
    22    14    15    1
    23    16    17   ar
    24    17    18   ar
    25    18    19   ar
    26    20    21    1
    27    21    22    1
    28    22    23    2
    29    22    24    1
    30    24    25    1
    31    25    26    1
    32    27    28    1
