@<TRIPOS>MOLECULE
28553_ChemDiv_4222-0168
 20 22 0 0 0
SMALL
GASTEIGER
Energy = 0

@<TRIPOS>ATOM
      1 C           0.0000   -0.6960    0.0000 C.ar    1  LIG1        0.0513
      2 C           0.8420   -1.1920    0.0000 C.ar    1  LIG1        0.2597
      3 N           1.6830   -0.6960    0.0000 N.ar    1  LIG1       -0.2753
      4 C           1.6830    0.2880    0.0000 C.ar    1  LIG1        0.1838
      5 N           0.8420    0.7710    0.0000 N.ar    1  LIG1       -0.2220
      6 C           0.0000    0.2880    0.0000 C.ar    1  LIG1        0.0836
      7 C          -0.9170    0.7710    0.0000 C.ar    1  LIG1        0.0136
      8 C          -1.7580    0.2880    0.0000 C.ar    1  LIG1       -0.0204
      9 C          -1.7580   -0.6960    0.0000 C.3     1  LIG1        0.0306
     10 C          -0.9170   -1.1920    0.0000 C.3     1  LIG1        0.0289
     11 C           0.0000   -1.7540    0.0000 C.3     1  LIG1        0.0049
     12 C          -1.7580   -1.7540    0.0000 C.3     1  LIG1        0.0049
     13 C          -2.6000    0.7710    0.0000 C.ar    1  LIG1       -0.0042
     14 C          -2.6000    1.7580    0.0000 C.ar    1  LIG1       -0.0003
     15 C          -1.7580    2.2500    0.0000 C.ar    1  LIG1        0.0000
     16 C          -0.9170    1.7580    0.0000 C.ar    1  LIG1        0.0012
     17 S           2.5960    0.7710    0.0000 S.2     1  LIG1       -0.0109
     18 C           2.5960   -1.2630    0.0000 C.3     1  LIG1        0.1110
     19 C           2.5960   -2.2460    0.0000 C.3     1  LIG1        0.0266
     20 O           0.8420   -2.2460    0.0000 O.2     1  LIG1       -0.2672
@<TRIPOS>BOND
     1     1     2   ar
     2     1     6   ar
     3     1    10    1
     4     2     3   ar
     5     2    20    2
     6     3     4   ar
     7     3    18    1
     8     4     5   ar
     9     4    17    2
    10     5     6   ar
    11     6     7    1
    12     7     8   ar
    13     7    16   ar
    14     8     9    1
    15     8    13   ar
    16     9    10    1
    17    10    11    1
    18    10    12    1
    19    13    14   ar
    20    14    15   ar
    21    15    16   ar
    22    18    19    1
