@<TRIPOS>MOLECULE
28557_ChemDiv_4258-0004
 29 32 0 0 0
SMALL
GASTEIGER
Energy = 0

@<TRIPOS>ATOM
      1 C          -1.2670   -0.4540    0.0000 C.ar    1  LIG1        0.0513
      2 C          -1.2670    0.5250    0.0000 C.ar    1  LIG1        0.0831
      3 N          -0.4250    1.0250    0.0000 N.ar    1  LIG1       -0.2284
      4 C           0.4210    0.5250    0.0000 C.ar    1  LIG1        0.1459
      5 N           0.4210   -0.4540    0.0000 N.ar    1  LIG1       -0.2808
      6 C          -0.4250   -1.0170    0.0000 C.ar    1  LIG1        0.2593
      7 O          -0.4250   -2.0000    0.0000 O.2     1  LIG1       -0.2672
      8 C           1.2630   -1.0170    0.0000 C.3     1  LIG1        0.1132
      9 C           2.1790   -0.4540    0.0000 C.3     1  LIG1        0.0601
     10 C           3.0210   -1.0170    0.0000 C.3     1  LIG1        0.1841
     11 O           3.8670   -0.4540    0.0000 O.3     1  LIG1       -0.2204
     12 C           1.2630    1.0250    0.0000 C.ar    1  LIG1        0.0342
     13 C           2.1790    0.5250    0.0000 C.ar    1  LIG1        0.0030
     14 C           3.0210    1.0250    0.0000 C.ar    1  LIG1        0.0001
     15 C           3.0210    2.0080    0.0000 C.ar    1  LIG1        0.0000
     16 C           2.1790    2.4960    0.0000 C.ar    1  LIG1        0.0001
     17 C           1.2630    2.0080    0.0000 C.ar    1  LIG1        0.0030
     18 C          -2.1830    1.0250    0.0000 C.ar    1  LIG1        0.0136
     19 C          -3.0250    0.5250    0.0000 C.ar    1  LIG1       -0.0204
     20 C          -3.0250   -0.4540    0.0000 C.3     1  LIG1        0.0306
     21 C          -2.1830   -1.0170    0.0000 C.3     1  LIG1        0.0289
     22 C          -1.2670   -1.5080    0.0000 C.3     1  LIG1        0.0046
     23 C          -1.2670   -2.4920    0.0000 C.3     1  LIG1        0.0003
     24 C          -3.0250   -1.5080    0.0000 C.3     1  LIG1        0.0046
     25 C          -3.0250   -2.4920    0.0000 C.3     1  LIG1        0.0003
     26 C          -3.8710    1.0250    0.0000 C.ar    1  LIG1       -0.0042
     27 C          -3.8710    2.0080    0.0000 C.ar    1  LIG1       -0.0003
     28 C          -3.0250    2.4960    0.0000 C.ar    1  LIG1        0.0000
     29 C          -2.1830    2.0080    0.0000 C.ar    1  LIG1        0.0012
@<TRIPOS>BOND
     1     1     2   ar
     2     1     6   ar
     3     1    21    1
     4     2     3   ar
     5     2    18    1
     6     3     4   ar
     7     4     5   ar
     8     4    12    1
     9     5     6   ar
    10     5     8    1
    11     6     7    2
    12     8     9    1
    13     9    10    1
    14    10    11    1
    15    12    13   ar
    16    12    17   ar
    17    13    14   ar
    18    14    15   ar
    19    15    16   ar
    20    16    17   ar
    21    18    19   ar
    22    18    29   ar
    23    19    20    1
    24    19    26   ar
    25    20    21    1
    26    21    22    1
    27    21    24    1
    28    22    23    1
    29    24    25    1
    30    26    27   ar
    31    27    28   ar
    32    28    29   ar
