@<TRIPOS>MOLECULE
28559_ChemDiv_4258-0017
 26 29 0 0 0
SMALL
GASTEIGER
Energy = 0

@<TRIPOS>ATOM
      1 C          -0.8540   -0.7420    0.0000 C.ar    1  LIG1        0.0513
      2 C          -0.8540    0.2500    0.0000 C.ar    1  LIG1        0.0831
      3 N           0.0000    0.7460    0.0000 N.ar    1  LIG1       -0.2284
      4 C           0.8500    0.2500    0.0000 C.ar    1  LIG1        0.1460
      5 N           0.8500   -0.7420    0.0000 N.ar    1  LIG1       -0.2782
      6 C           0.0000   -1.2380    0.0000 C.ar    1  LIG1        0.2594
      7 O           0.0000   -2.2330    0.0000 O.2     1  LIG1       -0.2672
      8 C           1.7000   -1.2380    0.0000 C.3     1  LIG1        0.1459
      9 C           2.6210   -0.7420    0.0000 C.3     1  LIG1        0.2066
     10 O           3.4750   -1.2380    0.0000 O.3     1  LIG1       -0.2182
     11 C           1.7000    0.7460    0.0000 C.ar    1  LIG1        0.0342
     12 C           2.6210    0.2500    0.0000 C.ar    1  LIG1        0.0030
     13 C           3.4750    0.7460    0.0000 C.ar    1  LIG1        0.0001
     14 C           3.4750    1.7330    0.0000 C.ar    1  LIG1        0.0000
     15 C           2.6210    2.2380    0.0000 C.ar    1  LIG1        0.0001
     16 C           1.7000    1.7330    0.0000 C.ar    1  LIG1        0.0030
     17 C          -1.7750    0.7460    0.0000 C.ar    1  LIG1        0.0136
     18 C          -2.6250    0.2500    0.0000 C.ar    1  LIG1       -0.0204
     19 C          -2.6250   -0.7420    0.0000 C.3     1  LIG1        0.0306
     20 C          -1.7750   -1.2380    0.0000 C.3     1  LIG1        0.0289
     21 C          -2.6250   -1.7380    0.0000 C.3     1  LIG1        0.0049
     22 C          -0.8540   -1.7380    0.0000 C.3     1  LIG1        0.0049
     23 C          -3.4790    0.7460    0.0000 C.ar    1  LIG1       -0.0042
     24 C          -3.4790    1.7330    0.0000 C.ar    1  LIG1       -0.0003
     25 C          -2.6250    2.2380    0.0000 C.ar    1  LIG1        0.0000
     26 C          -1.7750    1.7330    0.0000 C.ar    1  LIG1        0.0012
@<TRIPOS>BOND
     1     1     2   ar
     2     1     6   ar
     3     1    20    1
     4     2     3   ar
     5     2    17    1
     6     3     4   ar
     7     4     5   ar
     8     4    11    1
     9     5     6   ar
    10     5     8    1
    11     6     7    2
    12     8     9    1
    13     9    10    1
    14    11    12   ar
    15    11    16   ar
    16    12    13   ar
    17    13    14   ar
    18    14    15   ar
    19    15    16   ar
    20    17    18   ar
    21    17    26   ar
    22    18    19    1
    23    18    23   ar
    24    19    20    1
    25    20    21    1
    26    20    22    1
    27    23    24   ar
    28    24    25   ar
    29    25    26   ar
