@<TRIPOS>MOLECULE
28567_ChemDiv_5594-2809
 29 32 0 0 0
SMALL
GASTEIGER
Energy = 0

@<TRIPOS>ATOM
      1 N           0.8500   -1.1580    0.0000 N.am    1  LIG1       -0.2207
      2 C           0.1580   -1.8880    0.0000 C.2     1  LIG1        0.2317
      3 C           0.5380   -2.6420    0.0000 C.3     1  LIG1        0.0857
      4 C           1.5040   -2.5330    0.0000 C.3     1  LIG1        0.0857
      5 C           1.6830   -1.6540    0.0000 C.2     1  LIG1        0.2317
      6 O           2.6080   -1.1170    0.0000 O.2     1  LIG1       -0.2745
      7 C           2.1790   -3.4210    0.0000 C.3     1  LIG1        0.0096
      8 C           1.7750   -4.2790    0.0000 C.3     1  LIG1        0.0005
      9 C           0.6960   -4.4250    0.0000 C.3     1  LIG1        0.0005
     10 C           0.2040   -3.6460    0.0000 C.3     1  LIG1        0.0096
     11 O          -0.9170   -1.6000    0.0000 O.2     1  LIG1       -0.2745
     12 C           0.7420   -0.1920    0.0000 C.3     1  LIG1        0.1861
     13 C           1.5040    0.4540    0.0000 C.2     1  LIG1        0.2502
     14 N           1.4250    1.4500    0.0000 N.am    1  LIG1       -0.2567
     15 C           0.5000    1.9880    0.0000 C.ar    1  LIG1        0.0567
     16 C           0.5000    2.9580    0.0000 C.ar    1  LIG1        0.0097
     17 C           1.4250    3.4580    0.0000 C.2     1  LIG1       -0.0234
     18 C           2.2500    3.0040    0.0000 C.2     1  LIG1       -0.0124
     19 C           2.2500    1.9880    0.0000 C.3     1  LIG1        0.0828
     20 C           3.0670    1.4500    0.0000 C.3     1  LIG1        0.0248
     21 C           3.0670    2.3830    0.0000 C.3     1  LIG1        0.0248
     22 C           1.4250    4.4250    0.0000 C.3     1  LIG1        0.0308
     23 C          -0.3630    3.4580    0.0000 C.ar    1  LIG1        0.0040
     24 C          -1.1880    3.0040    0.0000 C.ar    1  LIG1        0.0370
     25 C          -1.1880    1.9880    0.0000 C.ar    1  LIG1        0.1400
     26 C          -0.3630    1.4500    0.0000 C.ar    1  LIG1        0.0518
     27 O          -2.1290    1.6290    0.0000 O.3     1  LIG1       -0.4714
     28 C          -3.0710    2.3290    0.0000 C.3     1  LIG1        0.2525
     29 O           2.3920   -0.0130    0.0000 O.2     1  LIG1       -0.2727
@<TRIPOS>BOND
     1     1     2   am
     2     1     5   am
     3     1    12    1
     4     2     3    1
     5     2    11    2
     6     3     4    1
     7     3    10    1
     8     4     5    1
     9     4     7    1
    10     5     6    2
    11     7     8    1
    12     8     9    1
    13     9    10    1
    14    12    13    1
    15    13    14   am
    16    13    29    2
    17    14    15    1
    18    14    19    1
    19    15    16   ar
    20    15    26   ar
    21    16    17    1
    22    16    23   ar
    23    17    18    2
    24    17    22    1
    25    18    19    1
    26    19    20    1
    27    19    21    1
    28    23    24   ar
    29    24    25   ar
    30    25    26   ar
    31    25    27    1
    32    27    28    1
