@<TRIPOS>MOLECULE
28569_ChemDiv_5645-0397
 28 30 0 0 0
SMALL
GASTEIGER
Energy = 0

@<TRIPOS>ATOM
      1 N           0.8420    1.3880    0.0000 N.am    1  LIG1       -0.2413
      2 C           0.8420    0.3630    0.0000 C.2     1  LIG1        0.3314
      3 N          -0.0210   -0.1040    0.0000 N.am    1  LIG1       -0.1618
      4 C          -0.0210   -1.1210    0.0000 C.ar    1  LIG1        0.0782
      5 C          -0.8670   -1.5830    0.0000 C.ar    1  LIG1        0.0567
      6 C          -0.8670   -2.6000    0.0000 C.ar    1  LIG1        0.1737
      7 C          -0.0210   -3.0580    0.0000 C.ar    1  LIG1        0.1725
      8 C           0.8170   -2.5250    0.0000 C.ar    1  LIG1        0.0414
      9 C           0.8170   -1.5750    0.0000 C.ar    1  LIG1        0.0200
     10 O          -0.1250   -3.8540    0.0000 O.3     1  LIG1       -0.4684
     11 C           0.8630   -4.4630    0.0000 C.3     1  LIG1        0.2526
     12 O          -1.5500   -3.1710    0.0000 O.3     1  LIG1       -0.4683
     13 C          -2.6040   -2.9420    0.0000 C.3     1  LIG1        0.2526
     14 O           1.7000   -0.1040    0.0000 O.2     1  LIG1       -0.2500
     15 C          -0.0210    1.9210    0.0000 C.ar    1  LIG1        0.0548
     16 C          -0.0210    2.9170    0.0000 C.ar    1  LIG1        0.0092
     17 C           0.8420    3.4330    0.0000 C.2     1  LIG1       -0.0234
     18 C           1.7000    2.9170    0.0000 C.2     1  LIG1       -0.0124
     19 C           1.7000    1.9210    0.0000 C.3     1  LIG1        0.0843
     20 C           2.6670    2.1880    0.0000 C.3     1  LIG1        0.0248
     21 C           2.4380    1.2080    0.0000 C.3     1  LIG1        0.0248
     22 C           0.8420    4.4630    0.0000 C.3     1  LIG1        0.0308
     23 C          -0.8960    3.4330    0.0000 C.ar    1  LIG1       -0.0037
     24 C          -1.7710    2.9170    0.0000 C.ar    1  LIG1       -0.0257
     25 C          -1.7710    1.9210    0.0000 C.ar    1  LIG1       -0.0246
     26 C          -0.8960    1.3880    0.0000 C.ar    1  LIG1        0.0104
     27 C          -2.6710    1.3880    0.0000 C.3     1  LIG1        0.0307
     28 C          -2.6330    3.4710    0.0000 C.3     1  LIG1        0.0307
@<TRIPOS>BOND
     1     1     2   am
     2     1    15    1
     3     1    19    1
     4     2     3   am
     5     2    14    2
     6     3     4    1
     7     4     5   ar
     8     4     9   ar
     9     5     6   ar
    10     6     7   ar
    11     6    12    1
    12     7     8   ar
    13     7    10    1
    14     8     9   ar
    15    10    11    1
    16    12    13    1
    17    15    16   ar
    18    15    26   ar
    19    16    17    1
    20    16    23   ar
    21    17    18    2
    22    17    22    1
    23    18    19    1
    24    19    20    1
    25    19    21    1
    26    23    24   ar
    27    24    25   ar
    28    24    28    1
    29    25    26   ar
    30    25    27    1
