@<TRIPOS>MOLECULE
28560_ChemDiv_3013-0163
 19 21 0 0 0
SMALL
GASTEIGER
Energy = 0

@<TRIPOS>ATOM
      1 N          -2.5960   -0.2500    0.0000 N.ar    1  LIG1       -0.2440
      2 C          -2.5960   -1.2540    0.0000 C.ar    1  LIG1        0.3540
      3 N          -1.7290   -1.7500    0.0000 N.ar    1  LIG1       -0.1696
      4 C          -0.8670   -1.2540    0.0000 C.ar    1  LIG1        0.2104
      5 C          -0.8670   -0.2500    0.0000 C.ar    1  LIG1        0.1765
      6 C          -1.7290    0.2460    0.0000 C.ar    1  LIG1        0.2852
      7 O          -1.7290    1.2420    0.0000 O.2     1  LIG1       -0.2651
      8 N          -0.0080    0.2460    0.0000 N.ar    1  LIG1       -0.2171
      9 C           0.8540   -0.2500    0.0000 C.ar    1  LIG1        0.1840
     10 N           0.8540   -1.2540    0.0000 N.ar    1  LIG1       -0.1270
     11 N          -0.0080   -1.7500    0.0000 N.ar    1  LIG1       -0.1251
     12 C           1.7080    0.2460    0.0000 C.ar    1  LIG1        0.0406
     13 C           1.7080    1.2630    0.0000 C.ar    1  LIG1        0.0238
     14 C           2.5880    1.7540    0.0000 C.ar    1  LIG1        0.0990
     15 N           3.4580    1.2630    0.0000 N.ar    1  LIG1       -0.2423
     16 C           3.4580    0.2460    0.0000 C.ar    1  LIG1        0.0990
     17 C           2.5880   -0.2500    0.0000 C.ar    1  LIG1        0.0238
     18 O          -3.4630   -1.7380    0.0000 O.2     1  LIG1       -0.2443
     19 C          -3.4630    0.2460    0.0000 C.3     1  LIG1        0.1383
@<TRIPOS>BOND
     1     1     2   ar
     2     1     6   ar
     3     1    19    1
     4     2     3   ar
     5     2    18    2
     6     3     4   ar
     7     4     5   ar
     8     4    11   ar
     9     5     6   ar
    10     5     8   ar
    11     6     7    2
    12     8     9   ar
    13     9    10   ar
    14     9    12    1
    15    10    11   ar
    16    12    13   ar
    17    12    17   ar
    18    13    14   ar
    19    14    15   ar
    20    15    16   ar
    21    16    17   ar
