@<TRIPOS>MOLECULE
28563_ChemDiv_4477-0909
 25 27 0 0 0
SMALL
GASTEIGER
Energy = 0

@<TRIPOS>ATOM
      1 S          -0.3710   -1.7830    0.0000 S.O2    1  LIG1        0.0767
      2 N          -0.4080   -0.1670    0.0000 N.pl3   1  LIG1       -0.1901
      3 C          -1.2540    0.3000    0.0000 C.ar    1  LIG1        0.0687
      4 C          -1.2540    1.2960    0.0000 C.ar    1  LIG1        0.0112
      5 C          -0.4080    1.7670    0.0000 C.2     1  LIG1       -0.0233
      6 C           0.4290    1.2960    0.0000 C.2     1  LIG1       -0.0111
      7 C           0.4290    0.3000    0.0000 C.3     1  LIG1        0.0976
      8 C           1.1540   -0.3540    0.0000 C.3     1  LIG1        0.0262
      9 C           1.4000    0.5540    0.0000 C.3     1  LIG1        0.0262
     10 C          -0.4080    2.7710    0.0000 C.3     1  LIG1        0.0308
     11 C          -2.0960    1.7670    0.0000 C.ar    1  LIG1        0.0076
     12 C          -2.9460    1.2960    0.0000 C.ar    1  LIG1        0.0346
     13 C          -2.9460    0.3000    0.0000 C.ar    1  LIG1        0.0080
     14 C          -2.0960   -0.1670    0.0000 C.ar    1  LIG1        0.0166
     15 BR         -3.9710    1.5210    0.0000 Br      1  LIG1       -0.0490
     16 C           0.6460   -1.7830    0.0000 C.ar    1  LIG1        0.1256
     17 C           1.1330   -0.9290    0.0000 C.ar    1  LIG1        0.0233
     18 C           2.1250   -0.9290    0.0000 C.ar    1  LIG1        0.0383
     19 C           2.6000   -1.7830    0.0000 C.ar    1  LIG1        0.1388
     20 C           2.1250   -2.6420    0.0000 C.ar    1  LIG1        0.0383
     21 C           1.1330   -2.6420    0.0000 C.ar    1  LIG1        0.0233
     22 O           3.5880   -1.7830    0.0000 O.3     1  LIG1       -0.4714
     23 C           3.9670   -2.4540    0.0000 C.3     1  LIG1        0.2525
     24 O          -0.3710   -2.7670    0.0000 O.2     1  LIG1       -0.1497
     25 O          -1.3460   -1.7830    0.0000 O.2     1  LIG1       -0.1497
@<TRIPOS>BOND
     1     1     2    1
     2     1    16    1
     3     1    24    2
     4     1    25    2
     5     2     3    1
     6     2     7    1
     7     3     4   ar
     8     3    14   ar
     9     4     5    1
    10     4    11   ar
    11     5     6    2
    12     5    10    1
    13     6     7    1
    14     7     8    1
    15     7     9    1
    16    11    12   ar
    17    12    13   ar
    18    12    15    1
    19    13    14   ar
    20    16    17   ar
    21    16    21   ar
    22    17    18   ar
    23    18    19   ar
    24    19    20   ar
    25    19    22    1
    26    20    21   ar
    27    22    23    1
