@<TRIPOS>MOLECULE
28573_ChemDiv_8009-8514
 28 31 0 0 0
SMALL
GASTEIGER
Energy = 0

@<TRIPOS>ATOM
      1 N          -2.5080    0.1460    0.0000 N.am    1  LIG1       -0.2187
      2 C          -3.2000    0.8630    0.0000 C.2     1  LIG1        0.2318
      3 C          -2.7380    1.7210    0.0000 C.3     1  LIG1        0.0857
      4 C          -1.7790    1.6130    0.0000 C.3     1  LIG1        0.0857
      5 C          -1.6540    0.6080    0.0000 C.2     1  LIG1        0.2318
      6 O          -0.8210    0.0960    0.0000 O.2     1  LIG1       -0.2745
      7 C          -1.2080    2.4460    0.0000 C.3     1  LIG1        0.0096
      8 C          -1.5710    3.3790    0.0000 C.3     1  LIG1        0.0005
      9 C          -2.5790    3.4500    0.0000 C.3     1  LIG1        0.0005
     10 C          -3.1710    2.6290    0.0000 C.3     1  LIG1        0.0096
     11 O          -4.2380    0.6880    0.0000 O.2     1  LIG1       -0.2745
     12 C          -2.7790   -0.8130    0.0000 C.3     1  LIG1        0.2105
     13 C          -2.0670   -1.5080    0.0000 C.2     1  LIG1        0.3424
     14 O          -1.0830   -1.2250    0.0000 O.3     1  LIG1       -0.4229
     15 C          -0.2040   -1.7460    0.0000 C.ar    1  LIG1        0.1486
     16 C           0.6710   -1.2250    0.0000 C.ar    1  LIG1        0.0386
     17 C           1.5000   -1.7460    0.0000 C.ar    1  LIG1        0.0137
     18 C           2.3710   -1.2250    0.0000 C.2     1  LIG1       -0.0232
     19 C           3.2500   -1.7460    0.0000 C.2     1  LIG1       -0.0112
     20 C           3.2500   -2.7290    0.0000 C.3     1  LIG1        0.0941
     21 N           2.3710   -3.2420    0.0000 N.pl3   1  LIG1       -0.2369
     22 C           1.5000   -2.7290    0.0000 C.ar    1  LIG1        0.0654
     23 C           0.6710   -3.2420    0.0000 C.ar    1  LIG1        0.0192
     24 C          -0.2040   -2.7290    0.0000 C.ar    1  LIG1        0.0389
     25 C           4.2330   -2.5710    0.0000 C.3     1  LIG1        0.0261
     26 C           3.9210   -3.4460    0.0000 C.3     1  LIG1        0.0261
     27 C           2.3710   -0.2460    0.0000 C.3     1  LIG1        0.0308
     28 O          -2.2710   -2.4920    0.0000 O.2     1  LIG1       -0.2478
@<TRIPOS>BOND
     1     1     2   am
     2     1     5   am
     3     1    12    1
     4     2     3    1
     5     2    11    2
     6     3     4    1
     7     3    10    1
     8     4     5    1
     9     4     7    1
    10     5     6    2
    11     7     8    1
    12     8     9    1
    13     9    10    1
    14    12    13    1
    15    13    14    1
    16    13    28    2
    17    14    15    1
    18    15    16   ar
    19    15    24   ar
    20    16    17   ar
    21    17    18    1
    22    17    22   ar
    23    18    19    2
    24    18    27    1
    25    19    20    1
    26    20    21    1
    27    20    25    1
    28    20    26    1
    29    21    22    1
    30    22    23   ar
    31    23    24   ar
