@<TRIPOS>MOLECULE
28579_ChemDiv_5218-3272
 33 37 0 0 0
SMALL
GASTEIGER
Energy = 0

@<TRIPOS>ATOM
      1 C          -2.1710    0.0290    0.0000 C.ar    1  LIG1        0.0513
      2 C          -1.3080   -0.4790    0.0000 C.ar    1  LIG1        0.2600
      3 N          -0.4290    0.0170    0.0000 N.ar    1  LIG1       -0.2684
      4 C          -0.4290    1.0210    0.0000 C.ar    1  LIG1        0.1743
      5 N          -1.2960    1.5330    0.0000 N.ar    1  LIG1       -0.2227
      6 C          -2.1630    1.0330    0.0000 C.ar    1  LIG1        0.0836
      7 C          -3.0330    1.5290    0.0000 C.ar    1  LIG1        0.0136
      8 C          -3.9040    1.0290    0.0000 C.ar    1  LIG1       -0.0204
      9 C          -3.9040    0.0290    0.0000 C.3     1  LIG1        0.0306
     10 C          -3.0330   -0.4790    0.0000 C.3     1  LIG1        0.0289
     11 C          -2.1710   -0.9830    0.0000 C.3     1  LIG1        0.0046
     12 C          -2.1710   -1.9830    0.0000 C.3     1  LIG1        0.0003
     13 C          -3.0420   -2.4790    0.0000 C.3     1  LIG1        0.0000
     14 C          -3.9000   -1.9830    0.0000 C.3     1  LIG1        0.0003
     15 C          -3.9000   -0.9830    0.0000 C.3     1  LIG1        0.0046
     16 C          -4.7670    1.5290    0.0000 C.ar    1  LIG1       -0.0042
     17 C          -4.7670    2.5330    0.0000 C.ar    1  LIG1       -0.0003
     18 C          -3.9040    3.0330    0.0000 C.ar    1  LIG1        0.0000
     19 C          -3.0330    2.5330    0.0000 C.ar    1  LIG1        0.0012
     20 S           0.4420    1.5130    0.0000 S.3     1  LIG1       -0.0653
     21 C           1.3040    1.0130    0.0000 C.3     1  LIG1        0.1742
     22 C           2.1750    1.5040    0.0000 C.2     1  LIG1        0.3286
     23 O           2.1750    2.5040    0.0000 O.2     1  LIG1       -0.2491
     24 O           3.0380    1.0000    0.0000 O.3     1  LIG1       -0.4479
     25 C           3.9000    1.4880    0.0000 C.3     1  LIG1        0.2086
     26 C           4.7630    0.9830    0.0000 C.3     1  LIG1        0.0513
     27 C           0.4250   -0.4830    0.0000 C.3     1  LIG1        0.1753
     28 C           0.4170   -1.4830    0.0000 C.ar    1  LIG1        0.1460
     29 O          -0.3880   -2.0710    0.0000 O.2     1  LIG1       -0.4527
     30 C          -0.0830   -3.0250    0.0000 C.ar    1  LIG1        0.1792
     31 C           0.9170   -3.0290    0.0000 C.ar    1  LIG1        0.0435
     32 C           1.2290   -2.0750    0.0000 C.ar    1  LIG1        0.0382
     33 O          -1.3080   -1.4710    0.0000 O.2     1  LIG1       -0.2672
@<TRIPOS>BOND
     1     1     2   ar
     2     1     6   ar
     3     1    10    1
     4     2     3   ar
     5     2    33    2
     6     3     4   ar
     7     3    27    1
     8     4     5   ar
     9     4    20    1
    10     5     6   ar
    11     6     7    1
    12     7     8   ar
    13     7    19   ar
    14     8     9    1
    15     8    16   ar
    16     9    10    1
    17    10    11    1
    18    10    15    1
    19    11    12    1
    20    12    13    1
    21    13    14    1
    22    14    15    1
    23    16    17   ar
    24    17    18   ar
    25    18    19   ar
    26    20    21    1
    27    21    22    1
    28    22    23    2
    29    22    24    1
    30    24    25    1
    31    25    26    1
    32    27    28    1
    33    28    29   ar
    34    28    32   ar
    35    29    30   ar
    36    30    31   ar
    37    31    32   ar
