@<TRIPOS>MOLECULE
28571_ChemDiv_5750-0351
 18 19 0 0 0
SMALL
GASTEIGER
Energy = 0

@<TRIPOS>ATOM
      1 N           1.7710   -1.0130    0.0000 N.pl3   1  LIG1       -0.3224
      2 C           0.8500   -0.5420    0.0000 C.ar    1  LIG1        0.1682
      3 C           0.8500    0.3920    0.0000 C.ar    1  LIG1        0.0537
      4 C           1.7710    0.9000    0.0000 C.2     1  LIG1       -0.0146
      5 C           2.6580    0.4330    0.0000 C.2     1  LIG1        0.0332
      6 C           2.6580   -0.5420    0.0000 C.3     1  LIG1        0.1571
      7 C           3.6630   -0.3080    0.0000 C.3     1  LIG1        0.0762
      8 C           3.4000   -1.1750    0.0000 C.3     1  LIG1        0.0762
      9 C           1.8130    1.8380    0.0000 C.3     1  LIG1        0.0311
     10 C          -0.0210    0.9000    0.0000 C.ar    1  LIG1        0.0085
     11 C          -0.9040    0.4330    0.0000 C.ar    1  LIG1        0.0373
     12 C          -0.9040   -0.5420    0.0000 C.ar    1  LIG1        0.1443
     13 C          -0.0210   -1.0130    0.0000 C.ar    1  LIG1        0.0998
     14 O          -1.8170   -1.0960    0.0000 O.3     1  LIG1       -0.4753
     15 C          -2.7960   -0.6630    0.0000 C.3     1  LIG1        0.2055
     16 C          -3.6670   -1.1750    0.0000 C.3     1  LIG1        0.0512
     17 C           2.3040   -1.8330    0.0000 C.3     1  LIG1        0.3351
     18 C           1.0710   -1.6710    0.0000 C.3     1  LIG1        0.3351
@<TRIPOS>BOND
     1     1     2    1
     2     1     6    1
     3     1    17    1
     4     1    18    1
     5     2     3   ar
     6     2    13   ar
     7     3     4    1
     8     3    10   ar
     9     4     5    2
    10     4     9    1
    11     5     6    1
    12     6     7    1
    13     6     8    1
    14    10    11   ar
    15    11    12   ar
    16    12    13   ar
    17    12    14    1
    18    14    15    1
    19    15    16    1
