@<TRIPOS>MOLECULE
28577_ChemDiv_5218-3264
 29 33 0 0 0
SMALL
GASTEIGER
Energy = 0

@<TRIPOS>ATOM
      1 C          -0.8790    0.0290    0.0000 C.ar    1  LIG1        0.0513
      2 C          -0.0170   -0.4790    0.0000 C.ar    1  LIG1        0.2600
      3 N           0.8630    0.0170    0.0000 N.ar    1  LIG1       -0.2684
      4 C           0.8630    1.0170    0.0000 C.ar    1  LIG1        0.1738
      5 N           0.0000    1.5330    0.0000 N.ar    1  LIG1       -0.2227
      6 C          -0.8670    1.0330    0.0000 C.ar    1  LIG1        0.0836
      7 C          -1.7420    1.5290    0.0000 C.ar    1  LIG1        0.0136
      8 C          -2.6080    1.0290    0.0000 C.ar    1  LIG1       -0.0204
      9 C          -2.6080    0.0290    0.0000 C.3     1  LIG1        0.0306
     10 C          -1.7420   -0.4790    0.0000 C.3     1  LIG1        0.0289
     11 C          -2.6040   -0.9830    0.0000 C.3     1  LIG1        0.0046
     12 C          -2.6040   -1.9830    0.0000 C.3     1  LIG1        0.0003
     13 C          -1.7460   -2.4790    0.0000 C.3     1  LIG1        0.0000
     14 C          -0.8790   -1.9830    0.0000 C.3     1  LIG1        0.0003
     15 C          -0.8790   -0.9830    0.0000 C.3     1  LIG1        0.0046
     16 C          -3.4710    1.5290    0.0000 C.ar    1  LIG1       -0.0042
     17 C          -3.4710    2.5330    0.0000 C.ar    1  LIG1       -0.0003
     18 C          -2.6080    3.0330    0.0000 C.ar    1  LIG1        0.0000
     19 C          -1.7420    2.5330    0.0000 C.ar    1  LIG1        0.0012
     20 S           1.7380    1.5130    0.0000 S.3     1  LIG1       -0.0773
     21 C           2.6000    1.0130    0.0000 C.3     1  LIG1        0.0651
     22 C           3.4670    1.5040    0.0000 C.3     1  LIG1        0.0130
     23 C           1.7210   -0.4830    0.0000 C.3     1  LIG1        0.1753
     24 C           1.7130   -1.4830    0.0000 C.ar    1  LIG1        0.1460
     25 O           0.9080   -2.0710    0.0000 O.2     1  LIG1       -0.4527
     26 C           1.2130   -3.0210    0.0000 C.ar    1  LIG1        0.1792
     27 C           2.2080   -3.0290    0.0000 C.ar    1  LIG1        0.0435
     28 C           2.5250   -2.0750    0.0000 C.ar    1  LIG1        0.0382
     29 O          -0.0170   -1.4670    0.0000 O.2     1  LIG1       -0.2672
@<TRIPOS>BOND
     1     1     2   ar
     2     1     6   ar
     3     1    10    1
     4     2     3   ar
     5     2    29    2
     6     3     4   ar
     7     3    23    1
     8     4     5   ar
     9     4    20    1
    10     5     6   ar
    11     6     7    1
    12     7     8   ar
    13     7    19   ar
    14     8     9    1
    15     8    16   ar
    16     9    10    1
    17    10    11    1
    18    10    15    1
    19    11    12    1
    20    12    13    1
    21    13    14    1
    22    14    15    1
    23    16    17   ar
    24    17    18   ar
    25    18    19   ar
    26    20    21    1
    27    21    22    1
    28    23    24    1
    29    24    25   ar
    30    24    28   ar
    31    25    26   ar
    32    26    27   ar
    33    27    28   ar
