@<TRIPOS>MOLECULE
28575_ChemDiv_2860-1297
 31 34 0 0 0
SMALL
GASTEIGER
Energy = 0

@<TRIPOS>ATOM
      1 C           1.9960    0.3080    0.0000 C.3     1  LIG1        0.0568
      2 C           1.9960   -0.7080    0.0000 C.ar    1  LIG1        0.0210
      3 C           2.9380   -1.2460    0.0000 C.ar    1  LIG1        0.1920
      4 O           3.8290   -0.7960    0.0000 O.3     1  LIG1       -0.2869
      5 C           2.9330   -2.2880    0.0000 C.ar    1  LIG1        0.0417
      6 C           1.9960   -2.8250    0.0000 C.ar    1  LIG1        0.0033
      7 C           1.1000   -2.2880    0.0000 C.ar    1  LIG1       -0.0001
      8 C           1.0960   -1.2880    0.0000 C.ar    1  LIG1       -0.0008
      9 C           1.1420    0.7920    0.0000 C.3     1  LIG1        0.0956
     10 C           0.2920    0.3210    0.0000 C.2     1  LIG1        0.2420
     11 N          -0.5330    0.8040    0.0000 N.am    1  LIG1       -0.2051
     12 C          -1.3500    0.3540    0.0000 C.3     1  LIG1        0.1192
     13 C          -2.2130    0.8750    0.0000 C.3     1  LIG1        0.0438
     14 C          -3.0210    0.4250    0.0000 C.ar    1  LIG1       -0.0210
     15 C          -3.8750    0.8750    0.0000 C.ar    1  LIG1       -0.0042
     16 C          -4.7000    0.4130    0.0000 C.ar    1  LIG1       -0.0003
     17 C          -4.7000   -0.5710    0.0000 C.ar    1  LIG1       -0.0000
     18 C          -3.8460   -1.0170    0.0000 C.ar    1  LIG1       -0.0003
     19 C          -3.0210   -0.5250    0.0000 C.ar    1  LIG1       -0.0042
     20 C          -1.3830    1.3500    0.0000 C.3     1  LIG1        0.0379
     21 C          -1.3830    2.3380    0.0000 C.3     1  LIG1        0.1425
     22 O          -2.2130    2.8290    0.0000 O.3     1  LIG1       -0.3538
     23 C          -3.0540    2.3380    0.0000 C.3     1  LIG1        0.1425
     24 C          -3.0540    1.3500    0.0000 C.3     1  LIG1        0.0379
     25 O           0.2920   -0.7500    0.0000 O.2     1  LIG1       -0.2733
     26 C           2.8880    0.7920    0.0000 C.ar    1  LIG1       -0.0178
     27 C           2.8920    1.8130    0.0000 C.ar    1  LIG1       -0.0039
     28 C           3.7880    2.3420    0.0000 C.ar    1  LIG1       -0.0003
     29 C           4.6960    1.8330    0.0000 C.ar    1  LIG1       -0.0000
     30 C           4.6960    0.7920    0.0000 C.ar    1  LIG1       -0.0003
     31 C           3.8290    0.2790    0.0000 C.ar    1  LIG1       -0.0039
@<TRIPOS>BOND
     1     1     2    1
     2     1     9    1
     3     1    26    1
     4     2     3   ar
     5     2     8   ar
     6     3     4    1
     7     3     5   ar
     8     5     6   ar
     9     6     7   ar
    10     7     8   ar
    11     9    10    1
    12    10    11   am
    13    10    25    2
    14    11    12    1
    15    12    13    1
    16    13    14    1
    17    13    20    1
    18    13    24    1
    19    14    15   ar
    20    14    19   ar
    21    15    16   ar
    22    16    17   ar
    23    17    18   ar
    24    18    19   ar
    25    20    21    1
    26    21    22    1
    27    22    23    1
    28    23    24    1
    29    26    27   ar
    30    26    31   ar
    31    27    28   ar
    32    28    29   ar
    33    29    30   ar
    34    30    31   ar
