@<TRIPOS>MOLECULE
28585_ChemDiv_5731-0030
 28 32 0 0 0
SMALL
GASTEIGER
Energy = 0

@<TRIPOS>ATOM
      1 C          -1.3040   -0.0130    0.0000 C.ar    1  LIG1        0.0515
      2 C          -0.3330   -0.2420    0.0000 C.ar    1  LIG1        0.2617
      3 N           0.3750    0.4830    0.0000 N.ar    1  LIG1       -0.2473
      4 C           0.0880    1.4580    0.0000 C.ar    1  LIG1        0.3524
      5 N          -0.9000    1.6750    0.0000 N.ar    1  LIG1       -0.1924
      6 C          -1.5670    0.9630    0.0000 C.ar    1  LIG1        0.0862
      7 C          -2.5670    1.1880    0.0000 C.ar    1  LIG1        0.0137
      8 C          -3.2500    0.4540    0.0000 C.ar    1  LIG1       -0.0204
      9 C          -2.9500   -0.5130    0.0000 C.3     1  LIG1        0.0306
     10 C          -1.9710   -0.7380    0.0000 C.3     1  LIG1        0.0289
     11 C          -2.6000   -1.5170    0.0000 C.3     1  LIG1        0.0046
     12 C          -2.0630   -2.3540    0.0000 C.3     1  LIG1        0.0003
     13 C          -1.1080   -2.0960    0.0000 C.3     1  LIG1        0.0003
     14 C          -1.0460   -1.1040    0.0000 C.3     1  LIG1        0.0046
     15 C          -4.2210    0.6670    0.0000 C.ar    1  LIG1       -0.0042
     16 C          -4.5210    1.6130    0.0000 C.ar    1  LIG1       -0.0003
     17 C          -3.8420    2.3580    0.0000 C.ar    1  LIG1        0.0000
     18 C          -2.8540    2.1420    0.0000 C.ar    1  LIG1        0.0012
     19 O           0.7750    2.1580    0.0000 O.2     1  LIG1       -0.2444
     20 C           1.3460    0.2580    0.0000 C.3     1  LIG1        0.1183
     21 C           1.6250   -0.7130    0.0000 C.3     1  LIG1        0.0511
     22 C           2.5960   -0.9580    0.0000 C.ar    1  LIG1       -0.0202
     23 C           2.8540   -1.9290    0.0000 C.ar    1  LIG1       -0.0042
     24 C           3.8080   -2.1880    0.0000 C.ar    1  LIG1       -0.0003
     25 C           4.5170   -1.4670    0.0000 C.ar    1  LIG1       -0.0000
     26 C           4.2500   -0.5130    0.0000 C.ar    1  LIG1       -0.0003
     27 C           3.2880   -0.2540    0.0000 C.ar    1  LIG1       -0.0042
     28 O          -0.0330   -1.2000    0.0000 O.2     1  LIG1       -0.2671
@<TRIPOS>BOND
     1     1     2   ar
     2     1     6   ar
     3     1    10    1
     4     2     3   ar
     5     2    28    2
     6     3     4   ar
     7     3    20    1
     8     4     5   ar
     9     4    19    2
    10     5     6   ar
    11     6     7    1
    12     7     8   ar
    13     7    18   ar
    14     8     9    1
    15     8    15   ar
    16     9    10    1
    17    10    11    1
    18    10    14    1
    19    11    12    1
    20    12    13    1
    21    13    14    1
    22    15    16   ar
    23    16    17   ar
    24    17    18   ar
    25    20    21    1
    26    21    22    1
    27    22    23   ar
    28    22    27   ar
    29    23    24   ar
    30    24    25   ar
    31    25    26   ar
    32    26    27   ar
