@<TRIPOS>MOLECULE
28584_ChemDiv_3506-0284
 36 40 0 0 0
SMALL
GASTEIGER
Energy = 0

@<TRIPOS>ATOM
      1 S          -0.2580    2.9710    0.0000 S.O2    1  LIG1        0.0643
      2 C          -1.1710    2.5460    0.0000 C.ar    1  LIG1        0.1329
      3 C          -1.2330    1.5460    0.0000 C.ar    1  LIG1        0.0281
      4 C          -2.0960    1.0580    0.0000 C.ar    1  LIG1        0.0880
      5 C          -2.1460    0.0830    0.0000 C.2     1  LIG1        0.3466
      6 O          -1.3250   -0.4040    0.0000 O.3     1  LIG1       -0.4210
      7 C          -1.3670   -1.4210    0.0000 C.ar    1  LIG1        0.1488
      8 C          -0.5420   -1.9080    0.0000 C.ar    1  LIG1        0.0392
      9 C          -0.5420   -2.8880    0.0000 C.ar    1  LIG1        0.0222
     10 C           0.3420   -3.3750    0.0000 C.ar    1  LIG1        0.1005
     11 N           1.2080   -2.8880    0.0000 N.ar    1  LIG1       -0.2423
     12 C           2.0920   -3.3750    0.0000 C.ar    1  LIG1        0.0989
     13 C           2.0920   -4.4000    0.0000 C.ar    1  LIG1        0.0989
     14 N           1.2080   -4.8880    0.0000 N.ar    1  LIG1       -0.2407
     15 C           0.3420   -4.3500    0.0000 C.ar    1  LIG1        0.1179
     16 C           2.9170   -4.8880    0.0000 C.ar    1  LIG1        0.0206
     17 C           3.8000   -4.3500    0.0000 C.ar    1  LIG1        0.0016
     18 C           3.8000   -3.3750    0.0000 C.ar    1  LIG1        0.0016
     19 C           2.9170   -2.8880    0.0000 C.ar    1  LIG1        0.0206
     20 C          -1.4170   -3.4250    0.0000 C.ar    1  LIG1        0.0017
     21 C          -2.3000   -2.8880    0.0000 C.ar    1  LIG1        0.0032
     22 C          -2.3000   -1.9080    0.0000 C.ar    1  LIG1        0.0376
     23 O          -3.0330   -0.3540    0.0000 O.2     1  LIG1       -0.2445
     24 C          -2.9420    1.6000    0.0000 C.ar    1  LIG1        0.0648
     25 C          -2.8790    2.5750    0.0000 C.ar    1  LIG1        0.0243
     26 C          -2.0040    3.0630    0.0000 C.ar    1  LIG1        0.0771
     27 CL         -2.0040    4.0330    0.0000 Cl      1  LIG1       -0.0808
     28 CL         -3.8040    1.1130    0.0000 Cl      1  LIG1       -0.0820
     29 N           0.6790    3.4080    0.0000 N.3     1  LIG1       -0.1504
     30 C           1.4500    2.8790    0.0000 C.3     1  LIG1        0.1279
     31 C           2.3880    3.2540    0.0000 C.3     1  LIG1        0.1613
     32 O           2.4880    4.2290    0.0000 O.3     1  LIG1       -0.3507
     33 C           1.6040    4.8880    0.0000 C.3     1  LIG1        0.1613
     34 C           0.7210    4.4330    0.0000 C.3     1  LIG1        0.1279
     35 O           0.1920    2.0880    0.0000 O.2     1  LIG1       -0.1527
     36 O          -0.6830    3.9170    0.0000 O.2     1  LIG1       -0.1527
@<TRIPOS>BOND
     1     1     2    1
     2     1    29    1
     3     1    35    2
     4     1    36    2
     5     2     3   ar
     6     2    26   ar
     7     3     4   ar
     8     4     5    1
     9     4    24   ar
    10     5     6    1
    11     5    23    2
    12     6     7    1
    13     7     8   ar
    14     7    22   ar
    15     8     9   ar
    16     9    10    1
    17     9    20   ar
    18    10    11   ar
    19    10    15   ar
    20    11    12   ar
    21    12    13   ar
    22    12    19   ar
    23    13    14   ar
    24    13    16   ar
    25    14    15   ar
    26    16    17   ar
    27    17    18   ar
    28    18    19   ar
    29    20    21   ar
    30    21    22   ar
    31    24    25   ar
    32    24    28    1
    33    25    26   ar
    34    26    27    1
    35    29    30    1
    36    29    34    1
    37    30    31    1
    38    31    32    1
    39    32    33    1
    40    33    34    1
