@<TRIPOS>MOLECULE
28581_ChemDiv_5218-3285
 31 35 0 0 0
SMALL
GASTEIGER
Energy = 0

@<TRIPOS>ATOM
      1 C          -1.3080    0.0290    0.0000 C.ar    1  LIG1        0.0513
      2 C          -0.4460   -0.4790    0.0000 C.ar    1  LIG1        0.2600
      3 N           0.4330    0.0170    0.0000 N.ar    1  LIG1       -0.2684
      4 C           0.4330    1.0170    0.0000 C.ar    1  LIG1        0.1742
      5 N          -0.4290    1.5330    0.0000 N.ar    1  LIG1       -0.2227
      6 C          -1.3000    1.0330    0.0000 C.ar    1  LIG1        0.0836
      7 C          -2.1710    1.5290    0.0000 C.ar    1  LIG1        0.0136
      8 C          -3.0380    1.0290    0.0000 C.ar    1  LIG1       -0.0204
      9 C          -3.0380    0.0290    0.0000 C.3     1  LIG1        0.0306
     10 C          -2.1710   -0.4790    0.0000 C.3     1  LIG1        0.0289
     11 C          -3.0330   -0.9830    0.0000 C.3     1  LIG1        0.0046
     12 C          -3.0330   -1.9830    0.0000 C.3     1  LIG1        0.0003
     13 C          -2.1750   -2.4790    0.0000 C.3     1  LIG1        0.0000
     14 C          -1.3080   -1.9830    0.0000 C.3     1  LIG1        0.0003
     15 C          -1.3080   -0.9830    0.0000 C.3     1  LIG1        0.0046
     16 C          -3.9040    1.5290    0.0000 C.ar    1  LIG1       -0.0042
     17 C          -3.9040    2.5330    0.0000 C.ar    1  LIG1       -0.0003
     18 C          -3.0380    3.0330    0.0000 C.ar    1  LIG1        0.0000
     19 C          -2.1710    2.5330    0.0000 C.ar    1  LIG1        0.0012
     20 S           1.3040    1.5130    0.0000 S.3     1  LIG1       -0.0673
     21 C           2.1670    1.0130    0.0000 C.3     1  LIG1        0.1532
     22 C           3.0330    1.5040    0.0000 C.2     1  LIG1        0.2722
     23 O           3.0330    2.5000    0.0000 O.2     1  LIG1       -0.2707
     24 N           3.9000    1.0000    0.0000 N.am    1  LIG1       -0.0870
     25 C           1.2880   -0.4830    0.0000 C.3     1  LIG1        0.1753
     26 C           1.2790   -1.4830    0.0000 C.ar    1  LIG1        0.1460
     27 O           0.4790   -2.0710    0.0000 O.2     1  LIG1       -0.4527
     28 C           0.7790   -3.0210    0.0000 C.ar    1  LIG1        0.1792
     29 C           1.7790   -3.0290    0.0000 C.ar    1  LIG1        0.0435
     30 C           2.0920   -2.0750    0.0000 C.ar    1  LIG1        0.0382
     31 O          -0.4460   -1.4670    0.0000 O.2     1  LIG1       -0.2672
@<TRIPOS>BOND
     1     1     2   ar
     2     1     6   ar
     3     1    10    1
     4     2     3   ar
     5     2    31    2
     6     3     4   ar
     7     3    25    1
     8     4     5   ar
     9     4    20    1
    10     5     6   ar
    11     6     7    1
    12     7     8   ar
    13     7    19   ar
    14     8     9    1
    15     8    16   ar
    16     9    10    1
    17    10    11    1
    18    10    15    1
    19    11    12    1
    20    12    13    1
    21    13    14    1
    22    14    15    1
    23    16    17   ar
    24    17    18   ar
    25    18    19   ar
    26    20    21    1
    27    21    22    1
    28    22    23    2
    29    22    24   am
    30    25    26    1
    31    26    27   ar
    32    26    30   ar
    33    27    28   ar
    34    28    29   ar
    35    29    30   ar
