@<TRIPOS>MOLECULE
28582_ChemDiv_3019-0361
 34 37 0 0 0
SMALL
GASTEIGER
Energy = 0

@<TRIPOS>ATOM
      1 S          -2.3830    1.2380    0.0000 S.O2    1  LIG1        0.0633
      2 C          -2.9920    0.3920    0.0000 C.ar    1  LIG1        0.1224
      3 C          -2.6210   -0.5500    0.0000 C.ar    1  LIG1        0.0260
      4 C          -3.2290   -1.3630    0.0000 C.ar    1  LIG1        0.0734
      5 C          -2.8670   -2.2920    0.0000 C.2     1  LIG1        0.3454
      6 O          -1.9000   -2.4170    0.0000 O.3     1  LIG1       -0.4210
      7 C          -1.2420   -1.6420    0.0000 C.ar    1  LIG1        0.1488
      8 C          -0.2750   -1.7170    0.0000 C.ar    1  LIG1        0.0392
      9 C           0.3330   -0.9040    0.0000 C.ar    1  LIG1        0.0222
     10 C           1.3130   -1.1580    0.0000 C.ar    1  LIG1        0.1005
     11 N           1.9580   -0.4210    0.0000 N.ar    1  LIG1       -0.2423
     12 C           2.9380   -0.6250    0.0000 C.ar    1  LIG1        0.0989
     13 C           3.2250   -1.6040    0.0000 C.ar    1  LIG1        0.0989
     14 N           2.5670   -2.2920    0.0000 N.ar    1  LIG1       -0.2407
     15 C           1.6000   -2.0880    0.0000 C.ar    1  LIG1        0.1179
     16 C           4.1920   -1.8080    0.0000 C.ar    1  LIG1        0.0206
     17 C           4.8500   -1.0710    0.0000 C.ar    1  LIG1        0.0016
     18 C           4.5630   -0.1420    0.0000 C.ar    1  LIG1        0.0016
     19 C           3.5830    0.0630    0.0000 C.ar    1  LIG1        0.0206
     20 C          -0.0750   -0.0170    0.0000 C.ar    1  LIG1        0.0017
     21 C          -1.0880    0.1130    0.0000 C.ar    1  LIG1        0.0032
     22 C          -1.6460   -0.7500    0.0000 C.ar    1  LIG1        0.0376
     23 O          -3.4750   -3.1040    0.0000 O.2     1  LIG1       -0.2445
     24 C          -4.2130   -1.2000    0.0000 C.ar    1  LIG1       -0.0155
     25 C          -4.6170   -0.2580    0.0000 C.ar    1  LIG1       -0.0027
     26 C          -4.0080    0.5170    0.0000 C.ar    1  LIG1        0.0196
     27 C          -4.8540   -2.0130    0.0000 C.3     1  LIG1        0.0312
     28 N          -1.7750    2.0500    0.0000 N.3     1  LIG1       -0.1555
     29 C          -2.1380    2.9540    0.0000 C.3     1  LIG1        0.0958
     30 C          -3.1210    3.1080    0.0000 C.3     1  LIG1        0.0206
     31 C          -0.7920    1.8880    0.0000 C.3     1  LIG1        0.0958
     32 C          -0.1500    2.7000    0.0000 C.3     1  LIG1        0.0206
     33 O          -1.5710    0.6290    0.0000 O.2     1  LIG1       -0.1528
     34 O          -3.1960    1.8460    0.0000 O.2     1  LIG1       -0.1528
@<TRIPOS>BOND
     1     1     2    1
     2     1    28    1
     3     1    33    2
     4     1    34    2
     5     2     3   ar
     6     2    26   ar
     7     3     4   ar
     8     4     5    1
     9     4    24   ar
    10     5     6    1
    11     5    23    2
    12     6     7    1
    13     7     8   ar
    14     7    22   ar
    15     8     9   ar
    16     9    10    1
    17     9    20   ar
    18    10    11   ar
    19    10    15   ar
    20    11    12   ar
    21    12    13   ar
    22    12    19   ar
    23    13    14   ar
    24    13    16   ar
    25    14    15   ar
    26    16    17   ar
    27    17    18   ar
    28    18    19   ar
    29    20    21   ar
    30    21    22   ar
    31    24    25   ar
    32    24    27    1
    33    25    26   ar
    34    28    29    1
    35    28    31    1
    36    29    30    1
    37    31    32    1
