@<TRIPOS>MOLECULE
28589_ChemDiv_5763-0121
 22 25 0 0 0
SMALL
GASTEIGER
Energy = 0

@<TRIPOS>ATOM
      1 C           0.0920    0.1670    0.0000 C.ar    1  LIG1        0.0530
      2 C          -0.1960    1.1250    0.0000 C.ar    1  LIG1        0.0829
      3 N           0.4830    1.8630    0.0000 N.ar    1  LIG1       -0.2308
      4 C           1.4670    1.6330    0.0000 C.ar    1  LIG1        0.1423
      5 N           1.7540    0.6670    0.0000 N.ar    1  LIG1       -0.1932
      6 C           1.0580   -0.0630    0.0000 C.ar    1  LIG1        0.2777
      7 O           1.3460   -1.0130    0.0000 O.2     1  LIG1       -0.2655
      8 C           2.1500    2.3580    0.0000 C.3     1  LIG1        0.0658
      9 C           3.1170    2.1210    0.0000 C.3     1  LIG1        0.0084
     10 C          -1.1790    1.3630    0.0000 C.ar    1  LIG1        0.0136
     11 C          -1.8630    0.6210    0.0000 C.ar    1  LIG1       -0.0204
     12 C          -1.5750   -0.3330    0.0000 C.3     1  LIG1        0.0306
     13 C          -0.5960   -0.5580    0.0000 C.3     1  LIG1        0.0290
     14 C          -1.3630   -1.2040    0.0000 C.3     1  LIG1        0.0046
     15 C          -1.1960   -2.1790    0.0000 C.3     1  LIG1        0.0003
     16 C          -0.2580   -2.5290    0.0000 C.3     1  LIG1        0.0000
     17 C           0.5080   -1.8920    0.0000 C.3     1  LIG1        0.0003
     18 C           0.3500   -0.9080    0.0000 C.3     1  LIG1        0.0046
     19 C          -2.8290    0.8460    0.0000 C.ar    1  LIG1       -0.0042
     20 C          -3.1210    1.8000    0.0000 C.ar    1  LIG1       -0.0003
     21 C          -2.4500    2.5330    0.0000 C.ar    1  LIG1        0.0000
     22 C          -1.4710    2.3130    0.0000 C.ar    1  LIG1        0.0012
@<TRIPOS>BOND
     1     1     2   ar
     2     1     6   ar
     3     1    13    1
     4     2     3   ar
     5     2    10    1
     6     3     4   ar
     7     4     5   ar
     8     4     8    1
     9     5     6   ar
    10     6     7    2
    11     8     9    1
    12    10    11   ar
    13    10    22   ar
    14    11    12    1
    15    11    19   ar
    16    12    13    1
    17    13    14    1
    18    13    18    1
    19    14    15    1
    20    15    16    1
    21    16    17    1
    22    17    18    1
    23    19    20   ar
    24    20    21   ar
    25    21    22   ar
