@<TRIPOS>MOLECULE
28583_ChemDiv_5586-3125
 24 27 0 0 0
SMALL
GASTEIGER
Energy = 0

@<TRIPOS>ATOM
      1 C          -0.4130   -0.3710    0.0000 C.ar    1  LIG1        0.0530
      2 C          -0.4130    0.6290    0.0000 C.ar    1  LIG1        0.0831
      3 N           0.4330    1.1130    0.0000 N.ar    1  LIG1       -0.2255
      4 C           1.3080    0.6290    0.0000 C.ar    1  LIG1        0.1998
      5 N           1.3080   -0.3710    0.0000 N.ar    1  LIG1       -0.1872
      6 C           0.4330   -0.8630    0.0000 C.ar    1  LIG1        0.2779
      7 O           0.4330   -1.8580    0.0000 O.2     1  LIG1       -0.2655
      8 C           2.1750    1.1130    0.0000 C.3     1  LIG1        0.2060
      9 N           2.1750    2.1080    0.0000 N.4     1  LIG1        0.3926
     10 C           3.0210    2.5960    0.0000 C.3     1  LIG1        0.2032
     11 C           1.3130    2.6130    0.0000 C.3     1  LIG1        0.2032
     12 C          -1.2830    1.1130    0.0000 C.ar    1  LIG1        0.0136
     13 C          -2.1580    0.6290    0.0000 C.ar    1  LIG1       -0.0204
     14 C          -2.1580   -0.3710    0.0000 C.3     1  LIG1        0.0306
     15 C          -1.2830   -0.8630    0.0000 C.3     1  LIG1        0.0290
     16 C          -0.7630   -1.7380    0.0000 C.3     1  LIG1        0.0046
     17 C          -1.2670   -2.6170    0.0000 C.3     1  LIG1        0.0003
     18 C          -2.2630   -2.6250    0.0000 C.3     1  LIG1        0.0000
     19 C          -2.7790   -1.7380    0.0000 C.3     1  LIG1        0.0003
     20 C          -2.2790   -0.8630    0.0000 C.3     1  LIG1        0.0046
     21 C          -3.0250    1.1130    0.0000 C.ar    1  LIG1       -0.0042
     22 C          -3.0040    2.1080    0.0000 C.ar    1  LIG1       -0.0003
     23 C          -2.1330    2.6290    0.0000 C.ar    1  LIG1        0.0000
     24 C          -1.2670    2.1290    0.0000 C.ar    1  LIG1        0.0012
@<TRIPOS>BOND
     1     1     2   ar
     2     1     6   ar
     3     1    15    1
     4     2     3   ar
     5     2    12    1
     6     3     4   ar
     7     4     5   ar
     8     4     8    1
     9     5     6   ar
    10     6     7    2
    11     8     9    1
    12     9    10    1
    13     9    11    1
    14    12    13   ar
    15    12    24   ar
    16    13    14    1
    17    13    21   ar
    18    14    15    1
    19    15    16    1
    20    15    20    1
    21    16    17    1
    22    17    18    1
    23    18    19    1
    24    19    20    1
    25    21    22   ar
    26    22    23   ar
    27    23    24   ar
