@<TRIPOS>MOLECULE
28587_ChemDiv_5731-0195
 34 38 0 0 0
SMALL
GASTEIGER
Energy = 0

@<TRIPOS>ATOM
      1 N           0.0080   -0.9960    0.0000 N.ar    1  LIG1       -0.2776
      2 C           0.0080    0.0080    0.0000 C.ar    1  LIG1        0.1739
      3 N          -0.8670    0.5250    0.0000 N.ar    1  LIG1       -0.2227
      4 C          -1.7460    0.0210    0.0000 C.ar    1  LIG1        0.0836
      5 C          -1.7540   -0.9880    0.0000 C.ar    1  LIG1        0.0513
      6 C          -0.8830   -1.4960    0.0000 C.ar    1  LIG1        0.2596
      7 O          -0.8960   -2.4920    0.0000 O.2     1  LIG1       -0.2672
      8 C          -2.6170   -1.4750    0.0000 C.3     1  LIG1        0.0289
      9 C          -3.4790   -0.9630    0.0000 C.3     1  LIG1        0.0306
     10 C          -3.4790    0.0210    0.0000 C.ar    1  LIG1       -0.0204
     11 C          -2.6000    0.5250    0.0000 C.ar    1  LIG1        0.0136
     12 C          -2.6000    1.5250    0.0000 C.ar    1  LIG1        0.0012
     13 C          -3.4670    2.0250    0.0000 C.ar    1  LIG1        0.0000
     14 C          -4.3420    1.5250    0.0000 C.ar    1  LIG1       -0.0003
     15 C          -4.3420    0.5250    0.0000 C.ar    1  LIG1       -0.0042
     16 C          -1.8130   -2.0670    0.0000 C.3     1  LIG1        0.0046
     17 C          -2.1170   -3.0130    0.0000 C.3     1  LIG1        0.0003
     18 C          -3.1130   -3.0130    0.0000 C.3     1  LIG1        0.0003
     19 C          -3.4170   -2.0670    0.0000 C.3     1  LIG1        0.0046
     20 S           0.8630    0.5250    0.0000 S.3     1  LIG1       -0.0653
     21 C           0.8630    1.5130    0.0000 C.3     1  LIG1        0.1742
     22 C           1.7290    2.0250    0.0000 C.2     1  LIG1        0.3286
     23 O           1.7290    3.0170    0.0000 O.2     1  LIG1       -0.2491
     24 O           2.6040    1.5130    0.0000 O.3     1  LIG1       -0.4479
     25 C           3.4670    2.0250    0.0000 C.3     1  LIG1        0.2086
     26 C           4.3380    1.5250    0.0000 C.3     1  LIG1        0.0513
     27 C           1.0000   -0.9880    0.0000 C.3     1  LIG1        0.0951
     28 C           1.5000   -1.8580    0.0000 C.3     1  LIG1        0.0500
     29 C           2.4960   -1.8580    0.0000 C.3     1  LIG1        0.0947
     30 O           3.0040   -0.9880    0.0000 O.3     1  LIG1       -0.3584
     31 C           2.4960   -0.1420    0.0000 C.3     1  LIG1        0.1439
     32 C           1.5000   -0.1420    0.0000 C.3     1  LIG1        0.0548
     33 C           2.2380   -2.8170    0.0000 C.3     1  LIG1        0.0297
     34 C           3.0040   -2.7250    0.0000 C.3     1  LIG1        0.0297
@<TRIPOS>BOND
     1     1     2   ar
     2     1     6   ar
     3     1    27    1
     4     2     3   ar
     5     2    20    1
     6     3     4   ar
     7     4     5   ar
     8     4    11    1
     9     5     6   ar
    10     5     8    1
    11     6     7    2
    12     8     9    1
    13     8    16    1
    14     8    19    1
    15     9    10    1
    16    10    11   ar
    17    10    15   ar
    18    11    12   ar
    19    12    13   ar
    20    13    14   ar
    21    14    15   ar
    22    16    17    1
    23    17    18    1
    24    18    19    1
    25    20    21    1
    26    21    22    1
    27    22    23    2
    28    22    24    1
    29    24    25    1
    30    25    26    1
    31    27    28    1
    32    27    32    1
    33    28    29    1
    34    29    30    1
    35    29    33    1
    36    29    34    1
    37    30    31    1
    38    31    32    1
