@<TRIPOS>MOLECULE
28593_ChemDiv_3455-1356
 28 31 0 0 0
SMALL
GASTEIGER
Energy = 0

@<TRIPOS>ATOM
      1 C           1.4540    0.0920    0.0000 C.2     1  LIG1        0.2444
      2 C           0.9290   -0.7750    0.0000 C.3     1  LIG1        0.0940
      3 C           1.9920   -0.7750    0.0000 C.ar    1  LIG1       -0.0144
      4 C           2.5460   -1.5460    0.0000 C.ar    1  LIG1       -0.0038
      5 C           3.5790   -1.5420    0.0000 C.ar    1  LIG1       -0.0003
      6 C           4.0540   -0.6540    0.0000 C.ar    1  LIG1       -0.0000
      7 C           3.4790    0.2040    0.0000 C.ar    1  LIG1       -0.0003
      8 C           2.4080    0.2040    0.0000 C.ar    1  LIG1       -0.0038
      9 C           1.4130   -1.6210    0.0000 C.3     1  LIG1        0.0449
     10 C           0.8880   -2.5130    0.0000 C.3     1  LIG1        0.1430
     11 O          -0.1000   -2.4960    0.0000 O.3     1  LIG1       -0.3537
     12 C          -0.5920   -1.6040    0.0000 C.3     1  LIG1        0.1430
     13 C          -0.0790   -0.7580    0.0000 C.3     1  LIG1        0.0449
     14 N           0.6040    0.6000    0.0000 N.am    1  LIG1       -0.2048
     15 C          -0.2710    0.1420    0.0000 C.3     1  LIG1        0.1192
     16 C          -1.2920    0.7580    0.0000 C.3     1  LIG1        0.0438
     17 C          -2.2210    0.2920    0.0000 C.ar    1  LIG1       -0.0210
     18 C          -3.1080    0.7580    0.0000 C.ar    1  LIG1       -0.0042
     19 C          -4.0580    0.2380    0.0000 C.ar    1  LIG1       -0.0003
     20 C          -4.0580   -0.7750    0.0000 C.ar    1  LIG1       -0.0000
     21 C          -3.1000   -1.3000    0.0000 C.ar    1  LIG1       -0.0003
     22 C          -2.2210   -0.7750    0.0000 C.ar    1  LIG1       -0.0042
     23 C          -0.4960    1.2630    0.0000 C.3     1  LIG1        0.0379
     24 C          -0.4960    2.0920    0.0000 C.3     1  LIG1        0.1425
     25 O          -1.2630    2.5170    0.0000 O.3     1  LIG1       -0.3538
     26 C          -2.0710    2.0920    0.0000 C.3     1  LIG1        0.1425
     27 C          -2.0710    1.2630    0.0000 C.3     1  LIG1        0.0379
     28 O           2.2750    0.5540    0.0000 O.2     1  LIG1       -0.2730
@<TRIPOS>BOND
     1     1     2    1
     2     1    14   am
     3     1    28    2
     4     2     3    1
     5     2     9    1
     6     2    13    1
     7     3     4   ar
     8     3     8   ar
     9     4     5   ar
    10     5     6   ar
    11     6     7   ar
    12     7     8   ar
    13     9    10    1
    14    10    11    1
    15    11    12    1
    16    12    13    1
    17    14    15    1
    18    15    16    1
    19    16    17    1
    20    16    23    1
    21    16    27    1
    22    17    18   ar
    23    17    22   ar
    24    18    19   ar
    25    19    20   ar
    26    20    21   ar
    27    21    22   ar
    28    23    24    1
    29    24    25    1
    30    25    26    1
    31    26    27    1
