@<TRIPOS>MOLECULE
28599_ChemDiv_4146-0585
 22 23 0 0 0
SMALL
GASTEIGER
Energy = 0

@<TRIPOS>ATOM
      1 C          -1.7130    0.0380    0.0000 C.3     1  LIG1        0.0438
      2 C          -0.8750   -0.4460    0.0000 C.3     1  LIG1        0.1194
      3 N          -0.0380    0.0380    0.0000 N.am    1  LIG1       -0.2001
      4 C           0.8710   -0.4460    0.0000 C.2     1  LIG1        0.2991
      5 O           0.8710   -1.4960    0.0000 O.2     1  LIG1       -0.2669
      6 C           1.7080    0.0380    0.0000 C.3     1  LIG1        0.2265
      7 N           2.5420   -0.4460    0.0000 N.4     1  LIG1        0.3844
      8 C           3.4500    0.0380    0.0000 C.3     1  LIG1        0.1395
      9 C           4.2880   -0.5210    0.0000 C.3     1  LIG1        0.0689
     10 C           2.5420   -1.4960    0.0000 C.3     1  LIG1        0.1395
     11 C           3.4500   -1.9830    0.0000 C.3     1  LIG1        0.0689
     12 C          -2.6170   -0.4460    0.0000 C.ar    1  LIG1       -0.0210
     13 C          -2.6170   -1.4960    0.0000 C.ar    1  LIG1       -0.0042
     14 C          -3.4540   -1.9830    0.0000 C.ar    1  LIG1       -0.0003
     15 C          -4.2920   -1.4960    0.0000 C.ar    1  LIG1       -0.0000
     16 C          -4.2920   -0.4460    0.0000 C.ar    1  LIG1       -0.0003
     17 C          -3.4540    0.0380    0.0000 C.ar    1  LIG1       -0.0042
     18 C          -0.8750    0.5290    0.0000 C.3     1  LIG1        0.0379
     19 C          -0.8750    1.5000    0.0000 C.3     1  LIG1        0.1425
     20 O          -1.7130    1.9880    0.0000 O.3     1  LIG1       -0.3538
     21 C          -2.6170    1.5000    0.0000 C.3     1  LIG1        0.1425
     22 C          -2.6170    0.5290    0.0000 C.3     1  LIG1        0.0379
@<TRIPOS>BOND
     1     1     2    1
     2     1    12    1
     3     1    18    1
     4     1    22    1
     5     2     3    1
     6     3     4   am
     7     4     5    2
     8     4     6    1
     9     6     7    1
    10     7     8    1
    11     7    10    1
    12     8     9    1
    13    10    11    1
    14    12    13   ar
    15    12    17   ar
    16    13    14   ar
    17    14    15   ar
    18    15    16   ar
    19    16    17   ar
    20    18    19    1
    21    19    20    1
    22    20    21    1
    23    21    22    1
