@<TRIPOS>MOLECULE
28591_ChemDiv_5763-0135
 25 28 0 0 0
SMALL
GASTEIGER
Energy = 0

@<TRIPOS>ATOM
      1 C          -0.4330   -1.1000    0.0000 C.ar    1  LIG1        0.0530
      2 C          -0.7210   -0.1330    0.0000 C.ar    1  LIG1        0.0830
      3 N          -0.0290    0.6080    0.0000 N.ar    1  LIG1       -0.2299
      4 C           0.9540    0.3670    0.0000 C.ar    1  LIG1        0.1532
      5 N           1.2460   -0.6040    0.0000 N.ar    1  LIG1       -0.1923
      6 C           0.5500   -1.3290    0.0000 C.ar    1  LIG1        0.2777
      7 O           0.8380   -2.2920    0.0000 O.2     1  LIG1       -0.2655
      8 C           1.2080    1.3330    0.0000 C.3     1  LIG1        0.1231
      9 S           2.1670    1.6040    0.0000 S.3     1  LIG1       -0.1294
     10 C           2.4250    2.5630    0.0000 C.3     1  LIG1        0.0935
     11 C           3.3750    2.8290    0.0000 C.3     1  LIG1        0.1937
     12 O           3.6330    3.7960    0.0000 O.3     1  LIG1       -0.2194
     13 C          -1.6920    0.0920    0.0000 C.ar    1  LIG1        0.0136
     14 C          -2.3830   -0.6500    0.0000 C.ar    1  LIG1       -0.0204
     15 C          -2.0880   -1.6000    0.0000 C.3     1  LIG1        0.0306
     16 C          -1.1130   -1.8290    0.0000 C.3     1  LIG1        0.0290
     17 C          -1.8830   -2.4710    0.0000 C.3     1  LIG1        0.0046
     18 C          -1.7080   -3.4460    0.0000 C.3     1  LIG1        0.0003
     19 C          -0.7790   -3.7920    0.0000 C.3     1  LIG1        0.0000
     20 C          -0.0080   -3.1580    0.0000 C.3     1  LIG1        0.0003
     21 C          -0.1750   -2.1750    0.0000 C.3     1  LIG1        0.0046
     22 C          -3.3500   -0.4210    0.0000 C.ar    1  LIG1       -0.0042
     23 C          -3.6380    0.5290    0.0000 C.ar    1  LIG1       -0.0003
     24 C          -2.9630    1.2630    0.0000 C.ar    1  LIG1        0.0000
     25 C          -1.9920    1.0460    0.0000 C.ar    1  LIG1        0.0012
@<TRIPOS>BOND
     1     1     2   ar
     2     1     6   ar
     3     1    16    1
     4     2     3   ar
     5     2    13    1
     6     3     4   ar
     7     4     5   ar
     8     4     8    1
     9     5     6   ar
    10     6     7    2
    11     8     9    1
    12     9    10    1
    13    10    11    1
    14    11    12    1
    15    13    14   ar
    16    13    25   ar
    17    14    15    1
    18    14    22   ar
    19    15    16    1
    20    16    17    1
    21    16    21    1
    22    17    18    1
    23    18    19    1
    24    19    20    1
    25    20    21    1
    26    22    23   ar
    27    23    24   ar
    28    24    25   ar
