@<TRIPOS>MOLECULE
28592_ChemDiv_6969-0506
 19 22 0 0 0
SMALL
GASTEIGER
Energy = 0

@<TRIPOS>ATOM
      1 N           1.2420    0.5460    0.0000 N.ar    1  LIG1       -0.1702
      2 C           1.8420   -0.2630    0.0000 C.ar    1  LIG1        0.2747
      3 N           1.4460   -1.1880    0.0000 N.ar    1  LIG1       -0.1897
      4 C           0.4460   -1.2960    0.0000 C.ar    1  LIG1        0.1666
      5 C          -0.1420   -0.4880    0.0000 C.ar    1  LIG1        0.1368
      6 N           0.2540    0.4250    0.0000 N.ar    1  LIG1       -0.1577
      7 C          -1.0880   -0.8000    0.0000 C.ar    1  LIG1        0.0382
      8 C          -1.0830   -1.8040    0.0000 C.ar    1  LIG1        0.0627
      9 N          -0.1380   -2.1080    0.0000 N.ar    1  LIG1       -0.3093
     10 C           0.1790   -3.0630    0.0000 C.3     1  LIG1        0.1319
     11 C          -1.9500   -2.2960    0.0000 C.ar    1  LIG1        0.0173
     12 C          -2.8040   -1.8040    0.0000 C.ar    1  LIG1        0.0015
     13 C          -2.8040   -0.8130    0.0000 C.ar    1  LIG1        0.0001
     14 C          -1.9500   -0.3080    0.0000 C.ar    1  LIG1        0.0031
     15 N           2.8000    0.0500    0.0000 N.ar    1  LIG1       -0.1060
     16 N           2.7880    1.0580    0.0000 N.ar    1  LIG1       -0.1188
     17 C           1.8290    1.3710    0.0000 C.ar    1  LIG1        0.2144
     18 S           1.5080    2.3130    0.0000 S.3     1  LIG1       -0.0730
     19 C           2.1670    3.0670    0.0000 C.3     1  LIG1        0.0773
@<TRIPOS>BOND
     1     1     2   ar
     2     1     6   ar
     3     1    17   ar
     4     2     3   ar
     5     2    15   ar
     6     3     4   ar
     7     4     5   ar
     8     4     9   ar
     9     5     6   ar
    10     5     7   ar
    11     7     8   ar
    12     7    14   ar
    13     8     9   ar
    14     8    11   ar
    15     9    10    1
    16    11    12   ar
    17    12    13   ar
    18    13    14   ar
    19    15    16   ar
    20    16    17   ar
    21    17    18    1
    22    18    19    1
