@<TRIPOS>MOLECULE
28597_ChemDiv_3455-1372
 24 26 0 0 0
SMALL
GASTEIGER
Energy = 0

@<TRIPOS>ATOM
      1 C           1.0000   -0.5290    0.0000 C.2     1  LIG1        0.2926
      2 N           0.1380   -0.0080    0.0000 N.am    1  LIG1       -0.2003
      3 C          -0.7380   -0.4750    0.0000 C.3     1  LIG1        0.1194
      4 C          -1.7580    0.1460    0.0000 C.3     1  LIG1        0.0438
      5 C          -2.6830   -0.3210    0.0000 C.ar    1  LIG1       -0.0210
      6 C          -2.6830   -1.3830    0.0000 C.ar    1  LIG1       -0.0042
      7 C          -3.5750   -1.9130    0.0000 C.ar    1  LIG1       -0.0003
      8 C          -4.5330   -1.3830    0.0000 C.ar    1  LIG1       -0.0000
      9 C          -4.5330   -0.3790    0.0000 C.ar    1  LIG1       -0.0003
     10 C          -3.5880    0.1460    0.0000 C.ar    1  LIG1       -0.0042
     11 C          -2.5380    0.6580    0.0000 C.3     1  LIG1        0.0379
     12 C          -2.5380    1.4790    0.0000 C.3     1  LIG1        0.1425
     13 O          -1.7250    1.9170    0.0000 O.3     1  LIG1       -0.3538
     14 C          -0.9630    1.4790    0.0000 C.3     1  LIG1        0.1425
     15 C          -0.9630    0.6580    0.0000 C.3     1  LIG1        0.0379
     16 C           1.8170    0.0250    0.0000 C.3     1  LIG1        0.1660
     17 N           2.7460   -0.4080    0.0000 N.4     1  LIG1        0.3796
     18 C           3.5420    0.1380    0.0000 C.3     1  LIG1        0.1389
     19 C           4.5210   -0.3250    0.0000 C.3     1  LIG1        0.0629
     20 C           4.5290   -1.2880    0.0000 C.3     1  LIG1        0.0123
     21 C           3.6880   -1.8540    0.0000 C.3     1  LIG1        0.0629
     22 C           2.7460   -1.4130    0.0000 C.3     1  LIG1        0.1389
     23 C           1.8170    1.0130    0.0000 C.3     1  LIG1        0.0730
     24 O           1.0000   -1.6210    0.0000 O.2     1  LIG1       -0.2671
@<TRIPOS>BOND
     1     1     2   am
     2     1    16    1
     3     1    24    2
     4     2     3    1
     5     3     4    1
     6     4     5    1
     7     4    11    1
     8     4    15    1
     9     5     6   ar
    10     5    10   ar
    11     6     7   ar
    12     7     8   ar
    13     8     9   ar
    14     9    10   ar
    15    11    12    1
    16    12    13    1
    17    13    14    1
    18    14    15    1
    19    16    17    1
    20    16    23    1
    21    17    18    1
    22    17    22    1
    23    18    19    1
    24    19    20    1
    25    20    21    1
    26    21    22    1
