@<TRIPOS>MOLECULE
28595_ChemDiv_3455-1363
 21 22 0 0 0
SMALL
GASTEIGER
Energy = 0

@<TRIPOS>ATOM
      1 C          -1.6920    0.1130    0.0000 C.3     1  LIG1        0.0438
      2 C          -0.6630   -0.4830    0.0000 C.3     1  LIG1        0.1192
      3 N           0.2460   -0.0250    0.0000 N.am    1  LIG1       -0.2051
      4 C           1.0920   -0.5170    0.0000 C.2     1  LIG1        0.2418
      5 O           1.0920   -1.5130    0.0000 O.2     1  LIG1       -0.2733
      6 C           1.9750   -0.0290    0.0000 C.3     1  LIG1        0.0927
      7 C           2.8210   -0.5460    0.0000 C.3     1  LIG1        0.0513
      8 C           3.6920   -0.0880    0.0000 C.2     1  LIG1        0.0508
      9 O           3.6920    0.9420    0.0000 O.co2   1  LIG1       -0.5492
     10 O           4.4830   -0.6290    0.0000 O.co2   1  LIG1       -0.5492
     11 C          -2.6250   -0.3330    0.0000 C.ar    1  LIG1       -0.0210
     12 C          -2.6250   -1.4540    0.0000 C.ar    1  LIG1       -0.0042
     13 C          -3.5040   -1.9630    0.0000 C.ar    1  LIG1       -0.0003
     14 C          -4.4880   -1.4540    0.0000 C.ar    1  LIG1       -0.0000
     15 C          -4.4880   -0.4080    0.0000 C.ar    1  LIG1       -0.0003
     16 C          -3.5290    0.1130    0.0000 C.ar    1  LIG1       -0.0042
     17 C          -2.4790    0.6540    0.0000 C.3     1  LIG1        0.0379
     18 C          -2.4790    1.4880    0.0000 C.3     1  LIG1        0.1425
     19 O          -1.6880    1.9670    0.0000 O.3     1  LIG1       -0.3538
     20 C          -0.9000    1.4880    0.0000 C.3     1  LIG1        0.1425
     21 C          -0.9000    0.6540    0.0000 C.3     1  LIG1        0.0379
@<TRIPOS>BOND
     1     1     2    1
     2     1    11    1
     3     1    17    1
     4     1    21    1
     5     2     3    1
     6     3     4   am
     7     4     5    2
     8     4     6    1
     9     6     7    1
    10     7     8    1
    11     8     9   ar
    12     8    10   ar
    13    11    12   ar
    14    11    16   ar
    15    12    13   ar
    16    13    14   ar
    17    14    15   ar
    18    15    16   ar
    19    17    18    1
    20    18    19    1
    21    19    20    1
    22    20    21    1
