@<TRIPOS>MOLECULE
28590_ChemDiv_4896-2912
 22 25 0 0 0
SMALL
GASTEIGER
Energy = 0

@<TRIPOS>ATOM
      1 N           1.2460   -0.3170    0.0000 N.ar    1  LIG1       -0.1702
      2 C           1.8420   -1.1380    0.0000 C.ar    1  LIG1        0.2747
      3 N           1.4250   -2.0380    0.0000 N.ar    1  LIG1       -0.1897
      4 C           0.4330   -2.1330    0.0000 C.ar    1  LIG1        0.1666
      5 C          -0.1460   -1.3330    0.0000 C.ar    1  LIG1        0.1368
      6 N           0.2500   -0.4130    0.0000 N.ar    1  LIG1       -0.1577
      7 C          -1.0960   -1.6500    0.0000 C.ar    1  LIG1        0.0382
      8 C          -1.0960   -2.6420    0.0000 C.ar    1  LIG1        0.0627
      9 N          -0.1460   -2.9460    0.0000 N.ar    1  LIG1       -0.3093
     10 C           0.1630   -3.8880    0.0000 C.3     1  LIG1        0.1319
     11 C          -1.9540   -3.1290    0.0000 C.ar    1  LIG1        0.0173
     12 C          -2.8130   -2.6420    0.0000 C.ar    1  LIG1        0.0015
     13 C          -2.8130   -1.6500    0.0000 C.ar    1  LIG1        0.0001
     14 C          -1.9540   -1.1420    0.0000 C.ar    1  LIG1        0.0031
     15 N           2.8130   -0.8130    0.0000 N.ar    1  LIG1       -0.1060
     16 N           2.8130    0.1880    0.0000 N.ar    1  LIG1       -0.1188
     17 C           1.8420    0.5130    0.0000 C.ar    1  LIG1        0.2147
     18 S           1.5380    1.4630    0.0000 S.3     1  LIG1       -0.0679
     19 C           2.2170    2.2170    0.0000 C.3     1  LIG1        0.1066
     20 C           1.8880    3.1420    0.0000 C.2     1  LIG1        0.0617
     21 O           2.5670    3.8920    0.0000 O.co2   1  LIG1       -0.5483
     22 O           0.9130    3.3580    0.0000 O.co2   1  LIG1       -0.5483
@<TRIPOS>BOND
     1     1     2   ar
     2     1     6   ar
     3     1    17   ar
     4     2     3   ar
     5     2    15   ar
     6     3     4   ar
     7     4     5   ar
     8     4     9   ar
     9     5     6   ar
    10     5     7   ar
    11     7     8   ar
    12     7    14   ar
    13     8     9   ar
    14     8    11   ar
    15     9    10    1
    16    11    12   ar
    17    12    13   ar
    18    13    14   ar
    19    15    16   ar
    20    16    17   ar
    21    17    18    1
    22    18    19    1
    23    19    20    1
    24    20    21   ar
    25    20    22   ar
