@<TRIPOS>MOLECULE
28609_ChemDiv_6500-0109
 27 30 0 0 0
SMALL
GASTEIGER
Energy = 0

@<TRIPOS>ATOM
      1 C          -0.8880   -0.4750    0.0000 C.ar    1  LIG1        0.0513
      2 C          -0.8790    0.5330    0.0000 C.ar    1  LIG1        0.0831
      3 N          -0.0040    1.0330    0.0000 N.ar    1  LIG1       -0.2284
      4 C           0.8630    0.5210    0.0000 C.ar    1  LIG1        0.1460
      5 N           0.8580   -0.4880    0.0000 N.ar    1  LIG1       -0.2782
      6 C          -0.0210   -0.9880    0.0000 C.ar    1  LIG1        0.2594
      7 O          -0.0330   -1.9830    0.0000 O.2     1  LIG1       -0.2672
      8 C           1.7170   -0.9960    0.0000 C.3     1  LIG1        0.1459
      9 C           1.7080   -1.9920    0.0000 C.3     1  LIG1        0.2066
     10 O           2.5670   -2.5000    0.0000 O.3     1  LIG1       -0.2182
     11 C           1.7380    1.0130    0.0000 C.ar    1  LIG1        0.0342
     12 C           2.5920    0.5000    0.0000 C.ar    1  LIG1        0.0030
     13 C           3.4580    0.9880    0.0000 C.ar    1  LIG1        0.0001
     14 C           3.4710    1.9920    0.0000 C.ar    1  LIG1        0.0000
     15 C           2.6000    2.4960    0.0000 C.ar    1  LIG1        0.0001
     16 C           1.7420    2.0000    0.0000 C.ar    1  LIG1        0.0030
     17 C          -1.7460    1.0330    0.0000 C.ar    1  LIG1        0.0136
     18 C          -2.6130    0.5420    0.0000 C.ar    1  LIG1       -0.0204
     19 C          -2.6130   -0.4580    0.0000 C.3     1  LIG1        0.0306
     20 C          -1.7540   -0.9670    0.0000 C.3     1  LIG1        0.0289
     21 C          -2.4710   -1.6710    0.0000 C.3     1  LIG1        0.0046
     22 C          -1.9710   -2.5290    0.0000 C.3     1  LIG1        0.0003
     23 C          -1.0500   -1.6710    0.0000 C.3     1  LIG1        0.0049
     24 C          -3.4750    1.0330    0.0000 C.ar    1  LIG1       -0.0042
     25 C          -3.4750    2.0330    0.0000 C.ar    1  LIG1       -0.0003
     26 C          -2.6130    2.5330    0.0000 C.ar    1  LIG1        0.0000
     27 C          -1.7460    2.0330    0.0000 C.ar    1  LIG1        0.0012
@<TRIPOS>BOND
     1     1     2   ar
     2     1     6   ar
     3     1    20    1
     4     2     3   ar
     5     2    17    1
     6     3     4   ar
     7     4     5   ar
     8     4    11    1
     9     5     6   ar
    10     5     8    1
    11     6     7    2
    12     8     9    1
    13     9    10    1
    14    11    12   ar
    15    11    16   ar
    16    12    13   ar
    17    13    14   ar
    18    14    15   ar
    19    15    16   ar
    20    17    18   ar
    21    17    27   ar
    22    18    19    1
    23    18    24   ar
    24    19    20    1
    25    20    21    1
    26    20    23    1
    27    21    22    1
    28    24    25   ar
    29    25    26   ar
    30    26    27   ar
