@<TRIPOS>MOLECULE
28605_ChemDiv_4506-0441
 22 23 0 0 0
SMALL
GASTEIGER
Energy = 0

@<TRIPOS>ATOM
      1 C          -0.8830   -0.1670    0.0000 C.3     1  LIG1        0.0940
      2 C           0.1790   -0.7710    0.0000 C.2     1  LIG1        0.2446
      3 O           0.1790   -1.7420    0.0000 O.2     1  LIG1       -0.2730
      4 N           1.0170   -0.2710    0.0000 N.am    1  LIG1       -0.1988
      5 C           1.8540   -0.7500    0.0000 C.3     1  LIG1        0.1775
      6 C           2.8290   -0.2380    0.0000 C.3     1  LIG1        0.1624
      7 N           2.8290    0.7500    0.0000 N.4     1  LIG1        0.3786
      8 C           3.7130    1.2000    0.0000 C.3     1  LIG1        0.1388
      9 C           3.7130    2.2630    0.0000 C.3     1  LIG1        0.0688
     10 C           2.0170    1.2540    0.0000 C.3     1  LIG1        0.1388
     11 C           2.0170    2.2250    0.0000 C.3     1  LIG1        0.0688
     12 C          -1.8420   -0.6080    0.0000 C.ar    1  LIG1       -0.0144
     13 C          -2.7460   -0.1670    0.0000 C.ar    1  LIG1       -0.0038
     14 C          -3.7170   -0.6630    0.0000 C.ar    1  LIG1       -0.0003
     15 C          -3.7170   -1.7080    0.0000 C.ar    1  LIG1       -0.0000
     16 C          -2.7460   -2.2580    0.0000 C.ar    1  LIG1       -0.0003
     17 C          -1.8420   -1.7080    0.0000 C.ar    1  LIG1       -0.0038
     18 C          -0.0790    0.2580    0.0000 C.3     1  LIG1        0.0449
     19 C          -0.0790    1.1130    0.0000 C.3     1  LIG1        0.1430
     20 O          -0.8750    1.5380    0.0000 O.3     1  LIG1       -0.3537
     21 C          -1.6750    1.1130    0.0000 C.3     1  LIG1        0.1430
     22 C          -1.6750    0.2580    0.0000 C.3     1  LIG1        0.0449
@<TRIPOS>BOND
     1     1     2    1
     2     1    12    1
     3     1    18    1
     4     1    22    1
     5     2     3    2
     6     2     4   am
     7     4     5    1
     8     5     6    1
     9     6     7    1
    10     7     8    1
    11     7    10    1
    12     8     9    1
    13    10    11    1
    14    12    13   ar
    15    12    17   ar
    16    13    14   ar
    17    14    15   ar
    18    15    16   ar
    19    16    17   ar
    20    18    19    1
    21    19    20    1
    22    20    21    1
    23    21    22    1
