@<TRIPOS>MOLECULE
28607_ChemDiv_4950-0075
 23 24 0 0 0
SMALL
GASTEIGER
Energy = 0

@<TRIPOS>ATOM
      1 C           0.8500   -0.5290    0.0000 C.2     1  LIG1        0.2926
      2 N           0.0000   -0.0330    0.0000 N.am    1  LIG1       -0.2003
      3 C          -0.8540   -0.5290    0.0000 C.3     1  LIG1        0.1194
      4 C          -1.7750   -0.0330    0.0000 C.3     1  LIG1        0.0438
      5 C          -2.6250   -0.5290    0.0000 C.ar    1  LIG1       -0.0210
      6 C          -3.4750   -0.0330    0.0000 C.ar    1  LIG1       -0.0042
      7 C          -4.3250   -0.5290    0.0000 C.ar    1  LIG1       -0.0003
      8 C          -4.3250   -1.5210    0.0000 C.ar    1  LIG1       -0.0000
      9 C          -3.4750   -2.0170    0.0000 C.ar    1  LIG1       -0.0003
     10 C          -2.6250   -1.5210    0.0000 C.ar    1  LIG1       -0.0042
     11 C          -0.8540    0.5380    0.0000 C.3     1  LIG1        0.0379
     12 C          -0.8540    1.5250    0.0000 C.3     1  LIG1        0.1425
     13 O          -1.7750    2.0210    0.0000 O.3     1  LIG1       -0.3538
     14 C          -2.6250    1.5250    0.0000 C.3     1  LIG1        0.1425
     15 C          -2.6250    0.5380    0.0000 C.3     1  LIG1        0.0379
     16 C           1.7000   -0.0330    0.0000 C.3     1  LIG1        0.1660
     17 N           2.6210   -0.5290    0.0000 N.4     1  LIG1        0.3796
     18 C           2.6210   -1.5210    0.0000 C.3     1  LIG1        0.1391
     19 C           3.4710   -2.0170    0.0000 C.3     1  LIG1        0.0689
     20 C           3.4710   -0.0330    0.0000 C.3     1  LIG1        0.1391
     21 C           4.3210   -0.5290    0.0000 C.3     1  LIG1        0.0689
     22 C           1.7000    0.9580    0.0000 C.3     1  LIG1        0.0730
     23 O           0.8500   -1.5210    0.0000 O.2     1  LIG1       -0.2671
@<TRIPOS>BOND
     1     1     2   am
     2     1    16    1
     3     1    23    2
     4     2     3    1
     5     3     4    1
     6     4     5    1
     7     4    11    1
     8     4    15    1
     9     5     6   ar
    10     5    10   ar
    11     6     7   ar
    12     7     8   ar
    13     8     9   ar
    14     9    10   ar
    15    11    12    1
    16    12    13    1
    17    13    14    1
    18    14    15    1
    19    16    17    1
    20    16    22    1
    21    17    18    1
    22    17    20    1
    23    18    19    1
    24    20    21    1
