@<TRIPOS>MOLECULE
28601_ChemDiv_4435-0146
 31 34 0 0 0
SMALL
GASTEIGER
Energy = 0

@<TRIPOS>ATOM
      1 C           1.7210    0.2500    0.0000 C.2     1  LIG1        0.2491
      2 N           0.8630    0.7670    0.0000 N.am    1  LIG1       -0.2045
      3 C           0.0040    0.2710    0.0000 C.3     1  LIG1        0.1192
      4 C          -0.8830    0.7670    0.0000 C.3     1  LIG1        0.0438
      5 C          -1.7580    0.2500    0.0000 C.ar    1  LIG1       -0.0208
      6 C          -2.6210    0.7670    0.0000 C.ar    1  LIG1       -0.0011
      7 C          -3.4830    0.2500    0.0000 C.ar    1  LIG1        0.0366
      8 C          -3.4830   -0.7380    0.0000 C.ar    1  LIG1        0.1387
      9 C          -2.6210   -1.2500    0.0000 C.ar    1  LIG1        0.0366
     10 C          -1.7580   -0.7380    0.0000 C.ar    1  LIG1       -0.0011
     11 O          -4.3500   -1.2670    0.0000 O.3     1  LIG1       -0.4714
     12 C          -4.3500   -2.2540    0.0000 C.3     1  LIG1        0.2525
     13 C          -1.7330    1.2580    0.0000 C.3     1  LIG1        0.0379
     14 C          -1.7330    2.2880    0.0000 C.3     1  LIG1        0.1425
     15 O          -0.8830    2.7790    0.0000 O.3     1  LIG1       -0.3538
     16 C           0.0040    2.2880    0.0000 C.3     1  LIG1        0.1425
     17 C           0.0040    1.2750    0.0000 C.3     1  LIG1        0.0379
     18 C           1.7210   -0.7630    0.0000 C.3     1  LIG1        0.1226
     19 C           2.5750   -1.2670    0.0000 C.ar    1  LIG1       -0.0097
     20 C           2.5880   -2.2670    0.0000 C.ar    1  LIG1       -0.0035
     21 C           3.4630   -2.7750    0.0000 C.ar    1  LIG1       -0.0003
     22 C           4.3460   -2.2460    0.0000 C.ar    1  LIG1       -0.0000
     23 C           4.3130   -1.2670    0.0000 C.ar    1  LIG1       -0.0003
     24 C           3.4380   -0.7710    0.0000 C.ar    1  LIG1       -0.0035
     25 C           0.8630   -1.2670    0.0000 C.ar    1  LIG1       -0.0097
     26 C           0.0040   -0.7880    0.0000 C.ar    1  LIG1       -0.0035
     27 C          -0.8500   -1.2830    0.0000 C.ar    1  LIG1       -0.0003
     28 C          -0.8500   -2.2880    0.0000 C.ar    1  LIG1       -0.0000
     29 C           0.0130   -2.7630    0.0000 C.ar    1  LIG1       -0.0003
     30 C           0.8630   -2.2540    0.0000 C.ar    1  LIG1       -0.0035
     31 O           2.5460    0.7710    0.0000 O.2     1  LIG1       -0.2726
@<TRIPOS>BOND
     1     1     2   am
     2     1    18    1
     3     1    31    2
     4     2     3    1
     5     3     4    1
     6     4     5    1
     7     4    13    1
     8     4    17    1
     9     5     6   ar
    10     5    10   ar
    11     6     7   ar
    12     7     8   ar
    13     8     9   ar
    14     8    11    1
    15     9    10   ar
    16    11    12    1
    17    13    14    1
    18    14    15    1
    19    15    16    1
    20    16    17    1
    21    18    19    1
    22    18    25    1
    23    19    20   ar
    24    19    24   ar
    25    20    21   ar
    26    21    22   ar
    27    22    23   ar
    28    23    24   ar
    29    25    26   ar
    30    25    30   ar
    31    26    27   ar
    32    27    28   ar
    33    28    29   ar
    34    29    30   ar
