@<TRIPOS>MOLECULE
28603_ChemDiv_4435-0149
 26 28 0 0 0
SMALL
GASTEIGER
Energy = 0

@<TRIPOS>ATOM
      1 C          -0.4210    1.5170    0.0000 C.3     1  LIG1        0.0438
      2 C          -1.2880    1.0080    0.0000 C.ar    1  LIG1       -0.0208
      3 C          -2.1460    1.5170    0.0000 C.ar    1  LIG1       -0.0011
      4 C          -3.0210    1.0080    0.0000 C.ar    1  LIG1        0.0366
      5 C          -3.0210    0.0170    0.0000 C.ar    1  LIG1        0.1387
      6 C          -2.1460   -0.4790    0.0000 C.ar    1  LIG1        0.0366
      7 C          -1.2880    0.0170    0.0000 C.ar    1  LIG1       -0.0011
      8 O          -3.8790   -0.5000    0.0000 O.3     1  LIG1       -0.4714
      9 C          -3.8790   -1.4960    0.0000 C.3     1  LIG1        0.2525
     10 C           0.4630    1.0290    0.0000 C.3     1  LIG1        0.1193
     11 N           1.3210    1.5170    0.0000 N.am    1  LIG1       -0.2019
     12 C           2.1710    1.0080    0.0000 C.2     1  LIG1        0.2859
     13 O           3.0040    1.5290    0.0000 O.2     1  LIG1       -0.2693
     14 C           2.1710    0.0000    0.0000 C.3     1  LIG1        0.2911
     15 O           3.0330   -0.5000    0.0000 O.3     1  LIG1       -0.4656
     16 C           3.0330   -1.5130    0.0000 C.ar    1  LIG1        0.1393
     17 C           2.1420   -2.0210    0.0000 C.ar    1  LIG1        0.0369
     18 C           2.1420   -3.0250    0.0000 C.ar    1  LIG1        0.0031
     19 C           3.0210   -3.5210    0.0000 C.ar    1  LIG1        0.0002
     20 C           3.8630   -3.0130    0.0000 C.ar    1  LIG1        0.0031
     21 C           3.8750   -2.0210    0.0000 C.ar    1  LIG1        0.0369
     22 C          -1.2710    2.0130    0.0000 C.3     1  LIG1        0.0379
     23 C          -1.2710    3.0380    0.0000 C.3     1  LIG1        0.1425
     24 O          -0.4210    3.5250    0.0000 O.3     1  LIG1       -0.3538
     25 C           0.4630    3.0380    0.0000 C.3     1  LIG1        0.1425
     26 C           0.4630    2.0330    0.0000 C.3     1  LIG1        0.0379
@<TRIPOS>BOND
     1     1     2    1
     2     1    10    1
     3     1    22    1
     4     1    26    1
     5     2     3   ar
     6     2     7   ar
     7     3     4   ar
     8     4     5   ar
     9     5     6   ar
    10     5     8    1
    11     6     7   ar
    12     8     9    1
    13    10    11    1
    14    11    12   am
    15    12    13    2
    16    12    14    1
    17    14    15    1
    18    15    16    1
    19    16    17   ar
    20    16    21   ar
    21    17    18   ar
    22    18    19   ar
    23    19    20   ar
    24    20    21   ar
    25    22    23    1
    26    23    24    1
    27    24    25    1
    28    25    26    1
