@<TRIPOS>MOLECULE
28613_ChemDiv_8010-2948
 22 25 0 0 0
SMALL
GASTEIGER
Energy = 0

@<TRIPOS>ATOM
      1 C          -0.2460   -0.0290    0.0000 C.ar    1  LIG1        0.0531
      2 C          -1.2170   -0.0290    0.0000 C.ar    1  LIG1        0.0806
      3 N          -1.7330    0.8750    0.0000 N.ar    1  LIG1       -0.2585
      4 C          -1.2080    1.7330    0.0000 C.ar    1  LIG1       -0.0043
      5 N          -0.2290    1.7130    0.0000 N.ar    1  LIG1       -0.2213
      6 C           0.2710    0.8170    0.0000 C.ar    1  LIG1        0.2758
      7 O           1.2790    0.8250    0.0000 O.2     1  LIG1       -0.2655
      8 S          -1.6750    2.6000    0.0000 S.3     1  LIG1       -0.7189
      9 C          -1.7460   -0.8540    0.0000 C.ar    1  LIG1        0.0135
     10 C          -1.2500   -1.7540    0.0000 C.ar    1  LIG1       -0.0204
     11 C          -0.2710   -1.7420    0.0000 C.3     1  LIG1        0.0309
     12 C           0.2500   -0.9080    0.0000 C.3     1  LIG1        0.0329
     13 C           1.2540   -0.9080    0.0000 C.3     1  LIG1        0.0046
     14 C           1.7830   -0.0670    0.0000 C.3     1  LIG1        0.0003
     15 C           2.7580   -0.0580    0.0000 C.3     1  LIG1        0.0000
     16 C           3.2670   -0.9460    0.0000 C.3     1  LIG1        0.0000
     17 C           2.7580   -1.7880    0.0000 C.3     1  LIG1        0.0000
     18 C           1.7460   -1.7960    0.0000 C.3     1  LIG1        0.0003
     19 C          -1.7880   -2.5960    0.0000 C.ar    1  LIG1       -0.0042
     20 C          -2.7790   -2.5920    0.0000 C.ar    1  LIG1       -0.0003
     21 C          -3.2710   -1.7040    0.0000 C.ar    1  LIG1        0.0000
     22 C          -2.7460   -0.8460    0.0000 C.ar    1  LIG1        0.0012
@<TRIPOS>BOND
     1     1     2   ar
     2     1     6   ar
     3     1    12    1
     4     2     3   ar
     5     2     9    1
     6     3     4   ar
     7     4     5   ar
     8     4     8    1
     9     5     6   ar
    10     6     7    2
    11     9    10   ar
    12     9    22   ar
    13    10    11    1
    14    10    19   ar
    15    11    12    1
    16    12    13    1
    17    13    14    1
    18    13    18    1
    19    14    15    1
    20    15    16    1
    21    16    17    1
    22    17    18    1
    23    19    20   ar
    24    20    21   ar
    25    21    22   ar
