@<TRIPOS>MOLECULE
28619_ChemDiv_8006-7160
 18 19 0 0 0
SMALL
GASTEIGER
Energy = 0

@<TRIPOS>ATOM
      1 N           1.7580   -0.4040    0.0000 N.2     1  LIG1       -0.1801
      2 N           2.7630   -0.4290    0.0000 N.am    1  LIG1       -0.1811
      3 C           3.2580    0.4630    0.0000 C.2     1  LIG1        0.2447
      4 C           2.7630    1.3000    0.0000 C.3     1  LIG1        0.0934
      5 C           1.7580    1.3000    0.0000 C.3     1  LIG1        0.0570
      6 C           1.2630    0.4630    0.0000 C.2     1  LIG1        0.0770
      7 C           0.2380    0.4630    0.0000 C.ar    1  LIG1        0.0153
      8 C          -0.2630   -0.4040    0.0000 C.ar    1  LIG1        0.0043
      9 C          -1.2540   -0.4040    0.0000 C.ar    1  LIG1        0.0369
     10 C          -1.7540    0.4630    0.0000 C.ar    1  LIG1        0.1386
     11 C          -1.2540    1.3290    0.0000 C.ar    1  LIG1        0.0369
     12 C          -0.2630    1.3290    0.0000 C.ar    1  LIG1        0.0043
     13 O          -2.7460    0.4630    0.0000 O.3     1  LIG1       -0.4755
     14 C          -3.2460    1.3130    0.0000 C.3     1  LIG1        0.2055
     15 C          -4.2580    1.3290    0.0000 C.3     1  LIG1        0.0512
     16 O           4.2540    0.4880    0.0000 O.2     1  LIG1       -0.2731
     17 C           3.2580   -1.3250    0.0000 C.3     1  LIG1        0.1192
     18 C           4.2540   -1.3250    0.0000 C.3     1  LIG1        0.0255
@<TRIPOS>BOND
     1     1     2    1
     2     1     6    2
     3     2     3   am
     4     2    17    1
     5     3     4    1
     6     3    16    2
     7     4     5    1
     8     5     6    1
     9     6     7    1
    10     7     8   ar
    11     7    12   ar
    12     8     9   ar
    13     9    10   ar
    14    10    11   ar
    15    10    13    1
    16    11    12   ar
    17    13    14    1
    18    14    15    1
    19    17    18    1
