@<TRIPOS>MOLECULE
28617_ChemDiv_2753-0096
 18 19 0 0 0
SMALL
GASTEIGER
Energy = 0

@<TRIPOS>ATOM
      1 N           2.4920   -0.4330    0.0000 N.2     1  LIG1       -0.1605
      2 N           3.4830   -0.4330    0.0000 N.am    1  LIG1       -0.0796
      3 C           3.9830    0.4380    0.0000 C.2     1  LIG1        0.2631
      4 O           4.9920    0.4380    0.0000 O.2     1  LIG1       -0.2715
      5 C           3.4830    1.3000    0.0000 C.3     1  LIG1        0.0950
      6 C           2.4920    1.3000    0.0000 C.3     1  LIG1        0.0571
      7 C           2.0000    0.4380    0.0000 C.2     1  LIG1        0.0787
      8 C           0.9880    0.4380    0.0000 C.ar    1  LIG1        0.0153
      9 C           0.4920    1.3000    0.0000 C.ar    1  LIG1        0.0043
     10 C          -0.5210    1.3000    0.0000 C.ar    1  LIG1        0.0369
     11 C          -1.0210    0.4380    0.0000 C.ar    1  LIG1        0.1386
     12 C          -0.5210   -0.4330    0.0000 C.ar    1  LIG1        0.0369
     13 C           0.4920   -0.4330    0.0000 C.ar    1  LIG1        0.0043
     14 O          -2.0040    0.4380    0.0000 O.3     1  LIG1       -0.4755
     15 C          -2.5040   -0.4330    0.0000 C.3     1  LIG1        0.2054
     16 C          -3.5130   -0.4330    0.0000 C.3     1  LIG1        0.0473
     17 C          -4.0130   -1.2960    0.0000 C.3     1  LIG1        0.0038
     18 C          -4.9960   -1.2960    0.0000 C.3     1  LIG1        0.0001
@<TRIPOS>BOND
     1     1     2    1
     2     1     7    2
     3     2     3   am
     4     3     4    2
     5     3     5    1
     6     5     6    1
     7     6     7    1
     8     7     8    1
     9     8     9   ar
    10     8    13   ar
    11     9    10   ar
    12    10    11   ar
    13    11    12   ar
    14    11    14    1
    15    12    13   ar
    16    14    15    1
    17    15    16    1
    18    16    17    1
    19    17    18    1
