@<TRIPOS>MOLECULE
28615_ChemDiv_8015-4301
 21 23 0 0 0
SMALL
GASTEIGER
Energy = 0

@<TRIPOS>ATOM
      1 C          -0.0210   -0.4750    0.0000 C.ar    1  LIG1        0.0513
      2 C           0.8420   -0.9790    0.0000 C.ar    1  LIG1        0.2597
      3 N           1.7170   -0.4920    0.0000 N.ar    1  LIG1       -0.2753
      4 C           1.7290    0.5170    0.0000 C.ar    1  LIG1        0.1838
      5 N           0.8630    1.0330    0.0000 N.ar    1  LIG1       -0.2220
      6 C          -0.0130    0.5330    0.0000 C.ar    1  LIG1        0.0836
      7 C          -0.8750    1.0330    0.0000 C.ar    1  LIG1        0.0136
      8 C          -1.7460    0.5420    0.0000 C.ar    1  LIG1       -0.0204
      9 C          -1.7580   -0.4540    0.0000 C.3     1  LIG1        0.0306
     10 C          -0.8960   -0.9630    0.0000 C.3     1  LIG1        0.0289
     11 C          -1.6000   -1.6670    0.0000 C.3     1  LIG1        0.0046
     12 C          -1.1130   -2.5250    0.0000 C.3     1  LIG1        0.0003
     13 C          -0.1880   -1.6670    0.0000 C.3     1  LIG1        0.0049
     14 C          -2.6080    1.0330    0.0000 C.ar    1  LIG1       -0.0042
     15 C          -2.6080    2.0330    0.0000 C.ar    1  LIG1       -0.0003
     16 C          -1.7460    2.5290    0.0000 C.ar    1  LIG1        0.0000
     17 C          -0.8830    2.0420    0.0000 C.ar    1  LIG1        0.0012
     18 S           2.6040    1.0170    0.0000 S.2     1  LIG1       -0.0109
     19 C           2.5790   -0.9920    0.0000 C.3     1  LIG1        0.1110
     20 C           2.5670   -1.9920    0.0000 C.3     1  LIG1        0.0266
     21 O           0.8380   -1.9790    0.0000 O.2     1  LIG1       -0.2672
@<TRIPOS>BOND
     1     1     2   ar
     2     1     6   ar
     3     1    10    1
     4     2     3   ar
     5     2    21    2
     6     3     4   ar
     7     3    19    1
     8     4     5   ar
     9     4    18    2
    10     5     6   ar
    11     6     7    1
    12     7     8   ar
    13     7    17   ar
    14     8     9    1
    15     8    14   ar
    16     9    10    1
    17    10    11    1
    18    10    13    1
    19    11    12    1
    20    14    15   ar
    21    15    16   ar
    22    16    17   ar
    23    19    20    1
