@<TRIPOS>MOLECULE
28614_ChemDiv_8017-0575
 24 26 0 0 0
SMALL
GASTEIGER
Energy = 0

@<TRIPOS>ATOM
      1 N          -0.9710    0.2170    0.0000 N.ar    1  LIG1       -0.2690
      2 C          -1.8080    0.7830    0.0000 C.ar    1  LIG1        0.2638
      3 C          -2.7040    0.3420    0.0000 C.ar    1  LIG1        0.0739
      4 C          -2.7790   -0.6420    0.0000 C.ar    1  LIG1        0.0876
      5 N          -1.9540   -1.2000    0.0000 N.ar    1  LIG1       -0.2252
      6 C          -1.0420   -0.7750    0.0000 C.ar    1  LIG1        0.1812
      7 C          -3.6710   -1.0790    0.0000 C.ar    1  LIG1        0.0193
      8 C          -4.5040   -0.5130    0.0000 C.ar    1  LIG1        0.0015
      9 C          -4.4290    0.4790    0.0000 C.ar    1  LIG1        0.0003
     10 C          -3.5290    0.9040    0.0000 C.ar    1  LIG1        0.0063
     11 O          -1.7420    1.7830    0.0000 O.2     1  LIG1       -0.2669
     12 C          -0.0790    0.6540    0.0000 C.3     1  LIG1        0.1975
     13 C           0.7500    0.0920    0.0000 C.2     1  LIG1        0.2688
     14 N           1.6420    0.5290    0.0000 N.am    1  LIG1       -0.1774
     15 C           2.3790   -0.1540    0.0000 C.ar    1  LIG1        0.0779
     16 C           3.3290    0.1580    0.0000 C.ar    1  LIG1        0.0720
     17 C           3.5500    1.1290    0.0000 C.2     1  LIG1        0.2854
     18 O           2.8040    1.8040    0.0000 O.2     1  LIG1       -0.2666
     19 N           4.5000    1.4290    0.0000 N.am    1  LIG1       -0.0837
     20 C           4.0670   -0.5170    0.0000 C.ar    1  LIG1        0.0059
     21 C           3.8540   -1.5000    0.0000 C.ar    1  LIG1        0.0002
     22 C           2.9000   -1.8000    0.0000 C.ar    1  LIG1        0.0013
     23 C           2.1540   -1.1250    0.0000 C.ar    1  LIG1        0.0167
     24 O           0.6790   -0.9000    0.0000 O.2     1  LIG1       -0.2709
@<TRIPOS>BOND
     1     1     2   ar
     2     1     6   ar
     3     1    12    1
     4     2     3   ar
     5     2    11    2
     6     3     4   ar
     7     3    10   ar
     8     4     5   ar
     9     4     7   ar
    10     5     6   ar
    11     7     8   ar
    12     8     9   ar
    13     9    10   ar
    14    12    13    1
    15    13    14   am
    16    13    24    2
    17    14    15    1
    18    15    16   ar
    19    15    23   ar
    20    16    17    1
    21    16    20   ar
    22    17    18    2
    23    17    19   am
    24    20    21   ar
    25    21    22   ar
    26    22    23   ar
