@<TRIPOS>MOLECULE
28612_ChemDiv_3024-0036
 31 33 0 0 0
SMALL
GASTEIGER
Energy = 0

@<TRIPOS>ATOM
      1 N           2.2290   -0.3630    0.0000 N.ar    1  LIG1       -0.2391
      2 C           1.2290   -0.3630    0.0000 C.ar    1  LIG1        0.3346
      3 N           0.7080   -1.2040    0.0000 N.ar    1  LIG1       -0.2701
      4 C           1.2290   -2.0880    0.0000 C.ar    1  LIG1        0.0916
      5 C           2.2290   -2.0880    0.0000 C.ar    1  LIG1        0.1080
      6 C           2.7290   -1.2040    0.0000 C.ar    1  LIG1        0.2723
      7 O           3.7670   -1.2040    0.0000 O.2     1  LIG1       -0.2662
      8 BR          2.7290   -2.9500    0.0000 Br      1  LIG1       -0.0425
      9 C          -0.2920   -1.2420    0.0000 C.3     1  LIG1        0.1975
     10 C          -0.7830   -2.1080    0.0000 C.2     1  LIG1        0.2688
     11 N          -1.7960   -2.1130    0.0000 N.am    1  LIG1       -0.1776
     12 C          -2.2830   -3.0000    0.0000 C.ar    1  LIG1        0.0734
     13 C          -3.2880   -3.0460    0.0000 C.ar    1  LIG1        0.0163
     14 C          -3.7710   -3.9290    0.0000 C.ar    1  LIG1       -0.0029
     15 C          -3.2500   -4.8080    0.0000 C.ar    1  LIG1       -0.0218
     16 C          -2.2250   -4.7460    0.0000 C.ar    1  LIG1       -0.0029
     17 C          -1.7500   -3.8580    0.0000 C.ar    1  LIG1        0.0163
     18 C          -3.7040   -5.6750    0.0000 C.3     1  LIG1        0.0310
     19 O          -0.2580   -2.9250    0.0000 O.2     1  LIG1       -0.2709
     20 O           0.7290    0.5420    0.0000 O.2     1  LIG1       -0.2462
     21 C           2.7290    0.5040    0.0000 C.3     1  LIG1        0.2005
     22 C           2.2460    1.3790    0.0000 C.2     1  LIG1        0.2689
     23 N           2.7460    2.2500    0.0000 N.am    1  LIG1       -0.1776
     24 C           2.2540    3.1040    0.0000 C.ar    1  LIG1        0.0734
     25 C           2.7080    3.9670    0.0000 C.ar    1  LIG1        0.0163
     26 C           2.2460    4.8170    0.0000 C.ar    1  LIG1       -0.0029
     27 C           1.2420    4.8290    0.0000 C.ar    1  LIG1       -0.0218
     28 C           0.7750    3.9580    0.0000 C.ar    1  LIG1       -0.0029
     29 C           1.2670    3.1040    0.0000 C.ar    1  LIG1        0.0163
     30 C           0.7330    5.6750    0.0000 C.3     1  LIG1        0.0310
     31 O           1.2580    1.3580    0.0000 O.2     1  LIG1       -0.2709
@<TRIPOS>BOND
     1     1     2   ar
     2     1     6   ar
     3     1    21    1
     4     2     3   ar
     5     2    20    2
     6     3     4   ar
     7     3     9    1
     8     4     5   ar
     9     5     6   ar
    10     5     8    1
    11     6     7    2
    12     9    10    1
    13    10    11   am
    14    10    19    2
    15    11    12    1
    16    12    13   ar
    17    12    17   ar
    18    13    14   ar
    19    14    15   ar
    20    15    16   ar
    21    15    18    1
    22    16    17   ar
    23    21    22    1
    24    22    23   am
    25    22    31    2
    26    23    24    1
    27    24    25   ar
    28    24    29   ar
    29    25    26   ar
    30    26    27   ar
    31    27    28   ar
    32    27    30    1
    33    28    29   ar
