@<TRIPOS>MOLECULE
28610_ChemDiv_8013-0920
 26 30 0 0 0
SMALL
GASTEIGER
Energy = 0

@<TRIPOS>ATOM
      1 C          -0.4330   -1.1710    0.0000 C.ar    1  LIG1        0.1656
      2 C          -0.4330   -0.1960    0.0000 C.ar    1  LIG1        0.1383
      3 C          -2.0920   -0.1960    0.0000 C.ar    1  LIG1        0.0387
      4 C          -2.0920   -1.1500    0.0000 C.ar    1  LIG1        0.0627
      5 N          -1.2580   -1.6040    0.0000 N.ar    1  LIG1       -0.3094
      6 C          -1.2580   -2.5920    0.0000 C.3     1  LIG1        0.1319
      7 C          -2.8670   -1.6330    0.0000 C.ar    1  LIG1        0.0178
      8 C          -3.6920   -1.1920    0.0000 C.ar    1  LIG1        0.0082
      9 C          -3.6920   -0.3040    0.0000 C.ar    1  LIG1        0.0347
     10 C          -2.9080    0.2000    0.0000 C.ar    1  LIG1        0.0098
     11 BR         -4.5920    0.1290    0.0000 Br      1  LIG1       -0.0490
     12 N           0.3960    0.3130    0.0000 N.ar    1  LIG1       -0.1429
     13 N           1.2830   -0.1960    0.0000 N.ar    1  LIG1       -0.1217
     14 C           1.2830   -1.1710    0.0000 C.ar    1  LIG1        0.2121
     15 N           0.4170   -1.6670    0.0000 N.ar    1  LIG1       -0.2008
     16 S           2.1380   -1.6750    0.0000 S.3     1  LIG1       -0.0692
     17 C           2.9540   -1.1920    0.0000 C.3     1  LIG1        0.0914
     18 C           2.9540   -0.2420    0.0000 C.ar    1  LIG1       -0.0092
     19 C           3.7790    0.2210    0.0000 C.ar    1  LIG1        0.0207
     20 C           3.7790    1.1540    0.0000 C.ar    1  LIG1        0.1429
     21 C           2.9460    1.6380    0.0000 C.ar    1  LIG1        0.1431
     22 N           2.9460    2.5960    0.0000 N.ar    1  LIG1       -0.0483
     23 O           4.5880    2.5960    0.0000 O.2     1  LIG1       -0.2415
     24 N           4.5880    1.6380    0.0000 N.ar    1  LIG1       -0.0483
     25 C           2.1580    1.1420    0.0000 C.ar    1  LIG1        0.0238
     26 C           2.1580    0.2130    0.0000 C.ar    1  LIG1       -0.0016
@<TRIPOS>BOND
     1     1     2   ar
     2     1     5   ar
     3     1    15   ar
     4     2     3   ar
     5     2    12   ar
     6     3     4   ar
     7     3    10   ar
     8     4     5   ar
     9     4     7   ar
    10     5     6    1
    11     7     8   ar
    12     8     9   ar
    13     9    10   ar
    14     9    11    1
    15    12    13   ar
    16    13    14   ar
    17    14    15   ar
    18    14    16    1
    19    16    17    1
    20    17    18    1
    21    18    19   ar
    22    18    26   ar
    23    19    20   ar
    24    20    21   ar
    25    20    24   ar
    26    21    22   ar
    27    21    25   ar
    28    22    23   ar
    29    23    24   ar
    30    25    26   ar
