@<TRIPOS>MOLECULE
28611_ChemDiv_8009-2416
 28 32 0 0 0
SMALL
GASTEIGER
Energy = 0

@<TRIPOS>ATOM
      1 N           0.8580   -0.2290    0.0000 N.ar    1  LIG1       -0.2770
      2 C           0.0130   -0.7210    0.0000 C.ar    1  LIG1        0.2596
      3 C          -0.8830   -0.2290    0.0000 C.ar    1  LIG1        0.0513
      4 C          -0.8830    0.7880    0.0000 C.ar    1  LIG1        0.0836
      5 N           0.0130    1.2710    0.0000 N.ar    1  LIG1       -0.2220
      6 C           0.8580    0.7880    0.0000 C.ar    1  LIG1        0.1837
      7 S           1.7630    1.2710    0.0000 S.2     1  LIG1       -0.0109
      8 C          -1.7250    1.2710    0.0000 C.ar    1  LIG1        0.0136
      9 C          -2.5920    0.7880    0.0000 C.ar    1  LIG1       -0.0204
     10 C          -2.5920   -0.2290    0.0000 C.3     1  LIG1        0.0306
     11 C          -1.7250   -0.7210    0.0000 C.3     1  LIG1        0.0289
     12 C          -2.5920   -1.1920    0.0000 C.3     1  LIG1        0.0046
     13 C          -2.4330   -2.1670    0.0000 C.3     1  LIG1        0.0003
     14 C          -1.4630   -2.3170    0.0000 C.3     1  LIG1        0.0003
     15 C          -1.0170   -1.4210    0.0000 C.3     1  LIG1        0.0046
     16 C          -3.4750    1.2710    0.0000 C.ar    1  LIG1       -0.0042
     17 C          -3.4750    2.2670    0.0000 C.ar    1  LIG1       -0.0003
     18 C          -2.5750    2.7830    0.0000 C.ar    1  LIG1        0.0000
     19 C          -1.7250    2.2670    0.0000 C.ar    1  LIG1        0.0012
     20 O           0.0130   -1.7330    0.0000 O.2     1  LIG1       -0.2672
     21 C           1.7250   -0.7210    0.0000 C.3     1  LIG1        0.0951
     22 C           1.7250   -1.7330    0.0000 C.3     1  LIG1        0.0500
     23 C           2.5710   -2.2460    0.0000 C.3     1  LIG1        0.0947
     24 O           3.4710   -1.7540    0.0000 O.3     1  LIG1       -0.3584
     25 C           3.4710   -0.7460    0.0000 C.3     1  LIG1        0.1439
     26 C           2.5960   -0.2380    0.0000 C.3     1  LIG1        0.0548
     27 C           1.6710   -2.7130    0.0000 C.3     1  LIG1        0.0297
     28 C           3.3500   -2.7790    0.0000 C.3     1  LIG1        0.0297
@<TRIPOS>BOND
     1     1     2   ar
     2     1     6   ar
     3     1    21    1
     4     2     3   ar
     5     2    20    2
     6     3     4   ar
     7     3    11    1
     8     4     5   ar
     9     4     8    1
    10     5     6   ar
    11     6     7    2
    12     8     9   ar
    13     8    19   ar
    14     9    10    1
    15     9    16   ar
    16    10    11    1
    17    11    12    1
    18    11    15    1
    19    12    13    1
    20    13    14    1
    21    14    15    1
    22    16    17   ar
    23    17    18   ar
    24    18    19   ar
    25    21    22    1
    26    21    26    1
    27    22    23    1
    28    23    24    1
    29    23    27    1
    30    23    28    1
    31    24    25    1
    32    25    26    1
