@<TRIPOS>MOLECULE
28627_ChemDiv_6136-0032
 23 24 0 0 0
SMALL
GASTEIGER
Energy = 0

@<TRIPOS>ATOM
      1 C          -0.5380   -0.4210    0.0000 C.3     1  LIG1        0.0940
      2 C           0.3710   -0.9500    0.0000 C.2     1  LIG1        0.2444
      3 O           0.3710   -1.9790    0.0000 O.2     1  LIG1       -0.2730
      4 N           1.2830   -0.4210    0.0000 N.am    1  LIG1       -0.2050
      5 C           2.3130   -0.4210    0.0000 C.3     1  LIG1        0.1213
      6 C           3.0290    0.3000    0.0000 C.3     1  LIG1        0.0861
      7 C           4.0290    0.3000    0.0000 C.3     1  LIG1        0.1410
      8 N           4.2880    1.2790    0.0000 N.4     1  LIG1        0.3867
      9 C           5.2670    1.5380    0.0000 C.3     1  LIG1        0.2025
     10 C           3.5750    1.9830    0.0000 C.3     1  LIG1        0.2025
     11 C          -1.5540   -0.7040    0.0000 C.ar    1  LIG1       -0.0142
     12 C          -2.0880    0.2210    0.0000 C.ar    1  LIG1       -0.0007
     13 C          -3.1380    0.2330    0.0000 C.ar    1  LIG1        0.0366
     14 C          -3.6830   -0.6790    0.0000 C.ar    1  LIG1        0.1387
     15 C          -3.1630   -1.6040    0.0000 C.ar    1  LIG1        0.0366
     16 C          -2.1000   -1.6130    0.0000 C.ar    1  LIG1       -0.0007
     17 O          -4.7460   -0.6630    0.0000 O.3     1  LIG1       -0.4714
     18 C          -5.2710    0.2630    0.0000 C.3     1  LIG1        0.2525
     19 C           0.2210    0.0040    0.0000 C.3     1  LIG1        0.0449
     20 C           0.2210    0.8830    0.0000 C.3     1  LIG1        0.1430
     21 O          -0.5380    1.3290    0.0000 O.3     1  LIG1       -0.3537
     22 C          -1.2880    0.8830    0.0000 C.3     1  LIG1        0.1430
     23 C          -1.2880    0.0040    0.0000 C.3     1  LIG1        0.0449
@<TRIPOS>BOND
     1     1     2    1
     2     1    11    1
     3     1    19    1
     4     1    23    1
     5     2     3    2
     6     2     4   am
     7     4     5    1
     8     5     6    1
     9     6     7    1
    10     7     8    1
    11     8     9    1
    12     8    10    1
    13    11    12   ar
    14    11    16   ar
    15    12    13   ar
    16    13    14   ar
    17    14    15   ar
    18    14    17    1
    19    15    16   ar
    20    17    18    1
    21    19    20    1
    22    20    21    1
    23    21    22    1
    24    22    23    1
