@<TRIPOS>MOLECULE
28623_ChemDiv_K783-4999
 15 16 0 0 0
SMALL
GASTEIGER
Energy = 0

@<TRIPOS>ATOM
      1 N           0.8670   -1.2460    0.0000 N.2     1  LIG1       -0.1605
      2 N           0.8630   -2.2500    0.0000 N.am    1  LIG1       -0.0796
      3 C          -0.0080   -2.7460    0.0000 C.2     1  LIG1        0.2631
      4 O          -0.0080   -3.7460    0.0000 O.2     1  LIG1       -0.2715
      5 C          -0.8710   -2.2380    0.0000 C.3     1  LIG1        0.0950
      6 C          -0.8710   -1.2460    0.0000 C.3     1  LIG1        0.0571
      7 C           0.0000   -0.7460    0.0000 C.2     1  LIG1        0.0787
      8 C           0.0000    0.2500    0.0000 C.ar    1  LIG1        0.0153
      9 C          -0.8630    0.7500    0.0000 C.ar    1  LIG1        0.0043
     10 C          -0.8630    1.7500    0.0000 C.ar    1  LIG1        0.0369
     11 C           0.0000    2.2580    0.0000 C.ar    1  LIG1        0.1387
     12 C           0.8670    1.7630    0.0000 C.ar    1  LIG1        0.0369
     13 C           0.8670    0.7500    0.0000 C.ar    1  LIG1        0.0043
     14 O           0.0000    3.2500    0.0000 O.3     1  LIG1       -0.4714
     15 C          -0.8630    3.7500    0.0000 C.3     1  LIG1        0.2525
@<TRIPOS>BOND
     1     1     2    1
     2     1     7    2
     3     2     3   am
     4     3     4    2
     5     3     5    1
     6     5     6    1
     7     6     7    1
     8     7     8    1
     9     8     9   ar
    10     8    13   ar
    11     9    10   ar
    12    10    11   ar
    13    11    12   ar
    14    11    14    1
    15    12    13   ar
    16    14    15    1
