@<TRIPOS>MOLECULE
28629_ChemDiv_6190-0846
 17 18 0 0 0
SMALL
GASTEIGER
Energy = 0

@<TRIPOS>ATOM
      1 C          -1.4420   -0.1540    0.0000 C.3     1  LIG1        0.0956
      2 C          -2.1290   -0.8670    0.0000 C.2     1  LIG1        0.2637
      3 O          -1.8830   -1.8040    0.0000 O.2     1  LIG1       -0.2713
      4 N          -3.0920   -0.6210    0.0000 N.am    1  LIG1       -0.0875
      5 C          -0.4960   -0.4790    0.0000 C.ar    1  LIG1       -0.0142
      6 C           0.2540    0.1790    0.0000 C.ar    1  LIG1       -0.0007
      7 C           1.1920   -0.1710    0.0000 C.ar    1  LIG1        0.0366
      8 C           1.3830   -1.1580    0.0000 C.ar    1  LIG1        0.1387
      9 C           0.6000   -1.7830    0.0000 C.ar    1  LIG1        0.0366
     10 C          -0.3500   -1.4460    0.0000 C.ar    1  LIG1       -0.0007
     11 O           2.3250   -1.5000    0.0000 O.3     1  LIG1       -0.4714
     12 C           3.0880   -0.8500    0.0000 C.3     1  LIG1        0.2525
     13 C          -0.7500    0.5210    0.0000 C.3     1  LIG1        0.0450
     14 C          -1.0210    1.5210    0.0000 C.3     1  LIG1        0.1430
     15 O          -1.9540    1.8080    0.0000 O.3     1  LIG1       -0.3537
     16 C          -2.6920    1.0790    0.0000 C.3     1  LIG1        0.1430
     17 C          -2.4500    0.1210    0.0000 C.3     1  LIG1        0.0450
@<TRIPOS>BOND
     1     1     2    1
     2     1     5    1
     3     1    13    1
     4     1    17    1
     5     2     3    2
     6     2     4   am
     7     5     6   ar
     8     5    10   ar
     9     6     7   ar
    10     7     8   ar
    11     8     9   ar
    12     8    11    1
    13     9    10   ar
    14    11    12    1
    15    13    14    1
    16    14    15    1
    17    15    16    1
    18    16    17    1
