@<TRIPOS>MOLECULE
28621_ChemDiv_8017-0651
 23 25 0 0 0
SMALL
GASTEIGER
Energy = 0

@<TRIPOS>ATOM
      1 N          -0.4290   -1.7420    0.0000 N.2     1  LIG1       -0.1605
      2 N           0.4290   -2.2380    0.0000 N.am    1  LIG1       -0.0793
      3 C           1.2920   -1.7420    0.0000 C.2     1  LIG1        0.2667
      4 C           1.2920   -0.7420    0.0000 C.3     1  LIG1        0.1082
      5 C           0.4290   -0.2290    0.0000 C.3     1  LIG1        0.0610
      6 C          -0.4290   -0.7420    0.0000 C.2     1  LIG1        0.0790
      7 C          -1.2960   -0.2420    0.0000 C.ar    1  LIG1        0.0153
      8 C          -1.2960    0.7580    0.0000 C.ar    1  LIG1        0.0043
      9 C          -2.1670    1.2580    0.0000 C.ar    1  LIG1        0.0369
     10 C          -3.0330    0.7580    0.0000 C.ar    1  LIG1        0.1387
     11 C          -3.0290   -0.2540    0.0000 C.ar    1  LIG1        0.0369
     12 C          -2.1580   -0.7420    0.0000 C.ar    1  LIG1        0.0043
     13 O          -3.8960    1.2500    0.0000 O.3     1  LIG1       -0.4714
     14 C          -4.7670    0.7460    0.0000 C.3     1  LIG1        0.2525
     15 C           2.1540   -0.2420    0.0000 C.ar    1  LIG1       -0.0132
     16 C           3.0250   -0.7500    0.0000 C.ar    1  LIG1       -0.0007
     17 C           3.8920   -0.2540    0.0000 C.ar    1  LIG1        0.0366
     18 C           3.8920    0.7500    0.0000 C.ar    1  LIG1        0.1387
     19 C           3.0250    1.2580    0.0000 C.ar    1  LIG1        0.0366
     20 C           2.1540    0.7580    0.0000 C.ar    1  LIG1       -0.0007
     21 O           4.7540    1.2460    0.0000 O.3     1  LIG1       -0.4714
     22 C           4.7630    2.2460    0.0000 C.3     1  LIG1        0.2525
     23 O           2.1540   -2.2420    0.0000 O.2     1  LIG1       -0.2711
@<TRIPOS>BOND
     1     1     2    1
     2     1     6    2
     3     2     3   am
     4     3     4    1
     5     3    23    2
     6     4     5    1
     7     4    15    1
     8     5     6    1
     9     6     7    1
    10     7     8   ar
    11     7    12   ar
    12     8     9   ar
    13     9    10   ar
    14    10    11   ar
    15    10    13    1
    16    11    12   ar
    17    13    14    1
    18    15    16   ar
    19    15    20   ar
    20    16    17   ar
    21    17    18   ar
    22    18    19   ar
    23    18    21    1
    24    19    20   ar
    25    21    22    1
