@<TRIPOS>MOLECULE
28625_ChemDiv_5914-0571
 32 35 0 0 0
SMALL
GASTEIGER
Energy = 0

@<TRIPOS>ATOM
      1 C          -1.8330    0.2830    0.0000 C.ar    1  LIG1        0.0209
      2 C          -0.9130    0.7710    0.0000 C.3     1  LIG1        0.0568
      3 C          -0.0750    0.2830    0.0000 C.3     1  LIG1        0.0956
      4 C           0.7670    0.7710    0.0000 C.2     1  LIG1        0.2420
      5 N           1.6830    0.2830    0.0000 N.am    1  LIG1       -0.2051
      6 C           1.6830   -0.7750    0.0000 C.3     1  LIG1        0.1192
      7 C           2.4580   -1.2630    0.0000 C.3     1  LIG1        0.0438
      8 C           1.8250   -2.0380    0.0000 C.ar    1  LIG1       -0.0210
      9 C           0.8380   -1.8250    0.0000 C.ar    1  LIG1       -0.0042
     10 C           0.1380   -2.5960    0.0000 C.ar    1  LIG1       -0.0003
     11 C           0.4920   -3.5130    0.0000 C.ar    1  LIG1       -0.0000
     12 C           1.4670   -3.7210    0.0000 C.ar    1  LIG1       -0.0003
     13 C           2.1040   -2.9540    0.0000 C.ar    1  LIG1       -0.0042
     14 C           2.8040   -0.3500    0.0000 C.3     1  LIG1        0.0379
     15 C           3.7960   -0.2080    0.0000 C.3     1  LIG1        0.1425
     16 O           4.4250   -0.9790    0.0000 O.3     1  LIG1       -0.3538
     17 C           4.0710   -1.8960    0.0000 C.3     1  LIG1        0.1425
     18 C           3.0880   -2.0380    0.0000 C.3     1  LIG1        0.0379
     19 O           0.7670    1.7580    0.0000 O.2     1  LIG1       -0.2733
     20 C          -0.9130    1.7580    0.0000 C.ar    1  LIG1       -0.0178
     21 C          -1.8330    2.2460    0.0000 C.ar    1  LIG1       -0.0039
     22 C          -1.8330    3.2380    0.0000 C.ar    1  LIG1       -0.0003
     23 C          -0.9130    3.7250    0.0000 C.ar    1  LIG1       -0.0000
     24 C          -0.0750    3.2380    0.0000 C.ar    1  LIG1       -0.0003
     25 C          -0.0750    2.2460    0.0000 C.ar    1  LIG1       -0.0039
     26 C          -1.8330   -0.7750    0.0000 C.ar    1  LIG1        0.1917
     27 C          -2.6750   -1.2630    0.0000 C.ar    1  LIG1        0.0375
     28 C          -3.5210   -0.7750    0.0000 C.ar    1  LIG1       -0.0187
     29 C          -3.5210    0.2830    0.0000 C.ar    1  LIG1       -0.0044
     30 C          -2.6750    0.7710    0.0000 C.ar    1  LIG1       -0.0011
     31 C          -4.4290   -1.2630    0.0000 C.3     1  LIG1        0.0311
     32 O          -0.9130   -1.2630    0.0000 O.3     1  LIG1       -0.2869
@<TRIPOS>BOND
     1     1     2    1
     2     1    26   ar
     3     1    30   ar
     4     2     3    1
     5     2    20    1
     6     3     4    1
     7     4     5   am
     8     4    19    2
     9     5     6    1
    10     6     7    1
    11     7     8    1
    12     7    14    1
    13     7    18    1
    14     8     9   ar
    15     8    13   ar
    16     9    10   ar
    17    10    11   ar
    18    11    12   ar
    19    12    13   ar
    20    14    15    1
    21    15    16    1
    22    16    17    1
    23    17    18    1
    24    20    21   ar
    25    20    25   ar
    26    21    22   ar
    27    22    23   ar
    28    23    24   ar
    29    24    25   ar
    30    26    27   ar
    31    26    32    1
    32    27    28   ar
    33    28    29   ar
    34    28    31    1
    35    29    30   ar
