@<TRIPOS>MOLECULE
28633_ChemDiv_6504-0261
 22 24 0 0 0
SMALL
GASTEIGER
Energy = 0

@<TRIPOS>ATOM
      1 C           1.2960   -0.4960    0.0000 C.2     1  LIG1        0.2288
      2 C           0.4250    0.0040    0.0000 C.3     1  LIG1        0.0926
      3 C          -0.4380   -0.4960    0.0000 C.ar    1  LIG1       -0.0143
      4 C          -0.4380   -1.4960    0.0000 C.ar    1  LIG1       -0.0007
      5 C          -1.3040   -2.0000    0.0000 C.ar    1  LIG1        0.0366
      6 C          -2.1750   -1.4960    0.0000 C.ar    1  LIG1        0.1387
      7 C          -2.1750   -0.4960    0.0000 C.ar    1  LIG1        0.0366
      8 C          -1.3040    0.0040    0.0000 C.ar    1  LIG1       -0.0007
      9 O          -3.0380   -1.9960    0.0000 O.3     1  LIG1       -0.4714
     10 C          -3.9000   -1.4960    0.0000 C.3     1  LIG1        0.2525
     11 C          -0.4420    0.5040    0.0000 C.3     1  LIG1        0.0448
     12 C          -0.4420    1.5040    0.0000 C.3     1  LIG1        0.1430
     13 O           0.4250    2.0040    0.0000 O.3     1  LIG1       -0.3537
     14 C           1.2960    1.5040    0.0000 C.3     1  LIG1        0.1430
     15 C           1.2960    0.5040    0.0000 C.3     1  LIG1        0.0448
     16 N           2.1580    0.0000    0.0000 N.am    1  LIG1       -0.2741
     17 C           3.0250   -0.4960    0.0000 C.3     1  LIG1        0.1255
     18 C           3.8960    0.0000    0.0000 C.3     1  LIG1        0.1636
     19 O           3.8960    1.0000    0.0000 O.3     1  LIG1       -0.3501
     20 C           3.0250    1.4960    0.0000 C.3     1  LIG1        0.1636
     21 C           2.1580    1.0000    0.0000 C.3     1  LIG1        0.1255
     22 O           1.2960   -1.4920    0.0000 O.2     1  LIG1       -0.2745
@<TRIPOS>BOND
     1     1     2    1
     2     1    16   am
     3     1    22    2
     4     2     3    1
     5     2    11    1
     6     2    15    1
     7     3     4   ar
     8     3     8   ar
     9     4     5   ar
    10     5     6   ar
    11     6     7   ar
    12     6     9    1
    13     7     8   ar
    14     9    10    1
    15    11    12    1
    16    12    13    1
    17    13    14    1
    18    14    15    1
    19    16    17    1
    20    16    21    1
    21    17    18    1
    22    18    19    1
    23    19    20    1
    24    20    21    1
