@<TRIPOS>MOLECULE
28631_ChemDiv_6504-0260
 21 23 0 0 0
SMALL
GASTEIGER
Energy = 0

@<TRIPOS>ATOM
      1 C           1.3670   -0.4960    0.0000 C.2     1  LIG1        0.2287
      2 C           0.5000    0.0040    0.0000 C.3     1  LIG1        0.0926
      3 C          -0.3630   -0.4960    0.0000 C.ar    1  LIG1       -0.0143
      4 C          -1.2330    0.0040    0.0000 C.ar    1  LIG1       -0.0007
      5 C          -2.1000   -0.4960    0.0000 C.ar    1  LIG1        0.0366
      6 C          -2.1000   -1.5000    0.0000 C.ar    1  LIG1        0.1387
      7 C          -1.2330   -2.0000    0.0000 C.ar    1  LIG1        0.0366
      8 C          -0.3630   -1.5000    0.0000 C.ar    1  LIG1       -0.0007
      9 O          -2.9670   -1.9960    0.0000 O.3     1  LIG1       -0.4714
     10 C          -3.8250   -1.5000    0.0000 C.3     1  LIG1        0.2525
     11 C           1.3670    0.5040    0.0000 C.3     1  LIG1        0.0448
     12 C           1.3670    1.5040    0.0000 C.3     1  LIG1        0.1430
     13 O           0.5000    2.0040    0.0000 O.3     1  LIG1       -0.3537
     14 C          -0.3670    1.5040    0.0000 C.3     1  LIG1        0.1430
     15 C          -0.3670    0.5040    0.0000 C.3     1  LIG1        0.0448
     16 N           2.2330   -0.0040    0.0000 N.am    1  LIG1       -0.2793
     17 C           2.3420    0.9960    0.0000 C.3     1  LIG1        0.0935
     18 C           3.3210    1.2000    0.0000 C.3     1  LIG1        0.0233
     19 C           3.8210    0.3380    0.0000 C.3     1  LIG1        0.0233
     20 C           3.1500   -0.4000    0.0000 C.3     1  LIG1        0.0935
     21 O           1.3670   -1.4960    0.0000 O.2     1  LIG1       -0.2745
@<TRIPOS>BOND
     1     1     2    1
     2     1    16   am
     3     1    21    2
     4     2     3    1
     5     2    11    1
     6     2    15    1
     7     3     4   ar
     8     3     8   ar
     9     4     5   ar
    10     5     6   ar
    11     6     7   ar
    12     6     9    1
    13     7     8   ar
    14     9    10    1
    15    11    12    1
    16    12    13    1
    17    13    14    1
    18    14    15    1
    19    16    17    1
    20    16    20    1
    21    17    18    1
    22    18    19    1
    23    19    20    1
