@<TRIPOS>MOLECULE
28635_ChemDiv_6504-0262
 29 31 0 0 0
SMALL
GASTEIGER
Energy = 0

@<TRIPOS>ATOM
      1 C          -1.7420    0.0080    0.0000 C.3     1  LIG1        0.0940
      2 C          -0.8710   -0.4920    0.0000 C.2     1  LIG1        0.2444
      3 O          -0.8710   -1.4880    0.0000 O.2     1  LIG1       -0.2730
      4 N          -0.0080    0.0080    0.0000 N.am    1  LIG1       -0.2048
      5 C           0.8580   -0.4960    0.0000 C.3     1  LIG1        0.1198
      6 C           1.7250    0.0080    0.0000 C.3     1  LIG1        0.0499
      7 C           2.5920   -0.4960    0.0000 C.ar    1  LIG1       -0.0172
      8 C           3.4540    0.0080    0.0000 C.ar    1  LIG1        0.0358
      9 C           4.3250   -0.4960    0.0000 C.ar    1  LIG1        0.1721
     10 C           4.3250   -1.4960    0.0000 C.ar    1  LIG1        0.1724
     11 C           3.4540   -1.9960    0.0000 C.ar    1  LIG1        0.0397
     12 C           2.5920   -1.4960    0.0000 C.ar    1  LIG1       -0.0009
     13 O           5.1880   -1.9920    0.0000 O.3     1  LIG1       -0.4684
     14 C           6.0540   -1.4960    0.0000 C.3     1  LIG1        0.2526
     15 O           5.1880    0.0080    0.0000 O.3     1  LIG1       -0.4684
     16 C           6.0540   -0.4960    0.0000 C.3     1  LIG1        0.2526
     17 C          -2.6000   -0.4830    0.0000 C.ar    1  LIG1       -0.0142
     18 C          -2.6000   -1.4880    0.0000 C.ar    1  LIG1       -0.0007
     19 C          -3.4750   -1.9920    0.0000 C.ar    1  LIG1        0.0366
     20 C          -4.3380   -1.4880    0.0000 C.ar    1  LIG1        0.1387
     21 C          -4.3380   -0.4830    0.0000 C.ar    1  LIG1        0.0366
     22 C          -3.4750    0.0170    0.0000 C.ar    1  LIG1       -0.0007
     23 O          -5.2040   -1.9920    0.0000 O.3     1  LIG1       -0.4714
     24 C          -6.0540   -1.4880    0.0000 C.3     1  LIG1        0.2525
     25 C          -2.6040    0.5130    0.0000 C.3     1  LIG1        0.0449
     26 C          -2.6040    1.5040    0.0000 C.3     1  LIG1        0.1430
     27 O          -1.7420    2.0000    0.0000 O.3     1  LIG1       -0.3537
     28 C          -0.8710    1.5040    0.0000 C.3     1  LIG1        0.1430
     29 C          -0.8710    0.5130    0.0000 C.3     1  LIG1        0.0449
@<TRIPOS>BOND
     1     1     2    1
     2     1    17    1
     3     1    25    1
     4     1    29    1
     5     2     3    2
     6     2     4   am
     7     4     5    1
     8     5     6    1
     9     6     7    1
    10     7     8   ar
    11     7    12   ar
    12     8     9   ar
    13     9    10   ar
    14     9    15    1
    15    10    11   ar
    16    10    13    1
    17    11    12   ar
    18    13    14    1
    19    15    16    1
    20    17    18   ar
    21    17    22   ar
    22    18    19   ar
    23    19    20   ar
    24    20    21   ar
    25    20    23    1
    26    21    22   ar
    27    23    24    1
    28    25    26    1
    29    26    27    1
    30    27    28    1
    31    28    29    1
