@<TRIPOS>MOLECULE
28639_ChemDiv_6703-0802
 21 22 0 0 0
SMALL
GASTEIGER
Energy = 0

@<TRIPOS>ATOM
      1 C          -0.2960    0.0080    0.0000 C.3     1  LIG1        0.0940
      2 C           0.6000   -0.5000    0.0000 C.2     1  LIG1        0.2444
      3 O           0.6000   -1.5170    0.0000 O.2     1  LIG1       -0.2730
      4 N           1.4380   -0.0710    0.0000 N.am    1  LIG1       -0.2052
      5 C           2.2170   -0.5830    0.0000 C.3     1  LIG1        0.1152
      6 C           3.0540   -0.1580    0.0000 C.3     1  LIG1        0.0234
      7 C           3.8420   -0.6710    0.0000 C.3     1  LIG1        0.0018
      8 C           4.6880   -0.2420    0.0000 C.3     1  LIG1        0.0001
      9 C          -1.1750   -0.5040    0.0000 C.ar    1  LIG1       -0.0142
     10 C          -2.0500    0.0080    0.0000 C.ar    1  LIG1       -0.0007
     11 C          -2.9290   -0.5170    0.0000 C.ar    1  LIG1        0.0366
     12 C          -2.9290   -1.5330    0.0000 C.ar    1  LIG1        0.1387
     13 C          -2.0500   -2.0380    0.0000 C.ar    1  LIG1        0.0366
     14 C          -1.1750   -1.5330    0.0000 C.ar    1  LIG1       -0.0007
     15 O          -3.8210   -2.0380    0.0000 O.3     1  LIG1       -0.4714
     16 C          -4.6880   -1.5330    0.0000 C.3     1  LIG1        0.2525
     17 C          -1.1750    0.5130    0.0000 C.3     1  LIG1        0.0449
     18 C          -1.1750    1.5290    0.0000 C.3     1  LIG1        0.1430
     19 O          -0.2960    2.0420    0.0000 O.3     1  LIG1       -0.3537
     20 C           0.5880    1.5290    0.0000 C.3     1  LIG1        0.1430
     21 C           0.5880    0.5130    0.0000 C.3     1  LIG1        0.0449
@<TRIPOS>BOND
     1     1     2    1
     2     1     9    1
     3     1    17    1
     4     1    21    1
     5     2     3    2
     6     2     4   am
     7     4     5    1
     8     5     6    1
     9     6     7    1
    10     7     8    1
    11     9    10   ar
    12     9    14   ar
    13    10    11   ar
    14    11    12   ar
    15    12    13   ar
    16    12    15    1
    17    13    14   ar
    18    15    16    1
    19    17    18    1
    20    18    19    1
    21    19    20    1
    22    20    21    1
