@<TRIPOS>MOLECULE
28659_ChemDiv_8015-4911
 27 29 0 0 0
SMALL
GASTEIGER
Energy = 0

@<TRIPOS>ATOM
      1 C          -0.2250   -0.7420    0.0000 C.2     1  LIG1        0.2443
      2 C          -1.1210   -0.2210    0.0000 C.3     1  LIG1        0.0940
      3 C          -2.1420   -0.5040    0.0000 C.ar    1  LIG1       -0.0142
      4 C          -2.6580    0.4080    0.0000 C.ar    1  LIG1       -0.0007
      5 C          -3.7040    0.4170    0.0000 C.ar    1  LIG1        0.0366
      6 C          -4.2420   -0.4790    0.0000 C.ar    1  LIG1        0.1387
      7 C          -3.7210   -1.4040    0.0000 C.ar    1  LIG1        0.0366
      8 C          -2.6790   -1.4130    0.0000 C.ar    1  LIG1       -0.0007
      9 O          -5.2920   -0.4750    0.0000 O.3     1  LIG1       -0.4714
     10 C          -5.8080    0.4420    0.0000 C.3     1  LIG1        0.2525
     11 C          -1.8710    0.2040    0.0000 C.3     1  LIG1        0.0449
     12 C          -1.8710    1.0710    0.0000 C.3     1  LIG1        0.1430
     13 O          -1.1210    1.5170    0.0000 O.3     1  LIG1       -0.3537
     14 C          -0.3670    1.0710    0.0000 C.3     1  LIG1        0.1430
     15 C          -0.3670    0.2040    0.0000 C.3     1  LIG1        0.0449
     16 N           0.6880   -0.2210    0.0000 N.am    1  LIG1       -0.2069
     17 C           1.7380   -0.2210    0.0000 C.3     1  LIG1        0.0957
     18 C           2.4790    0.5290    0.0000 C.3     1  LIG1        0.0263
     19 C           3.2170   -0.2170    0.0000 C.3     1  LIG1        0.0281
     20 C           4.0790    0.2920    0.0000 C.ar    1  LIG1       -0.0221
     21 C           4.9420   -0.2040    0.0000 C.ar    1  LIG1       -0.0043
     22 C           5.8040    0.3000    0.0000 C.ar    1  LIG1       -0.0003
     23 C           5.8000    1.2920    0.0000 C.ar    1  LIG1       -0.0000
     24 C           4.9170    1.7920    0.0000 C.ar    1  LIG1       -0.0003
     25 C           4.0670    1.2790    0.0000 C.ar    1  LIG1       -0.0043
     26 C           2.1330   -1.1790    0.0000 C.3     1  LIG1        0.0234
     27 O          -0.2210   -1.7880    0.0000 O.2     1  LIG1       -0.2730
@<TRIPOS>BOND
     1     1     2    1
     2     1    16   am
     3     1    27    2
     4     2     3    1
     5     2    11    1
     6     2    15    1
     7     3     4   ar
     8     3     8   ar
     9     4     5   ar
    10     5     6   ar
    11     6     7   ar
    12     6     9    1
    13     7     8   ar
    14     9    10    1
    15    11    12    1
    16    12    13    1
    17    13    14    1
    18    14    15    1
    19    16    17    1
    20    17    18    1
    21    17    26    1
    22    18    19    1
    23    19    20    1
    24    20    21   ar
    25    20    25   ar
    26    21    22   ar
    27    22    23   ar
    28    23    24   ar
    29    24    25   ar
