@<TRIPOS>MOLECULE
28657_ChemDiv_8015-4887
 25 27 0 0 0
SMALL
GASTEIGER
Energy = 0

@<TRIPOS>ATOM
      1 C           0.4920    1.6080    0.0000 C.3     1  LIG1        0.0940
      2 C           1.0580    0.7830    0.0000 C.2     1  LIG1        0.2446
      3 O           2.0540    0.8710    0.0000 O.2     1  LIG1       -0.2730
      4 N           0.6290   -0.1210    0.0000 N.am    1  LIG1       -0.1988
      5 C           1.4920   -0.6210    0.0000 C.3     1  LIG1        0.1775
      6 C           1.4920   -1.6210    0.0000 C.3     1  LIG1        0.1626
      7 N           2.3460   -2.1210    0.0000 N.4     1  LIG1        0.3827
      8 C           2.3460   -3.1080    0.0000 C.3     1  LIG1        0.1714
      9 C           3.2080   -3.6080    0.0000 C.3     1  LIG1        0.2047
     10 O           4.0710   -3.1170    0.0000 O.3     1  LIG1       -0.3411
     11 C           4.0790   -2.1210    0.0000 C.3     1  LIG1        0.2047
     12 C           3.2080   -1.6170    0.0000 C.3     1  LIG1        0.1714
     13 C          -0.5130    1.5330    0.0000 C.ar    1  LIG1       -0.0142
     14 C          -1.0830    2.3460    0.0000 C.ar    1  LIG1       -0.0007
     15 C          -2.0830    2.2710    0.0000 C.ar    1  LIG1        0.0366
     16 C          -2.5130    1.3710    0.0000 C.ar    1  LIG1        0.1387
     17 C          -1.9460    0.5460    0.0000 C.ar    1  LIG1        0.0366
     18 C          -0.9460    0.6210    0.0000 C.ar    1  LIG1       -0.0007
     19 O          -3.5130    1.2830    0.0000 O.3     1  LIG1       -0.4714
     20 C          -4.0830    2.1130    0.0000 C.3     1  LIG1        0.2525
     21 C          -0.3750    2.1000    0.0000 C.3     1  LIG1        0.0449
     22 C          -0.3750    3.1080    0.0000 C.3     1  LIG1        0.1430
     23 O           0.4920    3.6130    0.0000 O.3     1  LIG1       -0.3537
     24 C           1.3580    3.1080    0.0000 C.3     1  LIG1        0.1430
     25 C           1.3580    2.1000    0.0000 C.3     1  LIG1        0.0449
@<TRIPOS>BOND
     1     1     2    1
     2     1    13    1
     3     1    21    1
     4     1    25    1
     5     2     3    2
     6     2     4   am
     7     4     5    1
     8     5     6    1
     9     6     7    1
    10     7     8    1
    11     7    12    1
    12     8     9    1
    13     9    10    1
    14    10    11    1
    15    11    12    1
    16    13    14   ar
    17    13    18   ar
    18    14    15   ar
    19    15    16   ar
    20    16    17   ar
    21    16    19    1
    22    17    18   ar
    23    19    20    1
    24    21    22    1
    25    22    23    1
    26    23    24    1
    27    24    25    1
