@<TRIPOS>MOLECULE
28656_ChemDiv_3030-2325
 22 24 0 0 0
SMALL
GASTEIGER
Energy = 0

@<TRIPOS>ATOM
      1 C          -2.0580   -0.2580    0.0000 C.3     1  LIG1        0.1321
      2 C          -2.7130    0.5380    0.0000 C.2     1  LIG1        0.0744
      3 N          -3.7040    0.2880    0.0000 N.am    1  LIG1       -0.5748
      4 C          -3.6630   -0.8330    0.0000 C.2     1  LIG1        0.1102
      5 S          -2.6710   -1.0330    0.0000 S.3     1  LIG1       -0.0884
      6 O          -4.4130   -1.4710    0.0000 O.2     1  LIG1       -0.3062
      7 O          -2.4080    1.4750    0.0000 O.2     1  LIG1       -0.3165
      8 C          -1.5960   -1.1420    0.0000 C.3     1  LIG1        0.1631
      9 O          -0.6080   -1.1630    0.0000 O.3     1  LIG1       -0.3258
     10 C          -0.0790   -0.3210    0.0000 C.3     1  LIG1        0.2601
     11 O          -0.5420    0.5540    0.0000 O.3     1  LIG1       -0.3258
     12 C          -1.5330    0.5750    0.0000 C.3     1  LIG1        0.1631
     13 C           0.9130   -0.3670    0.0000 C.ar    1  LIG1        0.0368
     14 C           1.4380    0.4710    0.0000 C.ar    1  LIG1        0.0406
     15 C           2.4290    0.4250    0.0000 C.ar    1  LIG1        0.1722
     16 C           2.8920   -0.4380    0.0000 C.ar    1  LIG1        0.1724
     17 C           2.3630   -1.2920    0.0000 C.ar    1  LIG1        0.0399
     18 C           1.3750   -1.2290    0.0000 C.ar    1  LIG1        0.0039
     19 O           3.8830   -0.4830    0.0000 O.3     1  LIG1       -0.4684
     20 C           4.4080    0.3580    0.0000 C.3     1  LIG1        0.2526
     21 O           2.9580    1.2790    0.0000 O.3     1  LIG1       -0.4684
     22 C           3.9500    1.2330    0.0000 C.3     1  LIG1        0.2526
@<TRIPOS>BOND
     1     1     2    1
     2     1     5    1
     3     1     8    1
     4     1    12    1
     5     2     3   am
     6     2     7    2
     7     3     4   am
     8     4     5    1
     9     4     6    2
    10     8     9    1
    11     9    10    1
    12    10    11    1
    13    10    13    1
    14    11    12    1
    15    13    14   ar
    16    13    18   ar
    17    14    15   ar
    18    15    16   ar
    19    15    21    1
    20    16    17   ar
    21    16    19    1
    22    17    18   ar
    23    19    20    1
    24    21    22    1
