@<TRIPOS>MOLECULE
28666_ChemDiv_2945-0056
 19 21 0 0 0
SMALL
GASTEIGER
Energy = 0

@<TRIPOS>ATOM
      1 C          -0.8750   -0.5000    0.0000 C.ar    1  LIG1        0.3838
      2 C          -0.8750    0.4920    0.0000 C.ar    1  LIG1        0.1033
      3 C          -0.0040    0.9960    0.0000 C.ar    1  LIG1        0.1022
      4 C           0.8710    0.4920    0.0000 C.ar    1  LIG1        0.0866
      5 C           0.8710   -0.5000    0.0000 C.ar    1  LIG1        0.2958
      6 N          -0.0040   -0.9960    0.0000 N.ar    1  LIG1        0.0967
      7 C           1.7420   -0.9960    0.0000 C.ar    1  LIG1        0.0481
      8 C           2.6040   -0.5000    0.0000 C.ar    1  LIG1       -0.0024
      9 C           2.6040    0.4920    0.0000 C.ar    1  LIG1       -0.0217
     10 C           1.7420    0.9960    0.0000 C.ar    1  LIG1        0.0032
     11 C           3.4830    0.9960    0.0000 C.3     1  LIG1        0.0310
     12 C           1.7420   -1.9830    0.0000 C.3     1  LIG1        0.0375
     13 N          -0.0040    1.9880    0.0000 N.pl3   1  LIG1       -0.1276
     14 C          -1.7500    0.9960    0.0000 C.ar    1  LIG1       -0.0117
     15 C          -2.6170    0.4920    0.0000 C.ar    1  LIG1        0.0109
     16 C          -2.6170   -0.5000    0.0000 C.ar    1  LIG1        0.0650
     17 N          -1.7500   -0.9960    0.0000 N.ar    1  LIG1       -0.1843
     18 C          -3.4880   -0.9960    0.0000 C.3     1  LIG1        0.0523
     19 C          -1.7500    1.9880    0.0000 C.3     1  LIG1        0.0314
@<TRIPOS>BOND
     1     1     2   ar
     2     1     6   ar
     3     1    17   ar
     4     2     3   ar
     5     2    14   ar
     6     3     4   ar
     7     3    13    1
     8     4     5   ar
     9     4    10   ar
    10     5     6   ar
    11     5     7   ar
    12     7     8   ar
    13     7    12    1
    14     8     9   ar
    15     9    10   ar
    16     9    11    1
    17    14    15   ar
    18    14    19    1
    19    15    16   ar
    20    16    17   ar
    21    16    18    1
