@<TRIPOS>MOLECULE
28668_ChemDiv_5015-0007
 18 20 0 0 0
SMALL
GASTEIGER
Energy = 0

@<TRIPOS>ATOM
      1 C          -0.4460   -0.5130    0.0000 C.ar    1  LIG1        0.3838
      2 C          -0.4460    0.4920    0.0000 C.ar    1  LIG1        0.1033
      3 C           0.4170    0.9920    0.0000 C.ar    1  LIG1        0.1023
      4 C           1.2830    0.5080    0.0000 C.ar    1  LIG1        0.0869
      5 C           1.2830   -0.4960    0.0000 C.ar    1  LIG1        0.2958
      6 N           0.4210   -1.0080    0.0000 N.ar    1  LIG1        0.0967
      7 C           2.1580   -0.9960    0.0000 C.ar    1  LIG1        0.0484
      8 C           3.0250   -0.4830    0.0000 C.ar    1  LIG1        0.0018
      9 C           3.0170    0.5170    0.0000 C.ar    1  LIG1        0.0001
     10 C           2.1460    1.0170    0.0000 C.ar    1  LIG1        0.0075
     11 C           2.1710   -1.9960    0.0000 C.3     1  LIG1        0.0375
     12 N           0.4170    2.0000    0.0000 N.pl3   1  LIG1       -0.1276
     13 C          -1.3040    0.9920    0.0000 C.ar    1  LIG1       -0.0117
     14 C          -2.1790    0.4920    0.0000 C.ar    1  LIG1        0.0109
     15 C          -2.1790   -0.5130    0.0000 C.ar    1  LIG1        0.0650
     16 N          -1.3040   -1.0080    0.0000 N.ar    1  LIG1       -0.1843
     17 C          -3.0290   -1.0080    0.0000 C.3     1  LIG1        0.0523
     18 C          -1.3170    1.9830    0.0000 C.3     1  LIG1        0.0314
@<TRIPOS>BOND
     1     1     2   ar
     2     1     6   ar
     3     1    16   ar
     4     2     3   ar
     5     2    13   ar
     6     3     4   ar
     7     3    12    1
     8     4     5   ar
     9     4    10   ar
    10     5     6   ar
    11     5     7   ar
    12     7     8   ar
    13     7    11    1
    14     8     9   ar
    15     9    10   ar
    16    13    14   ar
    17    13    18    1
    18    14    15   ar
    19    15    16   ar
    20    15    17    1
