@<TRIPOS>MOLECULE
28664_ChemDiv_2944-0122
 23 26 0 0 0
SMALL
GASTEIGER
Energy = 0

@<TRIPOS>ATOM
      1 C          -0.8460   -0.4830    0.0000 C.ar    1  LIG1        0.0531
      2 C          -0.8290    0.5040    0.0000 C.ar    1  LIG1        0.0845
      3 N           0.0000    0.9920    0.0000 N.ar    1  LIG1       -0.2126
      4 C           0.8500    0.5040    0.0000 C.ar    1  LIG1        0.2392
      5 N           0.8500   -0.4830    0.0000 N.ar    1  LIG1       -0.1739
      6 C           0.0000   -0.9630    0.0000 C.ar    1  LIG1        0.2790
      7 O           0.0000   -1.9420    0.0000 O.2     1  LIG1       -0.2654
      8 N           1.7000    0.9920    0.0000 N.pl3   1  LIG1       -0.2010
      9 C           1.6960    1.9460    0.0000 C.3     1  LIG1        0.1508
     10 C           2.5290    2.4420    0.0000 C.3     1  LIG1        0.2054
     11 O           3.3750    1.9580    0.0000 O.3     1  LIG1       -0.2184
     12 C          -1.6790    0.9750    0.0000 C.ar    1  LIG1        0.0136
     13 C          -2.5250    0.4880    0.0000 C.ar    1  LIG1       -0.0204
     14 C          -2.5080   -0.4830    0.0000 C.3     1  LIG1        0.0306
     15 C          -1.6790   -0.9630    0.0000 C.3     1  LIG1        0.0290
     16 C          -0.8460   -1.4500    0.0000 C.3     1  LIG1        0.0046
     17 C          -0.8460   -2.4380    0.0000 C.3     1  LIG1        0.0003
     18 C          -2.5330   -2.4130    0.0000 C.3     1  LIG1        0.0003
     19 C          -2.5250   -1.4380    0.0000 C.3     1  LIG1        0.0046
     20 C          -3.3630    0.9630    0.0000 C.ar    1  LIG1       -0.0042
     21 C          -3.3790    1.9380    0.0000 C.ar    1  LIG1       -0.0003
     22 C          -2.5250    2.4170    0.0000 C.ar    1  LIG1        0.0000
     23 C          -1.6790    1.9460    0.0000 C.ar    1  LIG1        0.0012
@<TRIPOS>BOND
     1     1     2   ar
     2     1     6   ar
     3     1    15    1
     4     2     3   ar
     5     2    12    1
     6     3     4   ar
     7     4     5   ar
     8     4     8    1
     9     5     6   ar
    10     6     7    2
    11     8     9    1
    12     9    10    1
    13    10    11    1
    14    12    13   ar
    15    12    23   ar
    16    13    14    1
    17    13    20   ar
    18    14    15    1
    19    15    16    1
    20    15    19    1
    21    16    17    1
    22    17    18    1
    23    18    19    1
    24    20    21   ar
    25    21    22   ar
    26    22    23   ar
