@<TRIPOS>MOLECULE
28667_ChemDiv_8017-4123
 24 28 0 0 0
SMALL
GASTEIGER
Energy = 0

@<TRIPOS>ATOM
      1 C           0.2880   -0.8460    0.0000 C.ar    1  LIG1        0.0583
      2 C          -0.1960   -1.6080    0.0000 C.ar    1  LIG1        0.0402
      3 N           0.3630   -2.3040    0.0000 N.ar    1  LIG1       -0.3307
      4 C           1.1960   -1.9920    0.0000 C.ar    1  LIG1        0.0596
      5 C           1.1540   -1.0920    0.0000 C.ar    1  LIG1        0.0197
      6 C           1.9210   -0.6460    0.0000 C.ar    1  LIG1        0.0014
      7 C           2.6960   -1.0830    0.0000 C.ar    1  LIG1        0.0001
      8 C           2.7040   -1.9920    0.0000 C.ar    1  LIG1        0.0015
      9 C           1.9290   -2.4330    0.0000 C.ar    1  LIG1        0.0172
     10 C           0.3540   -3.1960    0.0000 C.3     1  LIG1        0.1058
     11 C          -0.4210   -3.6330    0.0000 C.3     1  LIG1        0.0265
     12 C          -1.1210   -1.5960    0.0000 C.3     1  LIG1        0.0499
     13 C          -0.2380    0.0670    0.0000 C.3     1  LIG1        0.1769
     14 N          -1.2920    0.2540    0.0000 N.3     1  LIG1       -0.2265
     15 C          -2.3960   -0.1460    0.0000 C.3     1  LIG1        0.0832
     16 C          -1.7080    1.1290    0.0000 C.3     1  LIG1        0.0669
     17 C          -0.8500    0.6330    0.0000 C.3     1  LIG1        0.1416
     18 N           0.0170    1.1330    0.0000 N.4     1  LIG1        0.3880
     19 C           0.0170    2.1420    0.0000 C.3     1  LIG1        0.1416
     20 C          -0.8580    2.6290    0.0000 C.3     1  LIG1        0.0669
     21 C          -1.3460    2.0290    0.0000 C.3     1  LIG1        0.0832
     22 C          -1.7080    2.1290    0.0000 C.3     1  LIG1        0.0142
     23 C          -0.8710    3.6380    0.0000 C.3     1  LIG1        0.0073
     24 C          -2.7080    1.1290    0.0000 C.3     1  LIG1        0.0073
@<TRIPOS>BOND
     1     1     2   ar
     2     1     5   ar
     3     1    13    1
     4     2     3   ar
     5     2    12    1
     6     3     4   ar
     7     3    10    1
     8     4     5   ar
     9     4     9   ar
    10     5     6   ar
    11     6     7   ar
    12     7     8   ar
    13     8     9   ar
    14    10    11    1
    15    13    14    1
    16    13    18    1
    17    14    15    1
    18    14    21    1
    19    15    16    1
    20    16    17    1
    21    16    22    1
    22    16    24    1
    23    17    18    1
    24    18    19    1
    25    19    20    1
    26    20    21    1
    27    20    22    1
    28    20    23    1
