@<TRIPOS>MOLECULE
28672_ChemDiv_6396-0007
 19 21 0 0 0
SMALL
GASTEIGER
Energy = 0

@<TRIPOS>ATOM
      1 C          -1.2880    0.0000    0.0000 C.ar    1  LIG1        0.1033
      2 C          -1.3000   -1.0000    0.0000 C.ar    1  LIG1        0.3838
      3 N          -0.4380   -1.5040    0.0000 N.ar    1  LIG1        0.0970
      4 C           0.4290   -1.0080    0.0000 C.ar    1  LIG1        0.2999
      5 C           0.4330   -0.0040    0.0000 C.ar    1  LIG1        0.0869
      6 C          -0.4290    0.5000    0.0000 C.ar    1  LIG1        0.1023
      7 N          -0.4250    1.5040    0.0000 N.pl3   1  LIG1       -0.1276
      8 C           1.2960    0.5000    0.0000 C.ar    1  LIG1        0.0032
      9 C           2.1630   -0.0040    0.0000 C.ar    1  LIG1       -0.0217
     10 C           2.1630   -1.0080    0.0000 C.ar    1  LIG1        0.0021
     11 C           1.2960   -1.5040    0.0000 C.ar    1  LIG1        0.0759
     12 C           3.0250    0.5000    0.0000 C.3     1  LIG1        0.0264
     13 C           3.8880    0.0000    0.0000 C.3     1  LIG1        0.0050
     14 N          -2.1630   -1.4920    0.0000 N.ar    1  LIG1       -0.1843
     15 C          -3.0330   -0.9920    0.0000 C.ar    1  LIG1        0.0650
     16 C          -3.0250    0.0130    0.0000 C.ar    1  LIG1        0.0109
     17 C          -2.1580    0.5080    0.0000 C.ar    1  LIG1       -0.0117
     18 C          -2.1420    1.5080    0.0000 C.3     1  LIG1        0.0314
     19 C          -3.8920   -1.4790    0.0000 C.3     1  LIG1        0.0523
@<TRIPOS>BOND
     1     1     2   ar
     2     1     6   ar
     3     1    17   ar
     4     2     3   ar
     5     2    14   ar
     6     3     4   ar
     7     4     5   ar
     8     4    11   ar
     9     5     6   ar
    10     5     8   ar
    11     6     7    1
    12     8     9   ar
    13     9    10   ar
    14     9    12    1
    15    10    11   ar
    16    12    13    1
    17    14    15   ar
    18    15    16   ar
    19    15    19    1
    20    16    17   ar
    21    17    18    1
