@<TRIPOS>MOLECULE
28674_ChemDiv_3030-2379
 26 30 0 0 0
SMALL
GASTEIGER
Energy = 0

@<TRIPOS>ATOM
      1 C          -0.1130   -1.4130    0.0000 C.ar    1  LIG1        0.0727
      2 C           0.2000   -2.3630    0.0000 C.ar    1  LIG1        0.1008
      3 S          -0.6130   -2.9460    0.0000 S.2     1  LIG1       -0.0696
      4 C          -1.4290   -2.3630    0.0000 C.ar    1  LIG1        0.0615
      5 C          -1.1170   -1.4130    0.0000 C.ar    1  LIG1       -0.0024
      6 C          -1.7830   -0.6750    0.0000 C.3     1  LIG1        0.0896
      7 C          -2.7630   -0.8750    0.0000 C.3     1  LIG1        0.1441
      8 N          -3.0710   -1.8290    0.0000 N.4     1  LIG1        0.3861
      9 C          -2.3830   -2.5790    0.0000 C.3     1  LIG1        0.1727
     10 C          -4.0500   -2.0460    0.0000 C.3     1  LIG1        0.2028
     11 N           1.1750   -2.5790    0.0000 N.pl3   1  LIG1       -0.2068
     12 C           1.8420   -1.8290    0.0000 C.3     1  LIG1        0.2100
     13 N           1.5540   -0.8750    0.0000 N.am    1  LIG1       -0.1771
     14 C           0.5580   -0.6750    0.0000 C.2     1  LIG1        0.2680
     15 O           0.2420    0.2790    0.0000 O.2     1  LIG1       -0.2683
     16 C           2.8250   -2.0460    0.0000 C.2     1  LIG1        0.0171
     17 C           3.4920   -1.2920    0.0000 C.2     1  LIG1       -0.0010
     18 C           3.1750   -0.3420    0.0000 C.ar    1  LIG1        0.0030
     19 C           3.8630    0.3960    0.0000 C.ar    1  LIG1        0.0402
     20 C           3.5540    1.3500    0.0000 C.ar    1  LIG1        0.1764
     21 C           2.5580    1.5500    0.0000 C.ar    1  LIG1        0.1764
     22 O           2.4710    2.5330    0.0000 O.3     1  LIG1       -0.4346
     23 C           3.3750    2.9500    0.0000 C.3     1  LIG1        0.4294
     24 O           4.0460    2.2000    0.0000 O.3     1  LIG1       -0.4346
     25 C           1.8920    0.8130    0.0000 C.ar    1  LIG1        0.0402
     26 C           2.2210   -0.1380    0.0000 C.ar    1  LIG1        0.0033
@<TRIPOS>BOND
     1     1     2   ar
     2     1     5   ar
     3     1    14    1
     4     2     3   ar
     5     2    11    1
     6     3     4   ar
     7     4     5   ar
     8     4     9    1
     9     5     6    1
    10     6     7    1
    11     7     8    1
    12     8     9    1
    13     8    10    1
    14    11    12    1
    15    12    13    1
    16    12    16    1
    17    13    14   am
    18    14    15    2
    19    16    17    2
    20    17    18    1
    21    18    19   ar
    22    18    26   ar
    23    19    20   ar
    24    20    21   ar
    25    20    24    1
    26    21    22    1
    27    21    25   ar
    28    22    23    1
    29    23    24    1
    30    25    26   ar
