@<TRIPOS>MOLECULE
28679_ChemDiv_2766-0202
 25 27 0 0 0
SMALL
GASTEIGER
Energy = 0

@<TRIPOS>ATOM
      1 N           1.4540   -0.3880    0.0000 N.am    1  LIG1       -0.2079
      2 C           0.4960   -0.0750    0.0000 C.2     1  LIG1        0.2392
      3 C          -0.1000   -0.8750    0.0000 C.3     1  LIG1        0.1087
      4 C           0.4960   -1.6960    0.0000 C.3     1  LIG1        0.0995
      5 C           1.4540   -1.3880    0.0000 C.2     1  LIG1        0.2359
      6 O           2.2540   -1.9710    0.0000 O.2     1  LIG1       -0.2741
      7 C          -1.1000   -0.8750    0.0000 C.ar    1  LIG1       -0.0132
      8 C          -1.5920   -1.7460    0.0000 C.ar    1  LIG1       -0.0007
      9 C          -2.5920   -1.7460    0.0000 C.ar    1  LIG1        0.0366
     10 C          -3.1040   -0.8750    0.0000 C.ar    1  LIG1        0.1384
     11 O          -4.1040   -0.8750    0.0000 O.3     1  LIG1       -0.4792
     12 C          -4.5960   -0.0080    0.0000 C.3     1  LIG1        0.1661
     13 C          -5.5960   -0.0080    0.0000 C.3     1  LIG1        0.0472
     14 C          -4.1040    0.8580    0.0000 C.3     1  LIG1        0.0472
     15 C          -2.5920   -0.0080    0.0000 C.ar    1  LIG1        0.0366
     16 C          -1.5920   -0.0080    0.0000 C.ar    1  LIG1       -0.0007
     17 O           0.1830    0.8790    0.0000 O.2     1  LIG1       -0.2738
     18 C           2.2540    0.2130    0.0000 C.ar    1  LIG1        0.0608
     19 C           3.1670   -0.1920    0.0000 C.ar    1  LIG1        0.0184
     20 C           3.9710    0.4080    0.0000 C.ar    1  LIG1        0.0382
     21 C           3.8710    1.3920    0.0000 C.ar    1  LIG1        0.1388
     22 C           2.9500    1.7750    0.0000 C.ar    1  LIG1        0.0382
     23 C           2.1460    1.2080    0.0000 C.ar    1  LIG1        0.0184
     24 O           4.6750    1.9750    0.0000 O.3     1  LIG1       -0.4714
     25 C           5.5920    1.5670    0.0000 C.3     1  LIG1        0.2525
@<TRIPOS>BOND
     1     1     2   am
     2     1     5   am
     3     1    18    1
     4     2     3    1
     5     2    17    2
     6     3     4    1
     7     3     7    1
     8     4     5    1
     9     5     6    2
    10     7     8   ar
    11     7    16   ar
    12     8     9   ar
    13     9    10   ar
    14    10    11    1
    15    10    15   ar
    16    11    12    1
    17    12    13    1
    18    12    14    1
    19    15    16   ar
    20    18    19   ar
    21    18    23   ar
    22    19    20   ar
    23    20    21   ar
    24    21    22   ar
    25    21    24    1
    26    22    23   ar
    27    24    25    1
