@<TRIPOS>MOLECULE
28681_ChemDiv_3455-1144
 28 30 0 0 0
SMALL
GASTEIGER
Energy = 0

@<TRIPOS>ATOM
      1 N           1.7040   -1.7670    0.0000 N.am    1  LIG1       -0.2079
      2 C           0.6920   -1.5420    0.0000 C.2     1  LIG1        0.2392
      3 C           0.1750   -2.4290    0.0000 C.3     1  LIG1        0.1087
      4 C           0.8380   -3.1330    0.0000 C.3     1  LIG1        0.0995
      5 C           1.7040   -2.7380    0.0000 C.2     1  LIG1        0.2359
      6 O           2.5830   -3.2330    0.0000 O.2     1  LIG1       -0.2741
      7 C          -0.8380   -2.4290    0.0000 C.ar    1  LIG1       -0.0132
      8 C          -1.3080   -3.2960    0.0000 C.ar    1  LIG1       -0.0007
      9 C          -2.3040   -3.2960    0.0000 C.ar    1  LIG1        0.0366
     10 C          -2.7960   -2.4290    0.0000 C.ar    1  LIG1        0.1384
     11 O          -3.7960   -2.4290    0.0000 O.3     1  LIG1       -0.4792
     12 C          -4.3250   -1.5420    0.0000 C.3     1  LIG1        0.1661
     13 C          -3.7960   -0.7420    0.0000 C.3     1  LIG1        0.0472
     14 C          -5.2960   -1.5420    0.0000 C.3     1  LIG1        0.0472
     15 C          -2.3040   -1.5420    0.0000 C.ar    1  LIG1        0.0366
     16 C          -1.3080   -1.5420    0.0000 C.ar    1  LIG1       -0.0007
     17 O           0.2710   -0.6580    0.0000 O.2     1  LIG1       -0.2738
     18 C           2.5460   -1.2580    0.0000 C.ar    1  LIG1        0.0606
     19 C           2.5460   -0.2880    0.0000 C.ar    1  LIG1        0.0153
     20 C           3.3790    0.2250    0.0000 C.ar    1  LIG1        0.0013
     21 C           3.4080    1.2170    0.0000 C.2     1  LIG1        0.0012
     22 C           4.4040    1.8170    0.0000 C.2     1  LIG1        0.0151
     23 C           4.4040    2.8130    0.0000 C.2     1  LIG1        0.0729
     24 O           3.5130    3.3000    0.0000 O.co2   1  LIG1       -0.5446
     25 O           5.2920    3.2420    0.0000 O.co2   1  LIG1       -0.5446
     26 C           4.2790   -0.2130    0.0000 C.ar    1  LIG1        0.0001
     27 C           4.2790   -1.2330    0.0000 C.ar    1  LIG1        0.0013
     28 C           3.4130   -1.7210    0.0000 C.ar    1  LIG1        0.0153
@<TRIPOS>BOND
     1     1     2   am
     2     1     5   am
     3     1    18    1
     4     2     3    1
     5     2    17    2
     6     3     4    1
     7     3     7    1
     8     4     5    1
     9     5     6    2
    10     7     8   ar
    11     7    16   ar
    12     8     9   ar
    13     9    10   ar
    14    10    11    1
    15    10    15   ar
    16    11    12    1
    17    12    13    1
    18    12    14    1
    19    15    16   ar
    20    18    19   ar
    21    18    28   ar
    22    19    20   ar
    23    20    21    1
    24    20    26   ar
    25    21    22    2
    26    22    23    1
    27    23    24   ar
    28    23    25   ar
    29    26    27   ar
    30    27    28   ar
