@<TRIPOS>MOLECULE
28680_ChemDiv_6332-1077
 27 30 0 0 0
SMALL
GASTEIGER
Energy = 0

@<TRIPOS>ATOM
      1 C          -0.0960    2.2500    0.0000 C.2     1  LIG1        0.0809
      2 C          -0.6830    1.4330    0.0000 C.2     1  LIG1        0.1988
      3 C          -1.6330    1.7420    0.0000 C.ar    1  LIG1        0.0421
      4 C          -1.6330    2.7380    0.0000 C.ar    1  LIG1        0.0421
      5 C          -0.6830    3.0500    0.0000 C.2     1  LIG1        0.1988
      6 O          -0.3710    4.0040    0.0000 O.2     1  LIG1       -0.2865
      7 C          -2.5000    3.2460    0.0000 C.ar    1  LIG1        0.0033
      8 C          -3.3540    2.7380    0.0000 C.ar    1  LIG1        0.0001
      9 C          -3.3540    1.7380    0.0000 C.ar    1  LIG1        0.0001
     10 C          -2.5000    1.2420    0.0000 C.ar    1  LIG1        0.0033
     11 O          -0.3710    0.4830    0.0000 O.2     1  LIG1       -0.2865
     12 C           0.9040    2.2500    0.0000 C.2     1  LIG1        0.0439
     13 C           1.4000    1.3710    0.0000 C.ar    1  LIG1        0.1456
     14 O           0.9960    0.4580    0.0000 O.2     1  LIG1       -0.4535
     15 C           1.7330   -0.2130    0.0000 C.ar    1  LIG1        0.1450
     16 C           1.6290   -1.2040    0.0000 C.ar    1  LIG1        0.0307
     17 C           0.7130   -1.6170    0.0000 C.ar    1  LIG1        0.0038
     18 C           0.6080   -2.6080    0.0000 C.ar    1  LIG1        0.0141
     19 C          -0.3040   -3.0040    0.0000 C.2     1  LIG1        0.0729
     20 O          -0.4170   -4.0040    0.0000 O.co2   1  LIG1       -0.5446
     21 O          -1.1080   -2.4170    0.0000 O.co2   1  LIG1       -0.5446
     22 C           1.4170   -3.1960    0.0000 C.ar    1  LIG1        0.0008
     23 C           2.3330   -2.7920    0.0000 C.ar    1  LIG1       -0.0041
     24 C           2.4420   -1.7960    0.0000 C.ar    1  LIG1       -0.0189
     25 C           3.3500   -1.3920    0.0000 C.3     1  LIG1        0.0311
     26 C           2.6040    0.2880    0.0000 C.ar    1  LIG1        0.0406
     27 C           2.3960    1.2710    0.0000 C.ar    1  LIG1        0.0406
@<TRIPOS>BOND
     1     1     2    1
     2     1     5    1
     3     1    12    2
     4     2     3    1
     5     2    11    2
     6     3     4   ar
     7     3    10   ar
     8     4     5    1
     9     4     7   ar
    10     5     6    2
    11     7     8   ar
    12     8     9   ar
    13     9    10   ar
    14    12    13    1
    15    13    14   ar
    16    13    27   ar
    17    14    15   ar
    18    15    16    1
    19    15    26   ar
    20    16    17   ar
    21    16    24   ar
    22    17    18   ar
    23    18    19    1
    24    18    22   ar
    25    19    20   ar
    26    19    21   ar
    27    22    23   ar
    28    23    24   ar
    29    24    25    1
    30    26    27   ar
