@<TRIPOS>MOLECULE
28686_ChemDiv_8012-8504
 32 35 0 0 0
SMALL
GASTEIGER
Energy = 0

@<TRIPOS>ATOM
      1 N           0.9630   -0.3540    0.0000 N.ar    1  LIG1       -0.1567
      2 C           0.1460   -0.9580    0.0000 C.ar    1  LIG1        0.3704
      3 N          -0.6670   -0.3830    0.0000 N.ar    1  LIG1       -0.1567
      4 S          -1.6210   -0.6750    0.0000 S.O2    1  LIG1        0.0895
      5 C          -2.5750   -1.0000    0.0000 C.ar    1  LIG1        0.1280
      6 C          -2.7670   -1.9710    0.0000 C.ar    1  LIG1        0.0235
      7 C          -3.7250   -2.2920    0.0000 C.ar    1  LIG1        0.0383
      8 C          -4.4960   -1.6080    0.0000 C.ar    1  LIG1        0.1388
      9 C          -4.2540   -0.6420    0.0000 C.ar    1  LIG1        0.0383
     10 C          -3.3210   -0.3170    0.0000 C.ar    1  LIG1        0.0235
     11 O          -5.4540   -1.8750    0.0000 O.3     1  LIG1       -0.4714
     12 C          -6.1580   -1.1920    0.0000 C.3     1  LIG1        0.2525
     13 O          -1.3170   -1.6420    0.0000 O.2     1  LIG1       -0.1475
     14 O          -1.9330    0.2580    0.0000 O.2     1  LIG1       -0.1475
     15 C          -0.4170    0.5710    0.0000 C.ar    1  LIG1        0.1047
     16 C           0.6250    0.5830    0.0000 C.ar    1  LIG1        0.1047
     17 C           1.1040    1.4750    0.0000 C.ar    1  LIG1        0.0206
     18 C           0.5830    2.3040    0.0000 C.ar    1  LIG1        0.0016
     19 C          -0.4250    2.3040    0.0000 C.ar    1  LIG1        0.0016
     20 C          -0.9080    1.4080    0.0000 C.ar    1  LIG1        0.0206
     21 O           0.1460   -1.9710    0.0000 O.2     1  LIG1       -0.2429
     22 S           1.9710   -0.5290    0.0000 S.O2    1  LIG1        0.0895
     23 C           2.9750   -0.7130    0.0000 C.ar    1  LIG1        0.1280
     24 C           3.6420    0.0460    0.0000 C.ar    1  LIG1        0.0235
     25 C           4.6250   -0.2080    0.0000 C.ar    1  LIG1        0.0383
     26 C           4.9080   -1.1420    0.0000 C.ar    1  LIG1        0.1388
     27 C           4.2420   -1.8580    0.0000 C.ar    1  LIG1        0.0383
     28 C           3.2830   -1.6420    0.0000 C.ar    1  LIG1        0.0235
     29 O           5.8670   -1.3580    0.0000 O.3     1  LIG1       -0.4714
     30 C           6.1580   -2.3000    0.0000 C.3     1  LIG1        0.2525
     31 O           2.1380    0.4790    0.0000 O.2     1  LIG1       -0.1475
     32 O           1.7790   -1.4960    0.0000 O.2     1  LIG1       -0.1475
@<TRIPOS>BOND
     1     1     2   ar
     2     1    16   ar
     3     1    22    1
     4     2     3   ar
     5     2    21    2
     6     3     4    1
     7     3    15   ar
     8     4     5    1
     9     4    13    2
    10     4    14    2
    11     5     6   ar
    12     5    10   ar
    13     6     7   ar
    14     7     8   ar
    15     8     9   ar
    16     8    11    1
    17     9    10   ar
    18    11    12    1
    19    15    16   ar
    20    15    20   ar
    21    16    17   ar
    22    17    18   ar
    23    18    19   ar
    24    19    20   ar
    25    22    23    1
    26    22    31    2
    27    22    32    2
    28    23    24   ar
    29    23    28   ar
    30    24    25   ar
    31    25    26   ar
    32    26    27   ar
    33    26    29    1
    34    27    28   ar
    35    29    30    1
