@<TRIPOS>MOLECULE
28687_ChemDiv_4164-0150
 31 35 0 0 0
SMALL
GASTEIGER
Energy = 0

@<TRIPOS>ATOM
      1 C          -1.6920   -0.5130    0.0000 C.ar    1  LIG1        0.0514
      2 C          -0.8630   -0.9960    0.0000 C.ar    1  LIG1        0.2605
      3 N           0.0330   -0.5130    0.0000 N.ar    1  LIG1       -0.2636
      4 C           0.0330    0.4540    0.0000 C.ar    1  LIG1        0.2200
      5 N          -0.8630    0.9380    0.0000 N.ar    1  LIG1       -0.2140
      6 C          -1.6920    0.4540    0.0000 C.ar    1  LIG1        0.0844
      7 C          -2.5210    0.9380    0.0000 C.ar    1  LIG1        0.0136
      8 C          -3.4170    0.4540    0.0000 C.ar    1  LIG1       -0.0204
      9 C          -3.4170   -0.5130    0.0000 C.3     1  LIG1        0.0306
     10 C          -2.5210   -0.9960    0.0000 C.3     1  LIG1        0.0289
     11 C          -1.6920   -1.4790    0.0000 C.3     1  LIG1        0.0046
     12 C          -1.6920   -2.4460    0.0000 C.3     1  LIG1        0.0003
     13 C          -3.4170   -2.4460    0.0000 C.3     1  LIG1        0.0003
     14 C          -3.4170   -1.4790    0.0000 C.3     1  LIG1        0.0046
     15 C          -4.2460    0.9380    0.0000 C.ar    1  LIG1       -0.0042
     16 C          -4.2460    1.9040    0.0000 C.ar    1  LIG1       -0.0003
     17 C          -3.4170    2.4500    0.0000 C.ar    1  LIG1        0.0000
     18 C          -2.5210    1.9040    0.0000 C.ar    1  LIG1        0.0012
     19 N           0.8630    0.9380    0.0000 N.pl3   1  LIG1       -0.2051
     20 C           1.6880    0.4540    0.0000 C.3     1  LIG1        0.1180
     21 C           2.5170    0.9380    0.0000 C.3     1  LIG1        0.0590
     22 C           3.4130    0.4540    0.0000 C.3     1  LIG1        0.1839
     23 O           4.2420    0.9380    0.0000 O.3     1  LIG1       -0.2204
     24 C           0.8630   -0.9960    0.0000 C.3     1  LIG1        0.1384
     25 C           1.6880   -0.5130    0.0000 C.ar    1  LIG1        0.0006
     26 C           2.5170   -0.0290    0.0000 C.ar    1  LIG1       -0.0024
     27 C           3.4130   -0.5130    0.0000 C.ar    1  LIG1       -0.0003
     28 C           3.4130   -1.4790    0.0000 C.ar    1  LIG1       -0.0000
     29 C           2.5170   -1.9630    0.0000 C.ar    1  LIG1       -0.0003
     30 C           1.6880   -1.4790    0.0000 C.ar    1  LIG1       -0.0024
     31 O          -0.8630   -1.9630    0.0000 O.2     1  LIG1       -0.2672
@<TRIPOS>BOND
     1     1     2   ar
     2     1     6   ar
     3     1    10    1
     4     2     3   ar
     5     2    31    2
     6     3     4   ar
     7     3    24    1
     8     4     5   ar
     9     4    19    1
    10     5     6   ar
    11     6     7    1
    12     7     8   ar
    13     7    18   ar
    14     8     9    1
    15     8    15   ar
    16     9    10    1
    17    10    11    1
    18    10    14    1
    19    11    12    1
    20    12    13    1
    21    13    14    1
    22    15    16   ar
    23    16    17   ar
    24    17    18   ar
    25    19    20    1
    26    20    21    1
    27    21    22    1
    28    22    23    1
    29    24    25    1
    30    25    26   ar
    31    25    30   ar
    32    26    27   ar
    33    27    28   ar
    34    28    29   ar
    35    29    30   ar
