@<TRIPOS>MOLECULE
28684_ChemDiv_6527-0994
 31 34 0 0 0
SMALL
GASTEIGER
Energy = 0

@<TRIPOS>ATOM
      1 N           0.8250   -0.8040    0.0000 N.ar    1  LIG1       -0.1567
      2 C           1.4130    0.0040    0.0000 C.ar    1  LIG1        0.3704
      3 N           0.8250    0.8080    0.0000 N.ar    1  LIG1       -0.1567
      4 S           1.1380    1.7630    0.0000 S.O2    1  LIG1        0.0895
      5 C           1.4420    2.7170    0.0000 C.ar    1  LIG1        0.1278
      6 C           2.4130    2.9330    0.0000 C.ar    1  LIG1        0.0201
      7 C           2.7210    3.8830    0.0000 C.ar    1  LIG1       -0.0029
      8 C           2.0460    4.6130    0.0000 C.ar    1  LIG1       -0.0218
      9 C           1.0750    4.3960    0.0000 C.ar    1  LIG1       -0.0029
     10 C           0.7710    3.4500    0.0000 C.ar    1  LIG1        0.0201
     11 C           2.3500    5.5710    0.0000 C.3     1  LIG1        0.0310
     12 O           2.0880    1.4580    0.0000 O.2     1  LIG1       -0.1475
     13 O           0.1830    2.0710    0.0000 O.2     1  LIG1       -0.1475
     14 C          -0.1210    0.5040    0.0000 C.ar    1  LIG1        0.1043
     15 C          -0.1210   -0.5000    0.0000 C.ar    1  LIG1        0.1046
     16 C          -0.9880   -1.0000    0.0000 C.ar    1  LIG1        0.0203
     17 C          -1.8540   -0.5000    0.0000 C.ar    1  LIG1       -0.0026
     18 C          -1.8540    0.4960    0.0000 C.ar    1  LIG1       -0.0203
     19 C          -0.9880    1.0000    0.0000 C.ar    1  LIG1        0.0164
     20 C          -2.7290    1.0130    0.0000 C.3     1  LIG1        0.0311
     21 O           2.4130    0.0130    0.0000 O.2     1  LIG1       -0.2429
     22 S           1.1380   -1.7580    0.0000 S.O2    1  LIG1        0.0895
     23 C           1.4420   -2.7130    0.0000 C.ar    1  LIG1        0.1278
     24 C           0.7710   -3.4540    0.0000 C.ar    1  LIG1        0.0201
     25 C           1.0790   -4.4040    0.0000 C.ar    1  LIG1       -0.0029
     26 C           2.0540   -4.6170    0.0000 C.ar    1  LIG1       -0.0218
     27 C           2.7250   -3.8830    0.0000 C.ar    1  LIG1       -0.0029
     28 C           2.4170   -2.9250    0.0000 C.ar    1  LIG1        0.0201
     29 C           2.3580   -5.5710    0.0000 C.3     1  LIG1        0.0310
     30 O           0.1830   -2.0670    0.0000 O.2     1  LIG1       -0.1475
     31 O           2.0880   -1.4540    0.0000 O.2     1  LIG1       -0.1475
@<TRIPOS>BOND
     1     1     2   ar
     2     1    15   ar
     3     1    22    1
     4     2     3   ar
     5     2    21    2
     6     3     4    1
     7     3    14   ar
     8     4     5    1
     9     4    12    2
    10     4    13    2
    11     5     6   ar
    12     5    10   ar
    13     6     7   ar
    14     7     8   ar
    15     8     9   ar
    16     8    11    1
    17     9    10   ar
    18    14    15   ar
    19    14    19   ar
    20    15    16   ar
    21    16    17   ar
    22    17    18   ar
    23    18    19   ar
    24    18    20    1
    25    22    23    1
    26    22    30    2
    27    22    31    2
    28    23    24   ar
    29    23    28   ar
    30    24    25   ar
    31    25    26   ar
    32    26    27   ar
    33    26    29    1
    34    27    28   ar
