@<TRIPOS>MOLECULE
28683_ChemDiv_2766-0243
 31 34 0 0 0
SMALL
GASTEIGER
Energy = 0

@<TRIPOS>ATOM
      1 C          -1.3000    0.2380    0.0000 C.ar    1  LIG1        0.0514
      2 C          -0.4330   -0.2500    0.0000 C.ar    1  LIG1        0.2605
      3 N           0.4330    0.2380    0.0000 N.ar    1  LIG1       -0.2636
      4 C           0.4330    1.2420    0.0000 C.ar    1  LIG1        0.2200
      5 N          -0.4330    1.7540    0.0000 N.ar    1  LIG1       -0.2140
      6 C          -1.3000    1.2420    0.0000 C.ar    1  LIG1        0.0844
      7 C          -2.1710    1.7540    0.0000 C.ar    1  LIG1        0.0136
      8 C          -3.0380    1.2420    0.0000 C.ar    1  LIG1       -0.0204
      9 C          -3.0380    0.2380    0.0000 C.3     1  LIG1        0.0306
     10 C          -2.1710   -0.2330    0.0000 C.3     1  LIG1        0.0289
     11 C          -3.0380   -0.7460    0.0000 C.3     1  LIG1        0.0046
     12 C          -3.0380   -1.7500    0.0000 C.3     1  LIG1        0.0003
     13 C          -1.3000   -0.7460    0.0000 C.3     1  LIG1        0.0046
     14 C          -1.3000   -1.7500    0.0000 C.3     1  LIG1        0.0003
     15 C          -3.9080    1.7540    0.0000 C.ar    1  LIG1       -0.0042
     16 C          -3.9080    2.7540    0.0000 C.ar    1  LIG1       -0.0003
     17 C          -3.0380    3.2460    0.0000 C.ar    1  LIG1        0.0000
     18 C          -2.1710    2.7540    0.0000 C.ar    1  LIG1        0.0012
     19 N           1.3040    1.7380    0.0000 N.pl3   1  LIG1       -0.2051
     20 C           2.1710    1.2420    0.0000 C.3     1  LIG1        0.1180
     21 C           2.1710    0.2540    0.0000 C.3     1  LIG1        0.0590
     22 C           3.0420   -0.2290    0.0000 C.3     1  LIG1        0.1839
     23 O           3.9040    0.2540    0.0000 O.3     1  LIG1       -0.2204
     24 C           1.3040   -0.2500    0.0000 C.3     1  LIG1        0.1384
     25 C           1.3040   -1.2540    0.0000 C.ar    1  LIG1        0.0006
     26 C           0.4330   -1.7380    0.0000 C.ar    1  LIG1       -0.0024
     27 C           0.4290   -2.7380    0.0000 C.ar    1  LIG1       -0.0003
     28 C           1.2960   -3.2420    0.0000 C.ar    1  LIG1       -0.0000
     29 C           2.1670   -2.7500    0.0000 C.ar    1  LIG1       -0.0003
     30 C           2.1670   -1.7500    0.0000 C.ar    1  LIG1       -0.0024
     31 O          -0.4330   -1.2540    0.0000 O.2     1  LIG1       -0.2672
@<TRIPOS>BOND
     1     1     2   ar
     2     1     6   ar
     3     1    10    1
     4     2     3   ar
     5     2    31    2
     6     3     4   ar
     7     3    24    1
     8     4     5   ar
     9     4    19    1
    10     5     6   ar
    11     6     7    1
    12     7     8   ar
    13     7    18   ar
    14     8     9    1
    15     8    15   ar
    16     9    10    1
    17    10    11    1
    18    10    13    1
    19    11    12    1
    20    13    14    1
    21    15    16   ar
    22    16    17   ar
    23    17    18   ar
    24    19    20    1
    25    20    21    1
    26    21    22    1
    27    22    23    1
    28    24    25    1
    29    25    26   ar
    30    25    30   ar
    31    26    27   ar
    32    27    28   ar
    33    28    29   ar
    34    29    30   ar
