@<TRIPOS>MOLECULE
28697_ChemDiv_6049-1250
 33 36 0 0 0
SMALL
GASTEIGER
Energy = 0

@<TRIPOS>ATOM
      1 C          -1.1630   -0.2250    0.0000 C.ar    1  LIG1        0.1070
      2 C          -2.1420   -0.0790    0.0000 C.ar    1  LIG1        0.0748
      3 C          -2.2540    0.8960    0.0000 C.ar    1  LIG1       -0.0052
      4 C          -1.3630    1.3460    0.0000 C.ar    1  LIG1        0.0804
      5 S          -0.6380    0.6330    0.0000 S.2     1  LIG1       -0.0661
      6 C          -1.2000    2.3330    0.0000 C.2     1  LIG1        0.2548
      7 N          -1.9330    2.9250    0.0000 N.am    1  LIG1       -0.2757
      8 C          -2.8630    2.5580    0.0000 C.3     1  LIG1        0.0938
      9 C          -3.8080    3.1670    0.0000 C.3     1  LIG1        0.0233
     10 C          -1.8080    3.9130    0.0000 C.3     1  LIG1        0.0938
     11 C          -2.5920    4.5500    0.0000 C.3     1  LIG1        0.0233
     12 O          -0.2710    2.7420    0.0000 O.2     1  LIG1       -0.2694
     13 C          -3.0670    1.4630    0.0000 C.3     1  LIG1        0.0319
     14 C          -2.8330   -0.7790    0.0000 C.2     1  LIG1        0.2856
     15 O          -3.7540   -0.4960    0.0000 O.2     1  LIG1       -0.2666
     16 N          -2.6130   -1.7670    0.0000 N.am    1  LIG1       -0.0837
     17 N          -0.6880   -1.0960    0.0000 N.am    1  LIG1       -0.1719
     18 C           0.3170   -1.0960    0.0000 C.2     1  LIG1        0.2540
     19 C           0.8170   -1.9580    0.0000 C.3     1  LIG1        0.1288
     20 C           1.8080   -1.9580    0.0000 C.ar    1  LIG1        0.0250
     21 C           2.3210   -2.8210    0.0000 C.ar    1  LIG1        0.1420
     22 O           1.8080   -3.6790    0.0000 O.3     1  LIG1       -0.4541
     23 C           0.8330   -3.6790    0.0000 C.ar    1  LIG1        0.1420
     24 C           0.3170   -2.8080    0.0000 C.ar    1  LIG1        0.0250
     25 C          -0.6750   -2.8080    0.0000 C.ar    1  LIG1       -0.0005
     26 C          -1.1880   -3.6670    0.0000 C.ar    1  LIG1       -0.0001
     27 C          -0.6750   -4.5500    0.0000 C.ar    1  LIG1        0.0031
     28 C           0.3330   -4.5500    0.0000 C.ar    1  LIG1        0.0372
     29 C           3.2880   -2.8380    0.0000 C.ar    1  LIG1        0.0372
     30 C           3.8040   -1.9750    0.0000 C.ar    1  LIG1        0.0031
     31 C           3.2880   -1.1040    0.0000 C.ar    1  LIG1       -0.0001
     32 C           2.2790   -1.1040    0.0000 C.ar    1  LIG1       -0.0005
     33 O           0.8330   -0.2250    0.0000 O.2     1  LIG1       -0.2723
@<TRIPOS>BOND
     1     1     2   ar
     2     1     5   ar
     3     1    17    1
     4     2     3   ar
     5     2    14    1
     6     3     4   ar
     7     3    13    1
     8     4     5   ar
     9     4     6    1
    10     6     7   am
    11     6    12    2
    12     7     8    1
    13     7    10    1
    14     8     9    1
    15    10    11    1
    16    14    15    2
    17    14    16   am
    18    17    18   am
    19    18    19    1
    20    18    33    2
    21    19    20    1
    22    19    24    1
    23    20    21   ar
    24    20    32   ar
    25    21    22    1
    26    21    29   ar
    27    22    23    1
    28    23    24   ar
    29    23    28   ar
    30    24    25   ar
    31    25    26   ar
    32    26    27   ar
    33    27    28   ar
    34    29    30   ar
    35    30    31   ar
    36    31    32   ar
