@<TRIPOS>MOLECULE
28698_ChemDiv_2954-0029
 15 16 0 0 0
SMALL
GASTEIGER
Energy = 0

@<TRIPOS>ATOM
      1 C           0.8670    0.4960    0.0000 C.ar    1  LIG1        0.2628
      2 C          -0.0040    0.0080    0.0000 C.ar    1  LIG1        0.0959
      3 C          -0.8710    0.5210    0.0000 C.ar    1  LIG1        0.2063
      4 C          -1.7290    0.0080    0.0000 C.ar    1  LIG1        0.0741
      5 C          -1.7290   -0.9790    0.0000 C.ar    1  LIG1        0.0166
      6 C          -0.8710   -1.4830    0.0000 C.ar    1  LIG1        0.0354
      7 C          -0.0040   -0.9790    0.0000 C.ar    1  LIG1        0.0147
      8 BR         -0.8710   -2.4790    0.0000 Br      1  LIG1       -0.0490
      9 BR         -2.5920    0.4880    0.0000 Br      1  LIG1       -0.0457
     10 O          -0.8710    1.5170    0.0000 O.3     1  LIG1       -0.2859
     11 N           1.0330    1.5080    0.0000 N.ar    1  LIG1       -0.1910
     12 C           2.0750    1.6250    0.0000 C.ar    1  LIG1        0.1812
     13 N           2.4830    0.7170    0.0000 N.ar    1  LIG1       -0.0602
     14 O           1.7380    0.0580    0.0000 O.2     1  LIG1       -0.3327
     15 C           2.5880    2.4830    0.0000 C.3     1  LIG1        0.0773
@<TRIPOS>BOND
     1     1     2    1
     2     1    11   ar
     3     1    14   ar
     4     2     3   ar
     5     2     7   ar
     6     3     4   ar
     7     3    10    1
     8     4     5   ar
     9     4     9    1
    10     5     6   ar
    11     6     7   ar
    12     6     8    1
    13    11    12   ar
    14    12    13   ar
    15    12    15    1
    16    13    14   ar
