@<TRIPOS>MOLECULE
28694_ChemDiv_2946-0700
 22 24 0 0 0
SMALL
GASTEIGER
Energy = 0

@<TRIPOS>ATOM
      1 C           1.2920    0.2630    0.0000 C.ar    1  LIG1        0.1643
      2 C           1.2920   -0.7580    0.0000 C.ar    1  LIG1        0.0455
      3 C           2.1580   -1.2500    0.0000 C.ar    1  LIG1        0.0633
      4 N           3.0130   -0.7580    0.0000 N.ar    1  LIG1       -0.2349
      5 C           3.0130    0.2630    0.0000 C.ar    1  LIG1        0.1408
      6 N           2.1580    0.7630    0.0000 N.ar    1  LIG1       -0.2119
      7 C           3.8790    0.7630    0.0000 C.3     1  LIG1        0.0737
      8 C           2.1580   -2.2460    0.0000 C.3     1  LIG1        0.0522
      9 C           0.4290   -1.2500    0.0000 C.ar    1  LIG1       -0.0163
     10 C          -0.4330   -0.7580    0.0000 C.ar    1  LIG1        0.0152
     11 C          -0.4330    0.2630    0.0000 C.ar    1  LIG1        0.0866
     12 C          -1.2670    0.7630    0.0000 C.ar    1  LIG1        0.0661
     13 C          -2.1330    0.2630    0.0000 C.ar    1  LIG1        0.1735
     14 N          -3.0000    0.7630    0.0000 N.ar    1  LIG1       -0.2127
     15 C          -3.0000    1.7580    0.0000 C.ar    1  LIG1        0.1407
     16 N          -2.1080    2.2500    0.0000 N.ar    1  LIG1       -0.2348
     17 C          -1.2670    1.7580    0.0000 C.ar    1  LIG1        0.0649
     18 C          -0.3880    2.2500    0.0000 C.3     1  LIG1        0.0523
     19 C          -3.8830    2.2500    0.0000 C.3     1  LIG1        0.0737
     20 N          -2.1580   -0.7580    0.0000 N.pl3   1  LIG1       -0.1071
     21 N           0.4290    0.7630    0.0000 N.ar    1  LIG1       -0.2264
     22 C           0.4290   -2.2460    0.0000 C.3     1  LIG1        0.0312
@<TRIPOS>BOND
     1     1     2   ar
     2     1     6   ar
     3     1    21   ar
     4     2     3   ar
     5     2     9   ar
     6     3     4   ar
     7     3     8    1
     8     4     5   ar
     9     5     6   ar
    10     5     7    1
    11     9    10   ar
    12     9    22    1
    13    10    11   ar
    14    11    12    1
    15    11    21   ar
    16    12    13   ar
    17    12    17   ar
    18    13    14   ar
    19    13    20    1
    20    14    15   ar
    21    15    16   ar
    22    15    19    1
    23    16    17   ar
    24    17    18    1
