@<TRIPOS>MOLECULE
28699_ChemDiv_6049-2726
 29 32 0 0 0
SMALL
GASTEIGER
Energy = 0

@<TRIPOS>ATOM
      1 C          -0.3580    0.8790    0.0000 C.ar    1  LIG1        0.1084
      2 C          -1.3670    0.9790    0.0000 C.ar    1  LIG1        0.0933
      3 C          -1.5670    1.9500    0.0000 C.ar    1  LIG1       -0.0118
      4 C          -0.7040    2.4500    0.0000 C.ar    1  LIG1        0.0051
      5 S           0.0420    1.8040    0.0000 S.2     1  LIG1       -0.0749
      6 C          -0.5830    3.4580    0.0000 C.3     1  LIG1        0.0379
      7 C          -2.4830    2.3830    0.0000 C.3     1  LIG1        0.0315
      8 C          -2.0170    0.2500    0.0000 C.2     1  LIG1        0.3427
      9 O          -1.7330   -0.6920    0.0000 O.2     1  LIG1       -0.2448
     10 O          -2.9830    0.4750    0.0000 O.3     1  LIG1       -0.4454
     11 C          -3.6710   -0.2670    0.0000 C.3     1  LIG1        0.2089
     12 C          -4.6380   -0.0420    0.0000 C.3     1  LIG1        0.0513
     13 N           0.1330    0.0000    0.0000 N.am    1  LIG1       -0.1719
     14 C           1.1330    0.0000    0.0000 C.2     1  LIG1        0.2540
     15 C           1.6250   -0.8580    0.0000 C.3     1  LIG1        0.1288
     16 C           1.1130   -1.7210    0.0000 C.ar    1  LIG1        0.0250
     17 C           1.6170   -2.5920    0.0000 C.ar    1  LIG1        0.1420
     18 O           2.6080   -2.6000    0.0000 O.3     1  LIG1       -0.4541
     19 C           3.1290   -1.7290    0.0000 C.ar    1  LIG1        0.1420
     20 C           2.6250   -0.8670    0.0000 C.ar    1  LIG1        0.0250
     21 C           3.1290   -0.0080    0.0000 C.ar    1  LIG1       -0.0005
     22 C           4.1460   -0.0040    0.0000 C.ar    1  LIG1       -0.0001
     23 C           4.6330   -0.8790    0.0000 C.ar    1  LIG1        0.0031
     24 C           4.1290   -1.7290    0.0000 C.ar    1  LIG1        0.0372
     25 C           1.1130   -3.4540    0.0000 C.ar    1  LIG1        0.0372
     26 C           0.1000   -3.4540    0.0000 C.ar    1  LIG1        0.0031
     27 C          -0.3880   -2.5790    0.0000 C.ar    1  LIG1       -0.0001
     28 C           0.1210   -1.7210    0.0000 C.ar    1  LIG1       -0.0005
     29 O           1.6500    0.8630    0.0000 O.2     1  LIG1       -0.2723
@<TRIPOS>BOND
     1     1     2   ar
     2     1     5   ar
     3     1    13    1
     4     2     3   ar
     5     2     8    1
     6     3     4   ar
     7     3     7    1
     8     4     5   ar
     9     4     6    1
    10     8     9    2
    11     8    10    1
    12    10    11    1
    13    11    12    1
    14    13    14   am
    15    14    15    1
    16    14    29    2
    17    15    16    1
    18    15    20    1
    19    16    17   ar
    20    16    28   ar
    21    17    18    1
    22    17    25   ar
    23    18    19    1
    24    19    20   ar
    25    19    24   ar
    26    20    21   ar
    27    21    22   ar
    28    22    23   ar
    29    23    24   ar
    30    25    26   ar
    31    26    27   ar
    32    27    28   ar
