@<TRIPOS>MOLECULE
28695_ChemDiv_6048-0360
 34 37 0 0 0
SMALL
GASTEIGER
Energy = 0

@<TRIPOS>ATOM
      1 C          -1.1250   -0.2420    0.0000 C.ar    1  LIG1        0.1088
      2 C          -2.1170   -0.1000    0.0000 C.ar    1  LIG1        0.0937
      3 C          -2.2380    0.8710    0.0000 C.ar    1  LIG1       -0.0034
      4 C          -1.3460    1.3380    0.0000 C.ar    1  LIG1        0.0805
      5 S          -0.6080    0.6170    0.0000 S.2     1  LIG1       -0.0660
      6 C          -1.1710    2.3330    0.0000 C.2     1  LIG1        0.2548
      7 N          -1.9290    2.9130    0.0000 N.am    1  LIG1       -0.2757
      8 C          -2.8460    2.5460    0.0000 C.3     1  LIG1        0.0938
      9 C          -3.8000    3.1670    0.0000 C.3     1  LIG1        0.0233
     10 C          -1.7920    3.9130    0.0000 C.3     1  LIG1        0.0938
     11 C          -2.5750    4.5540    0.0000 C.3     1  LIG1        0.0233
     12 O          -0.2460    2.7250    0.0000 O.2     1  LIG1       -0.2694
     13 C          -3.0630    1.4380    0.0000 C.3     1  LIG1        0.0320
     14 C          -2.8250   -0.8080    0.0000 C.2     1  LIG1        0.3428
     15 O          -3.8170   -0.5500    0.0000 O.2     1  LIG1       -0.2448
     16 O          -2.4960   -1.7210    0.0000 O.3     1  LIG1       -0.4413
     17 C          -3.1130   -2.5080    0.0000 C.3     1  LIG1        0.2560
     18 N          -0.6500   -1.1250    0.0000 N.am    1  LIG1       -0.1719
     19 C           0.3500   -1.1250    0.0000 C.2     1  LIG1        0.2540
     20 C           0.8460   -1.9790    0.0000 C.3     1  LIG1        0.1288
     21 C           0.3500   -2.8250    0.0000 C.ar    1  LIG1        0.0250
     22 C           0.8580   -3.6960    0.0000 C.ar    1  LIG1        0.1420
     23 O           1.8330   -3.6960    0.0000 O.3     1  LIG1       -0.4541
     24 C           2.3330   -2.8380    0.0000 C.ar    1  LIG1        0.1420
     25 C           1.8330   -1.9790    0.0000 C.ar    1  LIG1        0.0250
     26 C           2.3000   -1.1380    0.0000 C.ar    1  LIG1       -0.0005
     27 C           3.3080   -1.1380    0.0000 C.ar    1  LIG1       -0.0001
     28 C           3.8130   -2.0000    0.0000 C.ar    1  LIG1        0.0031
     29 C           3.3080   -2.8540    0.0000 C.ar    1  LIG1        0.0372
     30 C           0.3540   -4.5540    0.0000 C.ar    1  LIG1        0.0372
     31 C          -0.6460   -4.5540    0.0000 C.ar    1  LIG1        0.0031
     32 C          -1.1540   -3.6830    0.0000 C.ar    1  LIG1       -0.0001
     33 C          -0.6460   -2.8250    0.0000 C.ar    1  LIG1       -0.0005
     34 O           0.8580   -0.2580    0.0000 O.2     1  LIG1       -0.2723
@<TRIPOS>BOND
     1     1     2   ar
     2     1     5   ar
     3     1    18    1
     4     2     3   ar
     5     2    14    1
     6     3     4   ar
     7     3    13    1
     8     4     5   ar
     9     4     6    1
    10     6     7   am
    11     6    12    2
    12     7     8    1
    13     7    10    1
    14     8     9    1
    15    10    11    1
    16    14    15    2
    17    14    16    1
    18    16    17    1
    19    18    19   am
    20    19    20    1
    21    19    34    2
    22    20    21    1
    23    20    25    1
    24    21    22   ar
    25    21    33   ar
    26    22    23    1
    27    22    30   ar
    28    23    24    1
    29    24    25   ar
    30    24    29   ar
    31    25    26   ar
    32    26    27   ar
    33    27    28   ar
    34    28    29   ar
    35    30    31   ar
    36    31    32   ar
    37    32    33   ar
