@<TRIPOS>MOLECULE
28693_ChemDiv_2889-7207
 32 35 0 0 0
SMALL
GASTEIGER
Energy = 0

@<TRIPOS>ATOM
      1 C          -1.1710   -0.1920    0.0000 C.ar    1  LIG1        0.1071
      2 C          -2.1580   -0.0500    0.0000 C.ar    1  LIG1        0.0748
      3 C          -2.2750    0.9380    0.0000 C.ar    1  LIG1       -0.0033
      4 C          -1.3830    1.3920    0.0000 C.ar    1  LIG1        0.1025
      5 S          -0.6500    0.6710    0.0000 S.2     1  LIG1       -0.0642
      6 C          -1.2170    2.3790    0.0000 C.2     1  LIG1        0.3469
      7 O          -2.0290    2.9250    0.0000 O.3     1  LIG1       -0.4489
      8 C          -1.9210    3.9420    0.0000 C.3     1  LIG1        0.1694
      9 C          -2.7380    4.5250    0.0000 C.3     1  LIG1        0.0473
     10 C          -1.0540    4.3830    0.0000 C.3     1  LIG1        0.0473
     11 O          -0.2750    2.7880    0.0000 O.2     1  LIG1       -0.2443
     12 C          -3.1080    1.4960    0.0000 C.3     1  LIG1        0.0320
     13 C          -2.8710   -0.7500    0.0000 C.2     1  LIG1        0.2856
     14 O          -3.8000   -0.4630    0.0000 O.2     1  LIG1       -0.2666
     15 N          -2.6460   -1.7380    0.0000 N.am    1  LIG1       -0.0837
     16 N          -0.7000   -1.0710    0.0000 N.am    1  LIG1       -0.1719
     17 C           0.3040   -1.0710    0.0000 C.2     1  LIG1        0.2540
     18 C           0.8080   -1.9290    0.0000 C.3     1  LIG1        0.1288
     19 C           0.3040   -2.7880    0.0000 C.ar    1  LIG1        0.0250
     20 C           0.8170   -3.6630    0.0000 C.ar    1  LIG1        0.1420
     21 O           1.8000   -3.6630    0.0000 O.3     1  LIG1       -0.4541
     22 C           2.3130   -2.7960    0.0000 C.ar    1  LIG1        0.1420
     23 C           1.8000   -1.9290    0.0000 C.ar    1  LIG1        0.0250
     24 C           2.2710   -1.0830    0.0000 C.ar    1  LIG1       -0.0005
     25 C           3.2830   -1.0830    0.0000 C.ar    1  LIG1       -0.0001
     26 C           3.7960   -1.9580    0.0000 C.ar    1  LIG1        0.0031
     27 C           3.2830   -2.8130    0.0000 C.ar    1  LIG1        0.0372
     28 C           0.3210   -4.5250    0.0000 C.ar    1  LIG1        0.0372
     29 C          -0.6880   -4.5250    0.0000 C.ar    1  LIG1        0.0031
     30 C          -1.2000   -3.6500    0.0000 C.ar    1  LIG1       -0.0001
     31 C          -0.6880   -2.7880    0.0000 C.ar    1  LIG1       -0.0005
     32 O           0.8170   -0.1960    0.0000 O.2     1  LIG1       -0.2723
@<TRIPOS>BOND
     1     1     2   ar
     2     1     5   ar
     3     1    16    1
     4     2     3   ar
     5     2    13    1
     6     3     4   ar
     7     3    12    1
     8     4     5   ar
     9     4     6    1
    10     6     7    1
    11     6    11    2
    12     7     8    1
    13     8     9    1
    14     8    10    1
    15    13    14    2
    16    13    15   am
    17    16    17   am
    18    17    18    1
    19    17    32    2
    20    18    19    1
    21    18    23    1
    22    19    20   ar
    23    19    31   ar
    24    20    21    1
    25    20    28   ar
    26    21    22    1
    27    22    23   ar
    28    22    27   ar
    29    23    24   ar
    30    24    25   ar
    31    25    26   ar
    32    26    27   ar
    33    28    29   ar
    34    29    30   ar
    35    30    31   ar
