@<TRIPOS>MOLECULE
28696_ChemDiv_2950-0596
 21 24 0 0 0
SMALL
GASTEIGER
Energy = 0

@<TRIPOS>ATOM
      1 C          -0.2290    0.6500    0.0000 C.ar    1  LIG1        0.4434
      2 N          -0.8040    1.4580    0.0000 N.ar    1  LIG1       -0.2253
      3 C          -1.7540    1.1460    0.0000 C.ar    1  LIG1        0.0871
      4 C          -1.7540    0.1540    0.0000 C.ar    1  LIG1        0.0832
      5 N          -0.8040   -0.1670    0.0000 N.ar    1  LIG1       -0.2492
      6 C          -0.4670   -1.1170    0.0000 C.3     1  LIG1        0.1401
      7 C           0.5250   -1.3130    0.0000 C.ar    1  LIG1        0.0006
      8 C           0.8420   -2.2880    0.0000 C.ar    1  LIG1       -0.0027
      9 C           1.8330   -2.4830    0.0000 C.ar    1  LIG1       -0.0045
     10 C           2.4790   -1.7130    0.0000 C.ar    1  LIG1       -0.0219
     11 C           2.1670   -0.7630    0.0000 C.ar    1  LIG1       -0.0045
     12 C           1.1960   -0.5630    0.0000 C.ar    1  LIG1       -0.0027
     13 C           3.4750   -1.8880    0.0000 C.3     1  LIG1        0.0310
     14 C          -2.6130   -0.3380    0.0000 C.ar    1  LIG1        0.0189
     15 C          -3.4790    0.1540    0.0000 C.ar    1  LIG1        0.0016
     16 C          -3.4790    1.1460    0.0000 C.ar    1  LIG1        0.0016
     17 C          -2.6130    1.6420    0.0000 C.ar    1  LIG1        0.0192
     18 C          -0.2080    2.2540    0.0000 C.ar    1  LIG1        0.1585
     19 C           0.7460    1.9380    0.0000 C.ar    1  LIG1        0.2960
     20 N           0.7460    0.9630    0.0000 N.ar    1  LIG1        0.1126
     21 C           1.5540    2.4880    0.0000 C.3     1  LIG1        0.1170
@<TRIPOS>BOND
     1     1     2   ar
     2     1     5   ar
     3     1    20   ar
     4     2     3   ar
     5     2    18   ar
     6     3     4   ar
     7     3    17   ar
     8     4     5   ar
     9     4    14   ar
    10     5     6    1
    11     6     7    1
    12     7     8   ar
    13     7    12   ar
    14     8     9   ar
    15     9    10   ar
    16    10    11   ar
    17    10    13    1
    18    11    12   ar
    19    14    15   ar
    20    15    16   ar
    21    16    17   ar
    22    18    19   ar
    23    19    20   ar
    24    19    21    1
