@<TRIPOS>MOLECULE
28692_ChemDiv_6623-0937
 19 20 0 0 0
SMALL
GASTEIGER
Energy = 0

@<TRIPOS>ATOM
      1 N          -1.2460    1.2960    0.0000 N.ar    1  LIG1       -0.2152
      2 C          -0.2500    1.2960    0.0000 C.ar    1  LIG1        0.1857
      3 N           0.2670    0.4460    0.0000 N.ar    1  LIG1       -0.2898
      4 C          -0.2500   -0.4420    0.0000 C.ar    1  LIG1        0.0482
      5 C          -1.2460   -0.4420    0.0000 C.ar    1  LIG1        0.0703
      6 C          -1.7330    0.4460    0.0000 C.ar    1  LIG1        0.1126
      7 S          -2.7290    0.4460    0.0000 S.3     1  LIG1       -0.0938
      8 C          -3.2420    1.2960    0.0000 C.3     1  LIG1        0.0757
      9 C          -1.7330   -1.2920    0.0000 C.2     1  LIG1        0.1765
     10 O          -1.2170   -2.1880    0.0000 O.2     1  LIG1       -0.2912
     11 C          -2.7290   -1.2920    0.0000 C.3     1  LIG1        0.0774
     12 C           0.2670   -1.2920    0.0000 C.3     1  LIG1        0.0506
     13 C           1.2380    0.4460    0.0000 C.ar    1  LIG1        0.0655
     14 C           1.7420   -0.4420    0.0000 C.ar    1  LIG1        0.0176
     15 C           2.7210   -0.4420    0.0000 C.ar    1  LIG1        0.0015
     16 C           3.2380    0.4460    0.0000 C.ar    1  LIG1        0.0001
     17 C           2.7210    1.2960    0.0000 C.ar    1  LIG1        0.0015
     18 C           1.7420    1.2960    0.0000 C.ar    1  LIG1        0.0176
     19 S           0.2670    2.1920    0.0000 S.2     1  LIG1       -0.0106
@<TRIPOS>BOND
     1     1     2   ar
     2     1     6   ar
     3     2     3   ar
     4     2    19    2
     5     3     4   ar
     6     3    13    1
     7     4     5   ar
     8     4    12    1
     9     5     6   ar
    10     5     9    1
    11     6     7    1
    12     7     8    1
    13     9    10    2
    14     9    11    1
    15    13    14   ar
    16    13    18   ar
    17    14    15   ar
    18    15    16   ar
    19    16    17   ar
    20    17    18   ar
