@<TRIPOS>MOLECULE
28690_ChemDiv_2946-0666
 20 21 0 0 0
SMALL
GASTEIGER
Energy = 0

@<TRIPOS>ATOM
      1 N           0.0000    1.7540    0.0000 N.ar    1  LIG1       -0.1856
      2 C           0.8630    1.2500    0.0000 C.ar    1  LIG1        0.3542
      3 N           0.8630    0.2420    0.0000 N.ar    1  LIG1       -0.2625
      4 C           0.0000   -0.2580    0.0000 C.ar    1  LIG1        0.0507
      5 C          -0.8500    0.2420    0.0000 C.ar    1  LIG1        0.0704
      6 C          -0.8500    1.2500    0.0000 C.ar    1  LIG1        0.1152
      7 S          -1.7250    1.7540    0.0000 S.3     1  LIG1       -0.0947
      8 C          -2.5960    1.2500    0.0000 C.3     1  LIG1        0.0637
      9 C          -3.4580    1.7540    0.0000 C.3     1  LIG1        0.0130
     10 C          -1.7250   -0.2580    0.0000 C.2     1  LIG1        0.1765
     11 O          -1.7250   -1.2540    0.0000 O.2     1  LIG1       -0.2912
     12 C          -2.5960    0.2420    0.0000 C.3     1  LIG1        0.0774
     13 C           0.0000   -1.2540    0.0000 C.3     1  LIG1        0.0507
     14 C           1.7210   -0.2580    0.0000 C.ar    1  LIG1        0.0680
     15 C           2.5920    0.2420    0.0000 C.ar    1  LIG1        0.0177
     16 C           3.4540   -0.2580    0.0000 C.ar    1  LIG1        0.0015
     17 C           3.4540   -1.2540    0.0000 C.ar    1  LIG1        0.0001
     18 C           2.5920   -1.7500    0.0000 C.ar    1  LIG1        0.0015
     19 C           1.7210   -1.2540    0.0000 C.ar    1  LIG1        0.0177
     20 O           1.7420    1.7540    0.0000 O.2     1  LIG1       -0.2441
@<TRIPOS>BOND
     1     1     2   ar
     2     1     6   ar
     3     2     3   ar
     4     2    20    2
     5     3     4   ar
     6     3    14    1
     7     4     5   ar
     8     4    13    1
     9     5     6   ar
    10     5    10    1
    11     6     7    1
    12     7     8    1
    13     8     9    1
    14    10    11    2
    15    10    12    1
    16    14    15   ar
    17    14    19   ar
    18    15    16   ar
    19    16    17   ar
    20    17    18   ar
    21    18    19   ar
