@<TRIPOS>MOLECULE
28704_ChemDiv_7062-0621
 24 27 0 0 0
SMALL
GASTEIGER
Energy = 0

@<TRIPOS>ATOM
      1 N           1.1630    0.0250    0.0000 N.ar    1  LIG1       -0.1868
      2 C           1.0580   -0.9670    0.0000 C.ar    1  LIG1        0.2082
      3 C           0.1880   -1.4630    0.0000 C.ar    1  LIG1        0.0969
      4 C           0.1880   -2.4670    0.0000 C.ar    1  LIG1        0.2822
      5 N          -0.6790   -2.9670    0.0000 N.ar    1  LIG1       -0.2078
      6 C          -1.5460   -2.4670    0.0000 C.ar    1  LIG1        0.0842
      7 C          -1.5460   -1.4630    0.0000 C.ar    1  LIG1        0.0180
      8 C          -0.6790   -0.9670    0.0000 C.ar    1  LIG1        0.0095
      9 C          -2.4080   -0.9670    0.0000 C.ar    1  LIG1        0.0012
     10 C          -3.2750   -1.4630    0.0000 C.ar    1  LIG1       -0.0042
     11 C          -3.2750   -2.4670    0.0000 C.ar    1  LIG1       -0.0204
     12 C          -2.4080   -2.9670    0.0000 C.ar    1  LIG1        0.0150
     13 C          -4.1380   -2.9670    0.0000 C.3     1  LIG1        0.0311
     14 O           1.0580   -2.9670    0.0000 O.3     1  LIG1       -0.2651
     15 N           1.9710   -1.3710    0.0000 N.ar    1  LIG1       -0.0555
     16 O           2.6420   -0.6290    0.0000 O.2     1  LIG1       -0.3324
     17 C           2.1380    0.2330    0.0000 C.ar    1  LIG1        0.2604
     18 C           2.5460    1.1420    0.0000 C.ar    1  LIG1        0.0623
     19 C           3.5420    1.2540    0.0000 C.ar    1  LIG1        0.0391
     20 BR          4.1330    0.4420    0.0000 Br      1  LIG1       -0.0488
     21 C           3.9460    2.1630    0.0000 C.ar    1  LIG1        0.0068
     22 C           3.3580    2.9710    0.0000 C.ar    1  LIG1        0.0005
     23 C           2.3630    2.8670    0.0000 C.ar    1  LIG1        0.0002
     24 C           1.9580    1.9540    0.0000 C.ar    1  LIG1        0.0052
@<TRIPOS>BOND
     1     1     2   ar
     2     1    17   ar
     3     2     3    1
     4     2    15   ar
     5     3     4   ar
     6     3     8   ar
     7     4     5   ar
     8     4    14    1
     9     5     6   ar
    10     6     7   ar
    11     6    12   ar
    12     7     8   ar
    13     7     9   ar
    14     9    10   ar
    15    10    11   ar
    16    11    12   ar
    17    11    13    1
    18    15    16   ar
    19    16    17   ar
    20    17    18    1
    21    18    19   ar
    22    18    24   ar
    23    19    20    1
    24    19    21   ar
    25    21    22   ar
    26    22    23   ar
    27    23    24   ar
