@<TRIPOS>MOLECULE
28708_ChemDiv_6992-0623
 27 30 0 0 0
SMALL
GASTEIGER
Energy = 0

@<TRIPOS>ATOM
      1 N          -2.0540    1.2290    0.0000 N.am    1  LIG1       -0.2439
      2 C          -2.9420    0.7290    0.0000 C.ar    1  LIG1        0.0894
      3 C          -3.8080    1.2460    0.0000 C.ar    1  LIG1        0.1529
      4 O          -3.8080    2.2580    0.0000 O.3     1  LIG1       -0.4643
      5 C          -2.9210    2.7580    0.0000 C.3     1  LIG1        0.2900
      6 C          -2.0540    2.2420    0.0000 C.2     1  LIG1        0.2744
      7 O          -1.1710    2.7290    0.0000 O.2     1  LIG1       -0.2705
      8 C          -4.6830    0.7580    0.0000 C.ar    1  LIG1        0.0391
      9 C          -4.6960   -0.2380    0.0000 C.ar    1  LIG1        0.0146
     10 C          -3.8290   -0.7540    0.0000 C.ar    1  LIG1        0.0591
     11 C          -2.9540   -0.2710    0.0000 C.ar    1  LIG1        0.0294
     12 CL         -3.8460   -1.7670    0.0000 Cl      1  LIG1       -0.0822
     13 C          -1.2000    0.7000    0.0000 C.3     1  LIG1        0.1835
     14 C          -0.4750    1.0500    0.0000 C.2     1  LIG1        0.2464
     15 N           0.4210    0.5250    0.0000 N.am    1  LIG1       -0.2746
     16 C           0.3500   -0.4960    0.0000 C.3     1  LIG1        0.1149
     17 C           1.2080   -1.0750    0.0000 C.3     1  LIG1        0.1123
     18 N           2.1210   -0.6210    0.0000 N.pl3   1  LIG1       -0.3041
     19 C           2.2000    0.4080    0.0000 C.3     1  LIG1        0.1123
     20 C           1.3460    0.9880    0.0000 C.3     1  LIG1        0.1149
     21 C           2.9630   -1.1790    0.0000 C.ar    1  LIG1        0.0479
     22 C           2.8880   -2.1920    0.0000 C.ar    1  LIG1        0.0145
     23 C           3.7290   -2.7540    0.0000 C.ar    1  LIG1        0.0013
     24 C           4.6290   -2.3130    0.0000 C.ar    1  LIG1        0.0001
     25 C           4.6920   -1.3040    0.0000 C.ar    1  LIG1        0.0013
     26 C           3.8670   -0.7420    0.0000 C.ar    1  LIG1        0.0145
     27 O          -0.4170    1.8540    0.0000 O.2     1  LIG1       -0.2730
@<TRIPOS>BOND
     1     1     2    1
     2     1     6   am
     3     1    13    1
     4     2     3   ar
     5     2    11   ar
     6     3     4    1
     7     3     8   ar
     8     4     5    1
     9     5     6    1
    10     6     7    2
    11     8     9   ar
    12     9    10   ar
    13    10    11   ar
    14    10    12    1
    15    13    14    1
    16    14    15   am
    17    14    27    2
    18    15    16    1
    19    15    20    1
    20    16    17    1
    21    17    18    1
    22    18    19    1
    23    18    21    1
    24    19    20    1
    25    21    22   ar
    26    21    26   ar
    27    22    23   ar
    28    23    24   ar
    29    24    25   ar
    30    25    26   ar
