@<TRIPOS>MOLECULE
28702_ChemDiv_6652-0761
 20 22 0 0 0
SMALL
GASTEIGER
Energy = 0

@<TRIPOS>ATOM
      1 N           0.1420   -0.4920    0.0000 N.ar    1  LIG1       -0.1870
      2 C          -0.5290   -1.2250    0.0000 C.ar    1  LIG1        0.2036
      3 N          -0.0330   -2.1040    0.0000 N.ar    1  LIG1       -0.0556
      4 O           0.9460   -1.8920    0.0000 O.2     1  LIG1       -0.3324
      5 C           1.0500   -0.8960    0.0000 C.ar    1  LIG1        0.2599
      6 C           1.9080   -0.3960    0.0000 C.ar    1  LIG1        0.0555
      7 C           1.9080    0.6080    0.0000 C.ar    1  LIG1        0.0005
      8 C           2.7710    1.1130    0.0000 C.ar    1  LIG1       -0.0220
      9 C           3.6460    0.6250    0.0000 C.ar    1  LIG1       -0.0085
     10 C           3.6460   -0.3830    0.0000 C.ar    1  LIG1       -0.0220
     11 C           2.7790   -0.8830    0.0000 C.ar    1  LIG1        0.0005
     12 C           4.5040   -0.8750    0.0000 C.3     1  LIG1        0.0310
     13 C           2.7630    2.1080    0.0000 C.3     1  LIG1        0.0310
     14 C          -1.5250   -1.1080    0.0000 C.ar    1  LIG1        0.0391
     15 C          -2.1170   -1.9170    0.0000 C.ar    1  LIG1        0.0037
     16 C          -3.1130   -1.8040    0.0000 C.ar    1  LIG1        0.0068
     17 C          -3.5130   -0.8920    0.0000 C.ar    1  LIG1        0.0346
     18 C          -2.9250   -0.0830    0.0000 C.ar    1  LIG1        0.0068
     19 C          -1.9290   -0.1880    0.0000 C.ar    1  LIG1        0.0037
     20 BR         -4.5080   -0.7750    0.0000 Br      1  LIG1       -0.0490
@<TRIPOS>BOND
     1     1     2   ar
     2     1     5   ar
     3     2     3   ar
     4     2    14    1
     5     3     4   ar
     6     4     5   ar
     7     5     6    1
     8     6     7   ar
     9     6    11   ar
    10     7     8   ar
    11     8     9   ar
    12     8    13    1
    13     9    10   ar
    14    10    11   ar
    15    10    12    1
    16    14    15   ar
    17    14    19   ar
    18    15    16   ar
    19    16    17   ar
    20    17    18   ar
    21    17    20    1
    22    18    19   ar
