@<TRIPOS>MOLECULE
28709_ChemDiv_6466-1257
 28 31 0 0 0
SMALL
GASTEIGER
Energy = 0

@<TRIPOS>ATOM
      1 C           1.2210   -2.3750    0.0000 C.ar    1  LIG1        0.2405
      2 N           1.7380   -3.2380    0.0000 N.ar    1  LIG1       -0.1849
      3 C           2.6920   -3.0210    0.0000 C.ar    1  LIG1        0.2547
      4 N           2.8210   -2.0290    0.0000 N.ar    1  LIG1       -0.1934
      5 N           1.8920   -1.6170    0.0000 N.ar    1  LIG1       -0.1381
      6 C           3.7210   -1.6170    0.0000 C.ar    1  LIG1        0.1052
      7 C           4.5460   -2.2170    0.0000 C.ar    1  LIG1        0.0415
      8 C           4.4210   -3.2000    0.0000 C.ar    1  LIG1        0.1037
      9 N           3.5130   -3.6130    0.0000 N.ar    1  LIG1       -0.2084
     10 C           0.2170   -2.3750    0.0000 C.2     1  LIG1        0.3072
     11 N          -0.2750   -1.5130    0.0000 N.am    1  LIG1       -0.1660
     12 C          -1.2670   -1.5130    0.0000 C.ar    1  LIG1        0.1087
     13 C          -1.8670   -0.7080    0.0000 C.ar    1  LIG1        0.0933
     14 C          -1.5580    0.2540    0.0000 C.2     1  LIG1        0.3426
     15 O          -2.2290    1.0040    0.0000 O.3     1  LIG1       -0.4492
     16 C          -1.9170    1.9330    0.0000 C.3     1  LIG1        0.1693
     17 C          -2.5880    2.6960    0.0000 C.3     1  LIG1        0.0436
     18 C          -2.2790    3.6170    0.0000 C.3     1  LIG1        0.0038
     19 C          -0.9210    2.1540    0.0000 C.3     1  LIG1        0.0473
     20 O          -0.5750    0.4670    0.0000 O.2     1  LIG1       -0.2448
     21 C          -2.8170   -1.0290    0.0000 C.ar    1  LIG1       -0.0121
     22 C          -2.8170   -2.0170    0.0000 C.ar    1  LIG1        0.0048
     23 S          -1.8670   -2.3210    0.0000 S.2     1  LIG1       -0.0749
     24 C          -3.6960   -2.5130    0.0000 C.3     1  LIG1        0.0327
     25 C          -4.5500   -2.0170    0.0000 C.3     1  LIG1        0.0055
     26 C          -4.5500   -1.0290    0.0000 C.3     1  LIG1        0.0050
     27 C          -3.6960   -0.5290    0.0000 C.3     1  LIG1        0.0268
     28 O          -0.2750   -3.2380    0.0000 O.2     1  LIG1       -0.2645
@<TRIPOS>BOND
     1     1     2   ar
     2     1     5   ar
     3     1    10    1
     4     2     3   ar
     5     3     4   ar
     6     3     9   ar
     7     4     5   ar
     8     4     6   ar
     9     6     7   ar
    10     7     8   ar
    11     8     9   ar
    12    10    11   am
    13    10    28    2
    14    11    12    1
    15    12    13   ar
    16    12    23   ar
    17    13    14    1
    18    13    21   ar
    19    14    15    1
    20    14    20    2
    21    15    16    1
    22    16    17    1
    23    16    19    1
    24    17    18    1
    25    21    22   ar
    26    21    27    1
    27    22    23   ar
    28    22    24    1
    29    24    25    1
    30    25    26    1
    31    26    27    1
