@<TRIPOS>MOLECULE
28706_ChemDiv_6952-4016
 22 24 0 0 0
SMALL
GASTEIGER
Energy = 0

@<TRIPOS>ATOM
      1 N          -0.6750    1.0920    0.0000 N.am    1  LIG1       -0.2438
      2 C          -1.6460    0.9080    0.0000 C.ar    1  LIG1        0.0894
      3 C          -2.2960    1.6670    0.0000 C.ar    1  LIG1        0.1529
      4 O          -1.9670    2.6170    0.0000 O.3     1  LIG1       -0.4643
      5 C          -0.9750    2.7880    0.0000 C.3     1  LIG1        0.2900
      6 C          -0.3250    2.0250    0.0000 C.2     1  LIG1        0.2744
      7 O           0.6460    2.2080    0.0000 O.2     1  LIG1       -0.2705
      8 C          -3.2790    1.4960    0.0000 C.ar    1  LIG1        0.0391
      9 C          -3.6080    0.5630    0.0000 C.ar    1  LIG1        0.0146
     10 C          -2.9750   -0.1920    0.0000 C.ar    1  LIG1        0.0591
     11 C          -1.9920   -0.0290    0.0000 C.ar    1  LIG1        0.0294
     12 CL         -3.3080   -1.1420    0.0000 Cl      1  LIG1       -0.0822
     13 C          -0.4170    0.1250    0.0000 C.3     1  LIG1        0.1851
     14 C           0.5380   -0.1880    0.0000 C.2     1  LIG1        0.2619
     15 N           0.7460   -1.1630    0.0000 N.am    1  LIG1       -0.2057
     16 C           1.7000   -1.4790    0.0000 C.3     1  LIG1        0.0954
     17 C           2.4460   -0.8130    0.0000 C.3     1  LIG1        0.0217
     18 C           3.3920   -1.1170    0.0000 C.3     1  LIG1        0.0018
     19 C           3.6040   -2.1130    0.0000 C.3     1  LIG1        0.0001
     20 C           2.8500   -2.7830    0.0000 C.3     1  LIG1        0.0018
     21 C           1.9000   -2.4670    0.0000 C.3     1  LIG1        0.0217
     22 O           1.2880    0.4750    0.0000 O.2     1  LIG1       -0.2715
@<TRIPOS>BOND
     1     1     2    1
     2     1     6   am
     3     1    13    1
     4     2     3   ar
     5     2    11   ar
     6     3     4    1
     7     3     8   ar
     8     4     5    1
     9     5     6    1
    10     6     7    2
    11     8     9   ar
    12     9    10   ar
    13    10    11   ar
    14    10    12    1
    15    13    14    1
    16    14    15   am
    17    14    22    2
    18    15    16    1
    19    16    17    1
    20    16    21    1
    21    17    18    1
    22    18    19    1
    23    19    20    1
    24    20    21    1
