@<TRIPOS>MOLECULE
28719_ChemDiv_8012-3426
 24 26 0 0 0
SMALL
GASTEIGER
Energy = 0

@<TRIPOS>ATOM
      1 N          -0.4080    0.5170    0.0000 N.ar    1  LIG1       -0.2492
      2 C           0.4460    0.9790    0.0000 C.ar    1  LIG1        0.0865
      3 C           1.3130    0.5170    0.0000 C.ar    1  LIG1        0.0433
      4 S           1.3130   -0.5000    0.0000 S.3     1  LIG1       -0.1023
      5 C           2.1830   -1.0130    0.0000 C.3     1  LIG1        0.1491
      6 C           2.1830   -1.9920    0.0000 C.2     1  LIG1        0.2569
      7 N           1.3130   -2.5000    0.0000 N.am    1  LIG1       -0.1785
      8 C           0.4460   -2.0290    0.0000 C.ar    1  LIG1        0.0734
      9 C          -0.4080   -2.5000    0.0000 C.ar    1  LIG1        0.0163
     10 C          -1.2750   -1.9920    0.0000 C.ar    1  LIG1       -0.0029
     11 C          -1.2750   -1.0130    0.0000 C.ar    1  LIG1       -0.0221
     12 C          -0.4080   -0.5000    0.0000 C.ar    1  LIG1       -0.0029
     13 C           0.4460   -1.0130    0.0000 C.ar    1  LIG1        0.0163
     14 C          -2.1790   -0.5460    0.0000 C.3     1  LIG1        0.0264
     15 C          -3.0460   -1.1040    0.0000 C.3     1  LIG1        0.0050
     16 O           3.0420   -2.5000    0.0000 O.2     1  LIG1       -0.2720
     17 C           2.1830    1.0250    0.0000 C.ar    1  LIG1        0.0077
     18 C           2.1830    2.0040    0.0000 C.ar    1  LIG1        0.0006
     19 C           1.3130    2.5040    0.0000 C.ar    1  LIG1        0.0015
     20 C           0.4460    2.0040    0.0000 C.ar    1  LIG1        0.0182
     21 C          -0.4080    2.5040    0.0000 C.ar    1  LIG1        0.0027
     22 C          -1.2750    2.0040    0.0000 C.ar    1  LIG1        0.0147
     23 C          -1.2750    1.0250    0.0000 C.ar    1  LIG1        0.0594
     24 C          -2.1790    0.5170    0.0000 C.3     1  LIG1        0.0521
@<TRIPOS>BOND
     1     1     2   ar
     2     1    23   ar
     3     2     3   ar
     4     2    20   ar
     5     3     4    1
     6     3    17   ar
     7     4     5    1
     8     5     6    1
     9     6     7   am
    10     6    16    2
    11     7     8    1
    12     8     9   ar
    13     8    13   ar
    14     9    10   ar
    15    10    11   ar
    16    11    12   ar
    17    11    14    1
    18    12    13   ar
    19    14    15    1
    20    17    18   ar
    21    18    19   ar
    22    19    20   ar
    23    20    21   ar
    24    21    22   ar
    25    22    23   ar
    26    23    24    1
