@<TRIPOS>MOLECULE
28710_ChemDiv_7445-0084
 29 33 0 0 0
SMALL
GASTEIGER
Energy = 0

@<TRIPOS>ATOM
      1 N          -1.0000    1.0420    0.0000 N.am    1  LIG1       -0.2438
      2 C          -1.9750    0.8330    0.0000 C.ar    1  LIG1        0.0894
      3 C          -2.6420    1.5880    0.0000 C.ar    1  LIG1        0.1529
      4 O          -2.3330    2.5330    0.0000 O.3     1  LIG1       -0.4643
      5 C          -1.3670    2.7420    0.0000 C.3     1  LIG1        0.2900
      6 C          -0.6830    1.9960    0.0000 C.2     1  LIG1        0.2744
      7 O           0.3000    2.2000    0.0000 O.2     1  LIG1       -0.2705
      8 C          -3.6210    1.3750    0.0000 C.ar    1  LIG1        0.0391
      9 C          -3.9290    0.4210    0.0000 C.ar    1  LIG1        0.0146
     10 C          -3.2710   -0.3250    0.0000 C.ar    1  LIG1        0.0591
     11 C          -2.2880   -0.1210    0.0000 C.ar    1  LIG1        0.0294
     12 CL         -3.5790   -1.2750    0.0000 Cl      1  LIG1       -0.0822
     13 C          -0.3330    0.2960    0.0000 C.3     1  LIG1        0.1851
     14 C          -0.6380   -0.6580    0.0000 C.2     1  LIG1        0.2619
     15 N           0.0290   -1.4000    0.0000 N.am    1  LIG1       -0.2074
     16 C           1.0000   -1.1960    0.0000 C.3     1  LIG1        0.0778
     17 C           1.9290   -1.6710    0.0000 C.3     1  LIG1        0.0161
     18 C           2.9330   -1.4330    0.0000 C.3     1  LIG1       -0.0181
     19 C           3.4290   -2.3250    0.0000 C.3     1  LIG1       -0.0078
     20 C           2.4420   -1.7500    0.0000 C.3     1  LIG1       -0.0181
     21 C           1.4960   -1.9750    0.0000 C.3     1  LIG1        0.0161
     22 C           2.5460   -0.8380    0.0000 C.3     1  LIG1       -0.0078
     23 C           2.1250   -0.0040    0.0000 C.3     1  LIG1       -0.0181
     24 C           1.1540   -0.2290    0.0000 C.3     1  LIG1        0.0161
     25 C           3.0790   -0.4580    0.0000 C.3     1  LIG1       -0.0078
     26 O          -1.6210   -0.8630    0.0000 O.2     1  LIG1       -0.2715
     27 H           3.9250   -1.2670    0.0000 H       1  LIG1        0.0319
     28 H           2.2920   -2.7380    0.0000 H       1  LIG1        0.0319
     29 H           2.2460    0.9790    0.0000 H       1  LIG1        0.0319
@<TRIPOS>BOND
     1     1     2    1
     2     1     6   am
     3     1    13    1
     4     2     3   ar
     5     2    11   ar
     6     3     4    1
     7     3     8   ar
     8     4     5    1
     9     5     6    1
    10     6     7    2
    11     8     9   ar
    12     9    10   ar
    13    10    11   ar
    14    10    12    1
    15    13    14    1
    16    14    15   am
    17    14    26    2
    18    16    15    1
    19    16    17    1
    20    16    21    1
    21    16    24    1
    22    17    18    1
    23    18    19    1
    24    18    25    1
    25    18    27    1
    26    19    20    1
    27    20    21    1
    28    20    22    1
    29    20    28    1
    30    22    23    1
    31    23    24    1
    32    23    25    1
    33    23    29    1
