@<TRIPOS>MOLECULE
28714_ChemDiv_7706-0510
 25 27 0 0 0
SMALL
GASTEIGER
Energy = 0

@<TRIPOS>ATOM
      1 N          -0.4250    2.0920    0.0000 N.pl3   1  LIG1       -0.2878
      2 C          -1.3000    2.4830    0.0000 C.ar    1  LIG1        0.0837
      3 C          -1.3080    3.4920    0.0000 C.ar    1  LIG1        0.1617
      4 O          -0.4460    4.0000    0.0000 O.3     1  LIG1       -0.4217
      5 C           0.4380    3.5040    0.0000 C.2     1  LIG1        0.3420
      6 C           0.4420    2.4920    0.0000 C.3     1  LIG1        0.2028
      7 O           1.2920    4.0000    0.0000 O.2     1  LIG1       -0.2478
      8 C          -2.1830    3.9920    0.0000 C.ar    1  LIG1        0.0389
      9 C          -3.0420    3.4920    0.0000 C.ar    1  LIG1        0.0032
     10 C          -3.0420    2.4830    0.0000 C.ar    1  LIG1        0.0015
     11 C          -2.1830    1.9830    0.0000 C.ar    1  LIG1        0.0176
     12 C          -0.4250    0.9920    0.0000 C.3     1  LIG1        0.1796
     13 C           0.4380    0.4920    0.0000 C.2     1  LIG1        0.2658
     14 N           0.4790   -0.4790    0.0000 N.am    1  LIG1       -0.1769
     15 C           1.3040   -1.0040    0.0000 C.ar    1  LIG1        0.0840
     16 C           1.3040   -2.0040    0.0000 C.ar    1  LIG1        0.0186
     17 C           2.1670   -2.4920    0.0000 C.ar    1  LIG1        0.0153
     18 C           2.1670   -3.5000    0.0000 C.2     1  LIG1        0.0729
     19 O           3.0380   -4.0000    0.0000 O.co2   1  LIG1       -0.5446
     20 O           1.3040   -4.0000    0.0000 O.co2   1  LIG1       -0.5446
     21 C           3.0250   -1.9920    0.0000 C.ar    1  LIG1        0.0021
     22 C           3.0250   -0.9920    0.0000 C.ar    1  LIG1        0.0127
     23 C           2.1630   -0.4920    0.0000 C.ar    1  LIG1        0.0729
     24 CL          2.1500    0.5040    0.0000 Cl      1  LIG1       -0.0809
     25 O           1.3040    0.9920    0.0000 O.2     1  LIG1       -0.2711
@<TRIPOS>BOND
     1     1     2    1
     2     1     6    1
     3     1    12    1
     4     2     3   ar
     5     2    11   ar
     6     3     4    1
     7     3     8   ar
     8     4     5    1
     9     5     6    1
    10     5     7    2
    11     8     9   ar
    12     9    10   ar
    13    10    11   ar
    14    12    13    1
    15    13    14   am
    16    13    25    2
    17    14    15    1
    18    15    16   ar
    19    15    23   ar
    20    16    17   ar
    21    17    18    1
    22    17    21   ar
    23    18    19   ar
    24    18    20   ar
    25    21    22   ar
    26    22    23   ar
    27    23    24    1
