@<TRIPOS>MOLECULE
28716_ChemDiv_7706-0530
 20 22 0 0 0
SMALL
GASTEIGER
Energy = 0

@<TRIPOS>ATOM
      1 N           0.3960    1.3000    0.0000 N.pl3   1  LIG1       -0.2879
      2 C          -0.4750    1.7040    0.0000 C.ar    1  LIG1        0.0837
      3 C          -0.4750    2.7250    0.0000 C.ar    1  LIG1        0.1617
      4 O           0.3830    3.2380    0.0000 O.3     1  LIG1       -0.4217
      5 C           1.2580    2.7250    0.0000 C.2     1  LIG1        0.3420
      6 C           1.2710    1.7130    0.0000 C.3     1  LIG1        0.2028
      7 O           2.1330    3.2250    0.0000 O.2     1  LIG1       -0.2478
      8 C          -1.3540    3.2250    0.0000 C.ar    1  LIG1        0.0389
      9 C          -2.2250    2.7250    0.0000 C.ar    1  LIG1        0.0032
     10 C          -2.2250    1.7040    0.0000 C.ar    1  LIG1        0.0015
     11 C          -1.3540    1.2040    0.0000 C.ar    1  LIG1        0.0176
     12 C           0.3960    0.1920    0.0000 C.3     1  LIG1        0.1777
     13 C           1.2580   -0.3040    0.0000 C.2     1  LIG1        0.2460
     14 N           1.3080   -1.2790    0.0000 N.am    1  LIG1       -0.2730
     15 C           0.4830   -1.8080    0.0000 C.3     1  LIG1        0.1255
     16 C           0.5290   -2.7790    0.0000 C.3     1  LIG1        0.1636
     17 O           1.3960   -3.2330    0.0000 O.3     1  LIG1       -0.3501
     18 C           2.2210   -2.7080    0.0000 C.3     1  LIG1        0.1636
     19 C           2.1830   -1.7330    0.0000 C.3     1  LIG1        0.1255
     20 O           2.1420    0.2040    0.0000 O.2     1  LIG1       -0.2730
@<TRIPOS>BOND
     1     1     2    1
     2     1     6    1
     3     1    12    1
     4     2     3   ar
     5     2    11   ar
     6     3     4    1
     7     3     8   ar
     8     4     5    1
     9     5     6    1
    10     5     7    2
    11     8     9   ar
    12     9    10   ar
    13    10    11   ar
    14    12    13    1
    15    13    14   am
    16    13    20    2
    17    14    15    1
    18    14    19    1
    19    15    16    1
    20    16    17    1
    21    17    18    1
    22    18    19    1
