@<TRIPOS>MOLECULE
28713_ChemDiv_D244-0063
 33 36 0 0 0
SMALL
GASTEIGER
Energy = 0

@<TRIPOS>ATOM
      1 C          -2.1170   -0.3920    0.0000 C.ar    1  LIG1        0.0866
      2 C          -2.7080    0.4170    0.0000 C.ar    1  LIG1        0.0915
      3 C          -3.6630    0.1080    0.0000 C.ar    1  LIG1       -0.0122
      4 C          -3.6630   -0.8920    0.0000 C.ar    1  LIG1        0.0047
      5 S          -2.7250   -1.2040    0.0000 S.2     1  LIG1       -0.0767
      6 C          -4.5290   -1.3880    0.0000 C.3     1  LIG1        0.0327
      7 C          -5.3920   -0.8790    0.0000 C.3     1  LIG1        0.0055
      8 C          -5.3920    0.1250    0.0000 C.3     1  LIG1        0.0050
      9 C          -4.5170    0.6130    0.0000 C.3     1  LIG1        0.0268
     10 C          -2.4040    1.3670    0.0000 C.2     1  LIG1        0.3427
     11 O          -3.0710    2.1080    0.0000 O.2     1  LIG1       -0.2448
     12 O          -1.4210    1.5790    0.0000 O.3     1  LIG1       -0.4413
     13 C          -1.1080    2.5250    0.0000 C.3     1  LIG1        0.2560
     14 N          -1.1170   -0.4000    0.0000 N.am    1  LIG1       -0.2740
     15 C          -0.6290   -1.2670    0.0000 C.2     1  LIG1        0.2686
     16 C           0.3710   -1.2710    0.0000 C.ar    1  LIG1        0.1489
     17 N           0.8790   -0.4170    0.0000 N.ar    1  LIG1       -0.2157
     18 C           1.8790   -0.4210    0.0000 C.ar    1  LIG1        0.1905
     19 N           2.3710   -1.2960    0.0000 N.ar    1  LIG1       -0.2187
     20 C           1.8670   -2.1670    0.0000 C.ar    1  LIG1        0.1141
     21 C           0.8670   -2.1500    0.0000 C.ar    1  LIG1        0.0989
     22 CL          0.3540   -3.0170    0.0000 Cl      1  LIG1       -0.0789
     23 S           2.3880    0.4420    0.0000 S.3     1  LIG1       -0.0709
     24 C           3.3830    0.4420    0.0000 C.3     1  LIG1        0.0910
     25 C           3.8880    1.2960    0.0000 C.ar    1  LIG1       -0.0148
     26 C           4.8830    1.2920    0.0000 C.ar    1  LIG1       -0.0250
     27 C           5.3710    0.4170    0.0000 C.3     1  LIG1        0.0307
     28 C           5.3880    2.1460    0.0000 C.ar    1  LIG1       -0.0045
     29 C           4.8960    3.0210    0.0000 C.ar    1  LIG1       -0.0003
     30 C           3.8880    3.0210    0.0000 C.ar    1  LIG1       -0.0003
     31 C           3.3880    2.1580    0.0000 C.ar    1  LIG1       -0.0037
     32 O          -1.1330   -2.1290    0.0000 O.2     1  LIG1       -0.2681
     33 H          -0.6170    0.4630    0.0000 H       1  LIG1        0.1557
@<TRIPOS>BOND
     1     1     2   ar
     2     1     5   ar
     3     1    14    1
     4     2     3   ar
     5     2    10    1
     6     3     4   ar
     7     3     9    1
     8     4     5   ar
     9     4     6    1
    10     6     7    1
    11     7     8    1
    12     8     9    1
    13    10    11    2
    14    10    12    1
    15    12    13    1
    16    14    15   am
    17    14    33    1
    18    15    16    1
    19    15    32    2
    20    16    17   ar
    21    16    21   ar
    22    17    18   ar
    23    18    19   ar
    24    18    23    1
    25    19    20   ar
    26    20    21   ar
    27    21    22    1
    28    23    24    1
    29    24    25    1
    30    25    26   ar
    31    25    31   ar
    32    26    27    1
    33    26    28   ar
    34    28    29   ar
    35    29    30   ar
    36    30    31   ar
