@<TRIPOS>MOLECULE
28712_ChemDiv_7706-0501
 24 27 0 0 0
SMALL
GASTEIGER
Energy = 0

@<TRIPOS>ATOM
      1 N          -0.7420    1.9130    0.0000 N.pl3   1  LIG1       -0.2878
      2 C          -1.6290    2.3130    0.0000 C.ar    1  LIG1        0.0837
      3 C          -1.6290    3.3250    0.0000 C.ar    1  LIG1        0.1617
      4 O          -0.7580    3.8420    0.0000 O.3     1  LIG1       -0.4217
      5 C           0.1330    3.3290    0.0000 C.2     1  LIG1        0.3420
      6 C           0.1330    2.3130    0.0000 C.3     1  LIG1        0.2028
      7 O           1.0000    3.8380    0.0000 O.2     1  LIG1       -0.2478
      8 C          -2.5040    3.8250    0.0000 C.ar    1  LIG1        0.0389
      9 C          -3.3790    3.3250    0.0000 C.ar    1  LIG1        0.0032
     10 C          -3.3790    2.3130    0.0000 C.ar    1  LIG1        0.0015
     11 C          -2.5040    1.8040    0.0000 C.ar    1  LIG1        0.0176
     12 C          -0.7420    0.8000    0.0000 C.3     1  LIG1        0.1796
     13 C           0.1330    0.2920    0.0000 C.2     1  LIG1        0.2658
     14 N           0.1750   -0.6880    0.0000 N.am    1  LIG1       -0.1777
     15 C           1.0130   -1.2130    0.0000 C.ar    1  LIG1        0.0766
     16 C           0.9630   -2.1960    0.0000 C.ar    1  LIG1        0.0568
     17 C           1.8000   -2.7250    0.0000 C.ar    1  LIG1        0.1777
     18 C           2.6630   -2.2710    0.0000 C.ar    1  LIG1        0.1765
     19 O           3.3750   -2.9580    0.0000 O.3     1  LIG1       -0.4346
     20 C           2.9380   -3.8380    0.0000 C.3     1  LIG1        0.4294
     21 O           1.9630   -3.6960    0.0000 O.3     1  LIG1       -0.4346
     22 C           2.7130   -1.2750    0.0000 C.ar    1  LIG1        0.0415
     23 C           1.8750   -0.7580    0.0000 C.ar    1  LIG1        0.0199
     24 O           1.0000    0.8000    0.0000 O.2     1  LIG1       -0.2711
@<TRIPOS>BOND
     1     1     2    1
     2     1     6    1
     3     1    12    1
     4     2     3   ar
     5     2    11   ar
     6     3     4    1
     7     3     8   ar
     8     4     5    1
     9     5     6    1
    10     5     7    2
    11     8     9   ar
    12     9    10   ar
    13    10    11   ar
    14    12    13    1
    15    13    14   am
    16    13    24    2
    17    14    15    1
    18    15    16   ar
    19    15    23   ar
    20    16    17   ar
    21    17    18   ar
    22    17    21    1
    23    18    19    1
    24    18    22   ar
    25    19    20    1
    26    20    21    1
    27    22    23   ar
