@<TRIPOS>MOLECULE
28724_ChemDiv_8016-3462
 27 31 0 0 0
SMALL
GASTEIGER
Energy = 0

@<TRIPOS>ATOM
      1 N           0.4380    0.1460    0.0000 N.ar    1  LIG1       -0.1870
      2 C          -0.5080    0.4670    0.0000 C.ar    1  LIG1        0.2037
      3 N          -0.5040    1.4670    0.0000 N.ar    1  LIG1       -0.0556
      4 O           0.4500    1.7670    0.0000 O.2     1  LIG1       -0.3324
      5 C           1.0290    0.9460    0.0000 C.ar    1  LIG1        0.2601
      6 C           2.0250    0.9460    0.0000 C.ar    1  LIG1        0.0587
      7 C           2.5540    0.0880    0.0000 C.ar    1  LIG1        0.0223
      8 C           3.5540    0.0880    0.0000 C.ar    1  LIG1        0.0810
      9 N           4.0500    0.9420    0.0000 N.ar    1  LIG1       -0.2497
     10 C           3.5500    1.8040    0.0000 C.ar    1  LIG1        0.0595
     11 C           2.5540    1.8040    0.0000 C.ar    1  LIG1        0.0195
     12 C           4.0500    2.6830    0.0000 C.3     1  LIG1        0.0521
     13 C           4.0500   -0.7790    0.0000 C.ar    1  LIG1        0.0191
     14 C           3.5540   -1.6420    0.0000 C.ar    1  LIG1        0.0015
     15 C           2.5540   -1.6420    0.0000 C.ar    1  LIG1        0.0001
     16 C           2.0540   -0.7670    0.0000 C.ar    1  LIG1        0.0016
     17 C          -1.3210   -0.1130    0.0000 C.ar    1  LIG1        0.0417
     18 C          -2.2290    0.3000    0.0000 C.ar    1  LIG1        0.0207
     19 C          -3.0420   -0.2750    0.0000 C.ar    1  LIG1        0.0810
     20 N          -2.9460   -1.2670    0.0000 N.ar    1  LIG1       -0.2497
     21 C          -2.0420   -1.6790    0.0000 C.ar    1  LIG1        0.0594
     22 C          -1.2290   -1.1040    0.0000 C.ar    1  LIG1        0.0179
     23 C          -1.9540   -2.6790    0.0000 C.3     1  LIG1        0.0521
     24 C          -3.9580    0.1330    0.0000 C.ar    1  LIG1        0.0191
     25 C          -4.0540    1.1290    0.0000 C.ar    1  LIG1        0.0015
     26 C          -3.2290    1.7080    0.0000 C.ar    1  LIG1        0.0001
     27 C          -2.3170    1.2920    0.0000 C.ar    1  LIG1        0.0016
@<TRIPOS>BOND
     1     1     2   ar
     2     1     5   ar
     3     2     3   ar
     4     2    17    1
     5     3     4   ar
     6     4     5   ar
     7     5     6    1
     8     6     7   ar
     9     6    11   ar
    10     7     8   ar
    11     7    16   ar
    12     8     9   ar
    13     8    13   ar
    14     9    10   ar
    15    10    11   ar
    16    10    12    1
    17    13    14   ar
    18    14    15   ar
    19    15    16   ar
    20    17    18   ar
    21    17    22   ar
    22    18    19   ar
    23    18    27   ar
    24    19    20   ar
    25    19    24   ar
    26    20    21   ar
    27    21    22   ar
    28    21    23    1
    29    24    25   ar
    30    25    26   ar
    31    26    27   ar
