@<TRIPOS>MOLECULE
28729_ChemDiv_5461-0018
 29 31 0 0 0
SMALL
GASTEIGER
Energy = 0

@<TRIPOS>ATOM
      1 C          -1.3630   -0.9420    0.0000 C.ar    1  LIG1        0.1368
      2 N          -2.1630   -0.3540    0.0000 N.ar    1  LIG1       -0.2320
      3 C          -2.9830   -0.9420    0.0000 C.ar    1  LIG1        0.0886
      4 C          -2.6670   -1.8880    0.0000 C.ar    1  LIG1        0.0520
      5 S          -1.6790   -1.8880    0.0000 S.2     1  LIG1       -0.0602
      6 C          -3.3460   -2.6330    0.0000 C.ar    1  LIG1        0.0449
      7 C          -4.3000   -2.4170    0.0000 C.ar    1  LIG1        0.1391
      8 C          -4.6250   -1.4710    0.0000 C.ar    1  LIG1        0.0385
      9 C          -3.9500   -0.7250    0.0000 C.ar    1  LIG1        0.0228
     10 O          -4.9790   -3.1630    0.0000 O.3     1  LIG1       -0.4754
     11 C          -4.6630   -4.1250    0.0000 C.3     1  LIG1        0.2055
     12 C          -5.3210   -4.8710    0.0000 C.3     1  LIG1        0.0512
     13 S          -0.4080   -0.6250    0.0000 S.3     1  LIG1       -0.0786
     14 C          -0.2040    0.3460    0.0000 C.3     1  LIG1        0.1509
     15 C           0.7630    0.6460    0.0000 C.2     1  LIG1        0.2570
     16 N           0.9670    1.6170    0.0000 N.am    1  LIG1       -0.1785
     17 C           1.9250    1.9210    0.0000 C.ar    1  LIG1        0.0735
     18 C           2.1460    2.8960    0.0000 C.ar    1  LIG1        0.0177
     19 C           3.0960    3.2040    0.0000 C.ar    1  LIG1        0.0153
     20 C           3.3170    4.1750    0.0000 C.2     1  LIG1        0.0729
     21 O           2.5750    4.8710    0.0000 O.co2   1  LIG1       -0.5446
     22 O           4.2830    4.4790    0.0000 O.co2   1  LIG1       -0.5446
     23 C           3.8380    2.5250    0.0000 C.ar    1  LIG1        0.0023
     24 C           3.6210    1.5540    0.0000 C.ar    1  LIG1        0.0153
     25 C           4.3500    0.8880    0.0000 C.2     1  LIG1        0.0729
     26 O           5.3170    1.1880    0.0000 O.co2   1  LIG1       -0.5446
     27 O           4.1500   -0.0790    0.0000 O.co2   1  LIG1       -0.5446
     28 C           2.6710    1.2500    0.0000 C.ar    1  LIG1        0.0177
     29 O           1.4880   -0.0170    0.0000 O.2     1  LIG1       -0.2720
@<TRIPOS>BOND
     1     1     2   ar
     2     1     5   ar
     3     1    13    1
     4     2     3   ar
     5     3     4   ar
     6     3     9   ar
     7     4     5   ar
     8     4     6   ar
     9     6     7   ar
    10     7     8   ar
    11     7    10    1
    12     8     9   ar
    13    10    11    1
    14    11    12    1
    15    13    14    1
    16    14    15    1
    17    15    16   am
    18    15    29    2
    19    16    17    1
    20    17    18   ar
    21    17    28   ar
    22    18    19   ar
    23    19    20    1
    24    19    23   ar
    25    20    21   ar
    26    20    22   ar
    27    23    24   ar
    28    24    25    1
    29    24    28   ar
    30    25    26   ar
    31    25    27   ar
