@<TRIPOS>MOLECULE
28726_ChemDiv_8016-7363
 25 28 0 0 0
SMALL
GASTEIGER
Energy = 0

@<TRIPOS>ATOM
      1 N           0.4290    0.5830    0.0000 N.ar    1  LIG1       -0.1869
      2 C          -0.5210    0.9000    0.0000 C.ar    1  LIG1        0.2037
      3 N          -0.5130    1.9000    0.0000 N.ar    1  LIG1       -0.0556
      4 O           0.4420    2.2080    0.0000 O.2     1  LIG1       -0.3323
      5 C           1.0250    1.3880    0.0000 C.ar    1  LIG1        0.2629
      6 C           2.0170    1.3880    0.0000 C.ar    1  LIG1        0.0900
      7 C           2.5540    0.5210    0.0000 C.ar    1  LIG1        0.1431
      8 O           2.0670   -0.3460    0.0000 O.3     1  LIG1       -0.4753
      9 C           2.5880   -1.1830    0.0000 C.3     1  LIG1        0.2055
     10 C           3.5790   -1.1330    0.0000 C.3     1  LIG1        0.0512
     11 C           3.5540    0.5210    0.0000 C.ar    1  LIG1        0.0371
     12 C           4.0540    1.3880    0.0000 C.ar    1  LIG1        0.0031
     13 C           3.5540    2.2460    0.0000 C.ar    1  LIG1        0.0004
     14 C           2.5540    2.2500    0.0000 C.ar    1  LIG1        0.0078
     15 C          -1.3330    0.3250    0.0000 C.ar    1  LIG1        0.0417
     16 C          -2.2380    0.7330    0.0000 C.ar    1  LIG1        0.0207
     17 C          -3.0500    0.1580    0.0000 C.ar    1  LIG1        0.0810
     18 N          -2.9580   -0.8330    0.0000 N.ar    1  LIG1       -0.2497
     19 C          -2.0500   -1.2540    0.0000 C.ar    1  LIG1        0.0594
     20 C          -1.2380   -0.6710    0.0000 C.ar    1  LIG1        0.0179
     21 C          -1.9580   -2.2460    0.0000 C.3     1  LIG1        0.0521
     22 C          -3.9710    0.5710    0.0000 C.ar    1  LIG1        0.0191
     23 C          -4.0580    1.5710    0.0000 C.ar    1  LIG1        0.0015
     24 C          -3.2380    2.1500    0.0000 C.ar    1  LIG1        0.0001
     25 C          -2.3330    1.7330    0.0000 C.ar    1  LIG1        0.0016
@<TRIPOS>BOND
     1     1     2   ar
     2     1     5   ar
     3     2     3   ar
     4     2    15    1
     5     3     4   ar
     6     4     5   ar
     7     5     6    1
     8     6     7   ar
     9     6    14   ar
    10     7     8    1
    11     7    11   ar
    12     8     9    1
    13     9    10    1
    14    11    12   ar
    15    12    13   ar
    16    13    14   ar
    17    15    16   ar
    18    15    20   ar
    19    16    17   ar
    20    16    25   ar
    21    17    18   ar
    22    17    22   ar
    23    18    19   ar
    24    19    20   ar
    25    19    21    1
    26    22    23   ar
    27    23    24   ar
    28    24    25   ar
