@<TRIPOS>MOLECULE
28720_ChemDiv_C759-0004
 29 31 0 0 0
SMALL
GASTEIGER
Energy = 0

@<TRIPOS>ATOM
      1 N          -1.3000   -4.0040    0.0000 N.am    1  LIG1       -0.1731
      2 C          -0.4330   -3.5040    0.0000 C.2     1  LIG1        0.2864
      3 C          -0.4330   -2.5080    0.0000 C.3     1  LIG1        0.2522
      4 O          -1.3000   -2.0080    0.0000 O.3     1  LIG1       -0.4680
      5 C          -2.1670   -2.5080    0.0000 C.ar    1  LIG1        0.1543
      6 C          -2.1670   -3.5040    0.0000 C.ar    1  LIG1        0.1073
      7 C          -3.0210   -4.0040    0.0000 C.ar    1  LIG1        0.0197
      8 C          -3.9000   -3.5040    0.0000 C.ar    1  LIG1        0.0015
      9 C          -3.9000   -2.5080    0.0000 C.ar    1  LIG1        0.0032
     10 C          -3.0210   -2.0080    0.0000 C.ar    1  LIG1        0.0383
     11 C           0.4290   -1.9920    0.0000 C.3     1  LIG1        0.1402
     12 C           0.4290   -0.9920    0.0000 C.2     1  LIG1        0.2498
     13 N           1.2960   -0.4920    0.0000 N.am    1  LIG1       -0.1791
     14 C           1.2960    0.4960    0.0000 C.ar    1  LIG1        0.0738
     15 C           2.1630    0.9960    0.0000 C.ar    1  LIG1        0.0230
     16 C           2.1630    1.9960    0.0000 C.ar    1  LIG1        0.0771
     17 C           3.0290    2.5000    0.0000 C.2     1  LIG1        0.3414
     18 O           3.0290    3.5000    0.0000 O.2     1  LIG1       -0.2449
     19 O           3.8960    2.0000    0.0000 O.3     1  LIG1       -0.4413
     20 C           3.8960    1.0000    0.0000 C.3     1  LIG1        0.2560
     21 C           1.2960    2.4960    0.0000 C.ar    1  LIG1        0.0130
     22 C           0.4290    1.9960    0.0000 C.ar    1  LIG1        0.0771
     23 C          -0.4330    2.5000    0.0000 C.2     1  LIG1        0.3414
     24 O          -1.3000    2.0000    0.0000 O.2     1  LIG1       -0.2449
     25 O          -0.4330    3.5080    0.0000 O.3     1  LIG1       -0.4413
     26 C           0.4290    4.0040    0.0000 C.3     1  LIG1        0.2560
     27 C           0.4290    0.9960    0.0000 C.ar    1  LIG1        0.0230
     28 O          -0.4330   -0.4920    0.0000 O.2     1  LIG1       -0.2728
     29 O           0.4290   -4.0040    0.0000 O.2     1  LIG1       -0.2691
@<TRIPOS>BOND
     1     1     2   am
     2     1     6    1
     3     2     3    1
     4     2    29    2
     5     3     4    1
     6     3    11    1
     7     4     5    1
     8     5     6   ar
     9     5    10   ar
    10     6     7   ar
    11     7     8   ar
    12     8     9   ar
    13     9    10   ar
    14    11    12    1
    15    12    13   am
    16    12    28    2
    17    13    14    1
    18    14    15   ar
    19    14    27   ar
    20    15    16   ar
    21    16    17    1
    22    16    21   ar
    23    17    18    2
    24    17    19    1
    25    19    20    1
    26    21    22   ar
    27    22    23    1
    28    22    27   ar
    29    23    24    2
    30    23    25    1
    31    25    26    1
