@<TRIPOS>MOLECULE
28722_ChemDiv_7062-0793
 28 31 0 0 0
SMALL
GASTEIGER
Energy = 0

@<TRIPOS>ATOM
      1 N           0.9830   -0.7830    0.0000 N.ar    1  LIG1       -0.1868
      2 C           0.8790   -1.7750    0.0000 C.ar    1  LIG1        0.2082
      3 C           0.0130   -2.2750    0.0000 C.ar    1  LIG1        0.0969
      4 C           0.0130   -3.2750    0.0000 C.ar    1  LIG1        0.2822
      5 N          -0.8500   -3.7750    0.0000 N.ar    1  LIG1       -0.2078
      6 C          -1.7170   -3.2750    0.0000 C.ar    1  LIG1        0.0847
      7 C          -1.7170   -2.2750    0.0000 C.ar    1  LIG1        0.0210
      8 C          -0.8500   -1.7750    0.0000 C.ar    1  LIG1        0.0096
      9 C          -2.5880   -1.7750    0.0000 C.ar    1  LIG1        0.0384
     10 C          -3.4540   -2.2750    0.0000 C.ar    1  LIG1        0.1388
     11 C          -3.4540   -3.2750    0.0000 C.ar    1  LIG1        0.0384
     12 C          -2.5880   -3.7750    0.0000 C.ar    1  LIG1        0.0223
     13 O          -4.3170   -1.7750    0.0000 O.3     1  LIG1       -0.4714
     14 C          -5.1790   -2.2750    0.0000 C.3     1  LIG1        0.2525
     15 O           0.8790   -3.7750    0.0000 O.3     1  LIG1       -0.2651
     16 N           1.7920   -2.1790    0.0000 N.ar    1  LIG1       -0.0555
     17 O           2.4670   -1.4330    0.0000 O.2     1  LIG1       -0.3324
     18 C           1.9630   -0.5750    0.0000 C.ar    1  LIG1        0.2602
     19 C           2.3710    0.3330    0.0000 C.ar    1  LIG1        0.0621
     20 C           1.7790    1.1460    0.0000 C.ar    1  LIG1        0.0418
     21 C           2.1920    2.0580    0.0000 C.ar    1  LIG1        0.1419
     22 C           3.1830    2.1630    0.0000 C.ar    1  LIG1        0.0738
     23 C           3.7750    1.3540    0.0000 C.ar    1  LIG1        0.1419
     24 C           3.3670    0.4420    0.0000 C.ar    1  LIG1        0.0418
     25 O           4.7670    1.4580    0.0000 O.3     1  LIG1       -0.4713
     26 C           5.1750    2.3750    0.0000 C.3     1  LIG1        0.2525
     27 O           1.6000    2.8670    0.0000 O.3     1  LIG1       -0.4713
     28 C           2.0080    3.7790    0.0000 C.3     1  LIG1        0.2525
@<TRIPOS>BOND
     1     1     2   ar
     2     1    18   ar
     3     2     3    1
     4     2    16   ar
     5     3     4   ar
     6     3     8   ar
     7     4     5   ar
     8     4    15    1
     9     5     6   ar
    10     6     7   ar
    11     6    12   ar
    12     7     8   ar
    13     7     9   ar
    14     9    10   ar
    15    10    11   ar
    16    10    13    1
    17    11    12   ar
    18    13    14    1
    19    16    17   ar
    20    17    18   ar
    21    18    19    1
    22    19    20   ar
    23    19    24   ar
    24    20    21   ar
    25    21    22   ar
    26    21    27    1
    27    22    23   ar
    28    23    24   ar
    29    23    25    1
    30    25    26    1
    31    27    28    1
