@<TRIPOS>MOLECULE
28732_ChemDiv_K086-0160
 19 21 0 0 0
SMALL
GASTEIGER
Energy = 0

@<TRIPOS>ATOM
      1 N          -0.4960    0.4500    0.0000 N.ar    1  LIG1       -0.1870
      2 C          -1.4960    0.3750    0.0000 C.ar    1  LIG1        0.2036
      3 N          -1.8750    1.3000    0.0000 N.ar    1  LIG1       -0.0556
      4 O          -1.1170    1.9540    0.0000 O.2     1  LIG1       -0.3324
      5 C          -0.2670    1.4380    0.0000 C.ar    1  LIG1        0.2600
      6 C           0.6750    1.7710    0.0000 C.ar    1  LIG1        0.0561
      7 C           1.4330    1.1330    0.0000 C.ar    1  LIG1        0.0052
      8 C           2.3750    1.4830    0.0000 C.ar    1  LIG1        0.0068
      9 C           2.5540    2.4710    0.0000 C.ar    1  LIG1        0.0346
     10 C           1.7830    3.1080    0.0000 C.ar    1  LIG1        0.0068
     11 C           0.8420    2.7580    0.0000 C.ar    1  LIG1        0.0052
     12 BR          3.4830    2.8040    0.0000 Br      1  LIG1       -0.0490
     13 C          -1.9830   -0.5080    0.0000 C.ar    1  LIG1        0.0391
     14 C          -2.9830   -0.5080    0.0000 C.ar    1  LIG1        0.0028
     15 C          -3.4880   -1.3710    0.0000 C.ar    1  LIG1       -0.0042
     16 C          -2.9710   -2.2380    0.0000 C.ar    1  LIG1       -0.0218
     17 C          -1.9670   -2.2210    0.0000 C.ar    1  LIG1       -0.0042
     18 C          -1.4830   -1.3580    0.0000 C.ar    1  LIG1        0.0028
     19 C          -3.4710   -3.1040    0.0000 C.3     1  LIG1        0.0310
@<TRIPOS>BOND
     1     1     2   ar
     2     1     5   ar
     3     2     3   ar
     4     2    13    1
     5     3     4   ar
     6     4     5   ar
     7     5     6    1
     8     6     7   ar
     9     6    11   ar
    10     7     8   ar
    11     8     9   ar
    12     9    10   ar
    13     9    12    1
    14    10    11   ar
    15    13    14   ar
    16    13    18   ar
    17    14    15   ar
    18    15    16   ar
    19    16    17   ar
    20    16    19    1
    21    17    18   ar
