@<TRIPOS>MOLECULE
28738_ChemDiv_C759-0510
 33 36 0 0 0
SMALL
GASTEIGER
Energy = 0

@<TRIPOS>ATOM
      1 N           0.9250   -4.7290    0.0000 N.am    1  LIG1       -0.1731
      2 C           1.7830   -4.2250    0.0000 C.2     1  LIG1        0.2864
      3 C           1.7830   -3.2170    0.0000 C.3     1  LIG1        0.2522
      4 O           0.9170   -2.7170    0.0000 O.3     1  LIG1       -0.4680
      5 C           0.0540   -3.2330    0.0000 C.ar    1  LIG1        0.1542
      6 C           0.0630   -4.2290    0.0000 C.ar    1  LIG1        0.1070
      7 C          -0.8170   -4.7290    0.0000 C.ar    1  LIG1        0.0154
      8 C          -1.6790   -4.2290    0.0000 C.ar    1  LIG1       -0.0204
      9 C          -1.6790   -3.2330    0.0000 C.ar    1  LIG1       -0.0011
     10 C          -0.8170   -2.7330    0.0000 C.ar    1  LIG1        0.0379
     11 C          -2.5420   -4.7290    0.0000 C.3     1  LIG1        0.0311
     12 C           2.6460   -2.7170    0.0000 C.3     1  LIG1        0.1399
     13 C           2.6420   -1.7210    0.0000 C.2     1  LIG1        0.2456
     14 O           1.7710   -1.2250    0.0000 O.2     1  LIG1       -0.2732
     15 N           3.4960   -1.2170    0.0000 N.am    1  LIG1       -0.2051
     16 C           3.4880   -0.2290    0.0000 C.3     1  LIG1        0.1213
     17 C           2.6130    0.2580    0.0000 C.3     1  LIG1        0.0861
     18 C           2.5960    1.2540    0.0000 C.3     1  LIG1        0.1406
     19 N           1.7210    1.7380    0.0000 N.4     1  LIG1        0.3800
     20 C           1.7080    2.7380    0.0000 C.3     1  LIG1        0.1605
     21 C           0.8330    3.2380    0.0000 C.3     1  LIG1        0.1544
     22 N          -0.0210    2.7210    0.0000 N.pl3   1  LIG1       -0.2974
     23 C          -0.8960    3.2040    0.0000 C.ar    1  LIG1        0.0449
     24 C          -1.7540    2.6920    0.0000 C.ar    1  LIG1        0.0256
     25 C          -2.6290    3.1920    0.0000 C.ar    1  LIG1        0.0589
     26 C          -2.6460    4.1830    0.0000 C.ar    1  LIG1        0.0112
     27 C          -1.7830    4.7000    0.0000 C.ar    1  LIG1       -0.0022
     28 C          -0.9080    4.2170    0.0000 C.ar    1  LIG1       -0.0085
     29 C          -0.0460    4.7290    0.0000 C.3     1  LIG1        0.0323
     30 CL         -3.5000    2.6920    0.0000 Cl      1  LIG1       -0.0822
     31 C           0.0000    1.7250    0.0000 C.3     1  LIG1        0.1544
     32 C           0.8710    1.2420    0.0000 C.3     1  LIG1        0.1605
     33 O           2.6580   -4.7250    0.0000 O.2     1  LIG1       -0.2691
@<TRIPOS>BOND
     1     1     2   am
     2     1     6    1
     3     2     3    1
     4     2    33    2
     5     3     4    1
     6     3    12    1
     7     4     5    1
     8     5     6   ar
     9     5    10   ar
    10     6     7   ar
    11     7     8   ar
    12     8     9   ar
    13     8    11    1
    14     9    10   ar
    15    12    13    1
    16    13    14    2
    17    13    15   am
    18    15    16    1
    19    16    17    1
    20    17    18    1
    21    18    19    1
    22    19    20    1
    23    19    32    1
    24    20    21    1
    25    21    22    1
    26    22    23    1
    27    22    31    1
    28    23    24   ar
    29    23    28   ar
    30    24    25   ar
    31    25    26   ar
    32    25    30    1
    33    26    27   ar
    34    27    28   ar
    35    28    29    1
    36    31    32    1
