@<TRIPOS>MOLECULE
28731_ChemDiv_8007-8670
 34 37 0 0 0
SMALL
GASTEIGER
Energy = 0

@<TRIPOS>ATOM
      1 C          -1.1830   -1.0040    0.0000 C.ar    1  LIG1        0.1368
      2 N          -1.4830   -1.9500    0.0000 N.ar    1  LIG1       -0.2320
      3 C          -2.4830   -1.9500    0.0000 C.ar    1  LIG1        0.0885
      4 C          -2.7880   -0.9750    0.0000 C.ar    1  LIG1        0.0503
      5 S          -1.9710   -0.4170    0.0000 S.2     1  LIG1       -0.0603
      6 C          -3.7580   -0.7750    0.0000 C.ar    1  LIG1        0.0246
      7 C          -4.4210   -1.5170    0.0000 C.ar    1  LIG1        0.0740
      8 N          -5.4460   -1.3130    0.0000 N.am    1  LIG1       -0.1792
      9 C          -5.7790   -0.3630    0.0000 C.2     1  LIG1        0.2459
     10 O          -6.7750   -0.1880    0.0000 O.2     1  LIG1       -0.2730
     11 C          -5.1420    0.4040    0.0000 C.3     1  LIG1        0.0918
     12 C          -4.1630    0.2250    0.0000 C.3     1  LIG1        0.0360
     13 C          -3.5250    0.9920    0.0000 C.ar    1  LIG1       -0.0217
     14 C          -3.8540    1.9080    0.0000 C.ar    1  LIG1       -0.0043
     15 C          -3.2170    2.6710    0.0000 C.ar    1  LIG1       -0.0003
     16 C          -2.2580    2.4920    0.0000 C.ar    1  LIG1       -0.0000
     17 C          -1.9210    1.5540    0.0000 C.ar    1  LIG1       -0.0003
     18 C          -2.5500    0.8130    0.0000 C.ar    1  LIG1       -0.0043
     19 C          -4.1130   -2.4580    0.0000 C.ar    1  LIG1        0.0182
     20 C          -3.1420   -2.6670    0.0000 C.ar    1  LIG1        0.0210
     21 S          -0.1830   -0.7210    0.0000 S.3     1  LIG1       -0.0786
     22 C           0.5580   -1.4420    0.0000 C.3     1  LIG1        0.1509
     23 C           1.5080   -1.1580    0.0000 C.2     1  LIG1        0.2570
     24 N           2.2250   -1.8460    0.0000 N.am    1  LIG1       -0.1785
     25 C           3.1670   -1.5710    0.0000 C.ar    1  LIG1        0.0734
     26 C           3.4250   -0.6210    0.0000 C.ar    1  LIG1        0.0167
     27 C           4.3750   -0.3380    0.0000 C.ar    1  LIG1        0.0042
     28 C           5.1170   -1.0580    0.0000 C.ar    1  LIG1        0.0348
     29 C           6.1130   -0.8290    0.0000 C.2     1  LIG1        0.1735
     30 O           6.4420    0.1500    0.0000 O.2     1  LIG1       -0.2913
     31 C           6.7750   -1.5710    0.0000 C.3     1  LIG1        0.0773
     32 C           4.8580   -2.0000    0.0000 C.ar    1  LIG1        0.0042
     33 C           3.8880   -2.2830    0.0000 C.ar    1  LIG1        0.0167
     34 O           1.7630   -0.1880    0.0000 O.2     1  LIG1       -0.2720
@<TRIPOS>BOND
     1     1     2   ar
     2     1     5   ar
     3     1    21    1
     4     2     3   ar
     5     3     4   ar
     6     3    20   ar
     7     4     5   ar
     8     4     6   ar
     9     6     7   ar
    10     7     8    1
    11     7    19   ar
    12     8     9   am
    13     9    10    2
    14     9    11    1
    15    11    12    1
    16    12    13    1
    17    13    14   ar
    18    13    18   ar
    19    14    15   ar
    20    15    16   ar
    21    16    17   ar
    22    17    18   ar
    23    19    20   ar
    24    21    22    1
    25    22    23    1
    26    23    24   am
    27    23    34    2
    28    24    25    1
    29    25    26   ar
    30    25    33   ar
    31    26    27   ar
    32    27    28   ar
    33    28    29    1
    34    28    32   ar
    35    29    30    2
    36    29    31    1
    37    32    33   ar
