@<TRIPOS>MOLECULE
28736_ChemDiv_K907-0344
 28 31 0 0 0
SMALL
GASTEIGER
Energy = 0

@<TRIPOS>ATOM
      1 N          -0.5210    2.2790    0.0000 N.ar    1  LIG1       -0.1869
      2 C          -0.6750    3.2790    0.0000 C.ar    1  LIG1        0.2629
      3 C          -0.0040    4.0130    0.0000 C.ar    1  LIG1        0.0900
      4 C           0.9790    3.8000    0.0000 C.ar    1  LIG1        0.1432
      5 O           1.2790    2.8290    0.0000 O.3     1  LIG1       -0.4713
      6 C           2.2540    2.6130    0.0000 C.3     1  LIG1        0.2525
      7 C           1.6540    4.5290    0.0000 C.ar    1  LIG1        0.0371
      8 C           1.3460    5.4790    0.0000 C.ar    1  LIG1        0.0031
      9 C           0.3670    5.6960    0.0000 C.ar    1  LIG1        0.0004
     10 C          -0.3040    4.9580    0.0000 C.ar    1  LIG1        0.0078
     11 O          -1.6580    3.4170    0.0000 O.2     1  LIG1       -0.3323
     12 N          -2.1080    2.5330    0.0000 N.ar    1  LIG1       -0.0556
     13 C          -1.3960    1.8250    0.0000 C.ar    1  LIG1        0.2036
     14 C          -1.3960    0.8250    0.0000 C.ar    1  LIG1        0.0392
     15 C          -0.5250    0.3210    0.0000 C.ar    1  LIG1        0.0045
     16 C          -0.5250   -0.6790    0.0000 C.ar    1  LIG1        0.0167
     17 C          -1.3960   -1.1830    0.0000 C.ar    1  LIG1        0.0737
     18 N          -1.3960   -2.1830    0.0000 N.am    1  LIG1       -0.1754
     19 C          -0.5380   -2.6880    0.0000 C.2     1  LIG1        0.2691
     20 O           0.3330   -2.1830    0.0000 O.2     1  LIG1       -0.2680
     21 C          -0.5380   -3.6880    0.0000 C.ar    1  LIG1        0.0585
     22 C           0.3330   -4.1920    0.0000 C.ar    1  LIG1        0.0253
     23 C           0.3330   -5.1920    0.0000 C.ar    1  LIG1        0.0990
     24 N          -0.5380   -5.6960    0.0000 N.ar    1  LIG1       -0.2423
     25 C          -1.3960   -5.1920    0.0000 C.ar    1  LIG1        0.0990
     26 C          -1.3960   -4.1920    0.0000 C.ar    1  LIG1        0.0253
     27 C          -2.2580   -0.6790    0.0000 C.ar    1  LIG1        0.0167
     28 C          -2.2580    0.3210    0.0000 C.ar    1  LIG1        0.0045
@<TRIPOS>BOND
     1     1     2   ar
     2     1    13   ar
     3     2     3    1
     4     2    11   ar
     5     3     4   ar
     6     3    10   ar
     7     4     5    1
     8     4     7   ar
     9     5     6    1
    10     7     8   ar
    11     8     9   ar
    12     9    10   ar
    13    11    12   ar
    14    12    13   ar
    15    13    14    1
    16    14    15   ar
    17    14    28   ar
    18    15    16   ar
    19    16    17   ar
    20    17    18    1
    21    17    27   ar
    22    18    19   am
    23    19    20    2
    24    19    21    1
    25    21    22   ar
    26    21    26   ar
    27    22    23   ar
    28    23    24   ar
    29    24    25   ar
    30    25    26   ar
    31    27    28   ar
