@<TRIPOS>MOLECULE
28734_ChemDiv_K607-0553
 15 16 0 0 0
SMALL
GASTEIGER
Energy = 0

@<TRIPOS>ATOM
      1 N          -0.5330   -0.3920    0.0000 N.ar    1  LIG1       -0.1911
      2 C          -0.2750    0.5790    0.0000 C.ar    1  LIG1        0.2597
      3 O          -1.1210    1.1210    0.0000 O.2     1  LIG1       -0.3328
      4 N          -1.8960    0.4880    0.0000 N.ar    1  LIG1       -0.0602
      5 C          -1.5210   -0.4540    0.0000 C.ar    1  LIG1        0.1808
      6 C          -2.0210   -1.3170    0.0000 C.3     1  LIG1        0.0692
      7 C          -3.0290   -1.3170    0.0000 C.3     1  LIG1        0.0081
      8 C          -3.5290   -2.1790    0.0000 C.3     1  LIG1        0.0005
      9 C           0.6750    0.8960    0.0000 C.ar    1  LIG1        0.0563
     10 C           1.4210    0.2290    0.0000 C.ar    1  LIG1        0.0080
     11 C           2.3580    0.5460    0.0000 C.ar    1  LIG1        0.0422
     12 C           2.5710    1.5210    0.0000 C.ar    1  LIG1        0.1957
     13 C           1.8250    2.1830    0.0000 C.ar    1  LIG1        0.0422
     14 C           0.8750    1.8670    0.0000 C.ar    1  LIG1        0.0080
     15 O           3.5250    1.8330    0.0000 O.3     1  LIG1       -0.2866
@<TRIPOS>BOND
     1     1     2   ar
     2     1     5   ar
     3     2     3   ar
     4     2     9    1
     5     3     4   ar
     6     4     5   ar
     7     5     6    1
     8     6     7    1
     9     7     8    1
    10     9    10   ar
    11     9    14   ar
    12    10    11   ar
    13    11    12   ar
    14    12    13   ar
    15    12    15    1
    16    13    14   ar
