@<TRIPOS>MOLECULE
28733_ChemDiv_8009-1122
 36 40 0 0 0
SMALL
GASTEIGER
Energy = 0

@<TRIPOS>ATOM
      1 C           2.0000   -1.9830    0.0000 C.ar    1  LIG1        0.1368
      2 N           1.3330   -1.3170    0.0000 N.ar    1  LIG1       -0.2320
      3 C           0.3830   -1.7380    0.0000 C.ar    1  LIG1        0.0885
      4 C           0.5580   -2.7210    0.0000 C.ar    1  LIG1        0.0503
      5 S           1.5500   -2.9000    0.0000 S.2     1  LIG1       -0.0603
      6 C          -0.2500   -3.3540    0.0000 C.ar    1  LIG1        0.0246
      7 C          -1.1710   -2.9670    0.0000 C.ar    1  LIG1        0.0740
      8 N          -1.9670   -3.6080    0.0000 N.am    1  LIG1       -0.1785
      9 C          -2.8790   -3.2130    0.0000 C.2     1  LIG1        0.2566
     10 O          -3.6920   -3.8130    0.0000 O.2     1  LIG1       -0.2720
     11 C          -3.0210   -2.2290    0.0000 C.3     1  LIG1        0.1450
     12 S          -2.2040   -1.6290    0.0000 S.3     1  LIG1       -0.1208
     13 C          -2.3130   -0.6460    0.0000 C.3     1  LIG1        0.1450
     14 C          -3.2170   -0.2630    0.0000 C.2     1  LIG1        0.2566
     15 N          -3.3380    0.7250    0.0000 N.am    1  LIG1       -0.1785
     16 C          -4.2420    1.0960    0.0000 C.ar    1  LIG1        0.0734
     17 C          -4.3790    2.0960    0.0000 C.ar    1  LIG1        0.0166
     18 C          -5.2880    2.4920    0.0000 C.ar    1  LIG1        0.0013
     19 C          -6.1130    1.8330    0.0000 C.ar    1  LIG1        0.0001
     20 C          -5.9630    0.8290    0.0000 C.ar    1  LIG1        0.0013
     21 C          -5.0130    0.4790    0.0000 C.ar    1  LIG1        0.0166
     22 C          -7.0500    2.1670    0.0000 C.ar    1  LIG1        0.0000
     23 C          -7.2080    3.1960    0.0000 C.ar    1  LIG1        0.0000
     24 C          -6.4290    3.8170    0.0000 C.ar    1  LIG1        0.0000
     25 C          -5.4710    3.4460    0.0000 C.ar    1  LIG1        0.0000
     26 O          -3.9880   -0.8580    0.0000 O.2     1  LIG1       -0.2720
     27 C          -1.3130   -1.9830    0.0000 C.ar    1  LIG1        0.0182
     28 C          -0.5330   -1.3830    0.0000 C.ar    1  LIG1        0.0210
     29 S           2.9830   -1.7710    0.0000 S.3     1  LIG1       -0.0786
     30 C           3.6580   -2.5170    0.0000 C.3     1  LIG1        0.1506
     31 C           4.6080   -2.3380    0.0000 C.2     1  LIG1        0.2527
     32 N           5.2750   -3.0750    0.0000 N.am    1  LIG1       -0.2064
     33 C           6.2250   -2.9000    0.0000 C.3     1  LIG1        0.0954
     34 C           6.5790   -1.9500    0.0000 C.3     1  LIG1        0.0234
     35 C           7.2080   -2.6880    0.0000 C.3     1  LIG1        0.0234
     36 O           4.9630   -1.3830    0.0000 O.2     1  LIG1       -0.2724
@<TRIPOS>BOND
     1     1     2   ar
     2     1     5   ar
     3     1    29    1
     4     2     3   ar
     5     3     4   ar
     6     3    28   ar
     7     4     5   ar
     8     4     6   ar
     9     6     7   ar
    10     7     8    1
    11     7    27   ar
    12     8     9   am
    13     9    10    2
    14     9    11    1
    15    11    12    1
    16    12    13    1
    17    13    14    1
    18    14    15   am
    19    14    26    2
    20    15    16    1
    21    16    17   ar
    22    16    21   ar
    23    17    18   ar
    24    18    19   ar
    25    18    25   ar
    26    19    20   ar
    27    19    22   ar
    28    20    21   ar
    29    22    23   ar
    30    23    24   ar
    31    24    25   ar
    32    27    28   ar
    33    29    30    1
    34    30    31    1
    35    31    32   am
    36    31    36    2
    37    32    33    1
    38    33    34    1
    39    33    35    1
    40    34    35    1
