@<TRIPOS>MOLECULE
28739_ChemDiv_C564-0196
 33 37 0 0 0
SMALL
GASTEIGER
Energy = 0

@<TRIPOS>ATOM
      1 N          -0.6330   -4.4080    0.0000 N.ar    1  LIG1       -0.3272
      2 C          -0.5250   -3.4130    0.0000 C.ar    1  LIG1        0.0600
      3 C          -1.4380   -3.0040    0.0000 C.ar    1  LIG1        0.0185
      4 C          -2.1080   -3.7460    0.0000 C.ar    1  LIG1        0.0172
      5 C          -1.6130   -4.6130    0.0000 C.ar    1  LIG1        0.0599
      6 C          -2.1170   -5.4830    0.0000 C.ar    1  LIG1        0.0172
      7 C          -3.1130   -5.4750    0.0000 C.ar    1  LIG1        0.0015
      8 C          -3.6080   -4.6040    0.0000 C.ar    1  LIG1        0.0001
      9 C          -3.1130   -3.7460    0.0000 C.ar    1  LIG1        0.0015
     10 C          -1.5420   -2.0080    0.0000 C.ar    1  LIG1        0.0181
     11 C          -0.7380   -1.4380    0.0000 C.ar    1  LIG1        0.0735
     12 N          -0.7380   -0.4380    0.0000 N.am    1  LIG1       -0.1785
     13 C           0.1330    0.0630    0.0000 C.2     1  LIG1        0.2569
     14 O           1.0000   -0.4380    0.0000 O.2     1  LIG1       -0.2720
     15 C           0.1420    1.0540    0.0000 C.3     1  LIG1        0.1490
     16 S           1.0080    1.5540    0.0000 S.3     1  LIG1       -0.1036
     17 C           1.0080    2.5500    0.0000 C.ar    1  LIG1        0.0318
     18 C           0.1420    3.0630    0.0000 C.ar    1  LIG1        0.0669
     19 C           0.1500    4.0670    0.0000 C.ar    1  LIG1        0.2614
     20 N           1.0250    4.5670    0.0000 N.ar    1  LIG1       -0.2955
     21 C           1.8790    4.0580    0.0000 C.ar    1  LIG1        0.0629
     22 C           1.8710    3.0540    0.0000 C.ar    1  LIG1        0.0217
     23 C           2.7380    2.5500    0.0000 C.ar    1  LIG1        0.0019
     24 C           3.6040    3.0460    0.0000 C.ar    1  LIG1        0.0001
     25 C           3.6040    4.0460    0.0000 C.ar    1  LIG1        0.0015
     26 C           2.7460    4.5500    0.0000 C.ar    1  LIG1        0.0173
     27 C           1.0250    5.5630    0.0000 C.3     1  LIG1        0.1091
     28 C           1.8920    6.0580    0.0000 C.3     1  LIG1        0.0266
     29 O          -0.7130    4.5750    0.0000 O.2     1  LIG1       -0.2670
     30 C           0.1790   -1.8420    0.0000 C.ar    1  LIG1        0.0181
     31 C           0.2830   -2.8290    0.0000 C.ar    1  LIG1        0.0185
     32 C           0.1080   -5.0790    0.0000 C.3     1  LIG1        0.1061
     33 C          -0.1040   -6.0580    0.0000 C.3     1  LIG1        0.0265
@<TRIPOS>BOND
     1     1     2   ar
     2     1     5   ar
     3     1    32    1
     4     2     3   ar
     5     2    31   ar
     6     3     4   ar
     7     3    10   ar
     8     4     5   ar
     9     4     9   ar
    10     5     6   ar
    11     6     7   ar
    12     7     8   ar
    13     8     9   ar
    14    10    11   ar
    15    11    12    1
    16    11    30   ar
    17    12    13   am
    18    13    14    2
    19    13    15    1
    20    15    16    1
    21    16    17    1
    22    17    18   ar
    23    17    22   ar
    24    18    19   ar
    25    19    20   ar
    26    19    29    2
    27    20    21   ar
    28    20    27    1
    29    21    22   ar
    30    21    26   ar
    31    22    23   ar
    32    23    24   ar
    33    24    25   ar
    34    25    26   ar
    35    27    28    1
    36    30    31   ar
    37    32    33    1
