@<TRIPOS>MOLECULE
28744_ChemDiv_E015-0847
 35 38 0 0 0
SMALL
GASTEIGER
Energy = 0

@<TRIPOS>ATOM
      1 N          -1.7330   -4.2420    0.0000 N.am    1  LIG1       -0.2523
      2 C          -2.6040   -4.7580    0.0000 C.ar    1  LIG1        0.0878
      3 C          -2.6040   -5.7670    0.0000 C.ar    1  LIG1        0.1520
      4 O          -1.7460   -6.2670    0.0000 O.3     1  LIG1       -0.4761
      5 C          -0.8670   -5.7670    0.0000 C.3     1  LIG1        0.1861
      6 C          -0.8670   -4.7580    0.0000 C.3     1  LIG1        0.1416
      7 C          -0.0080   -6.2710    0.0000 C.3     1  LIG1        0.0491
      8 C          -3.4670   -6.2580    0.0000 C.ar    1  LIG1        0.0379
      9 C          -4.3250   -5.7580    0.0000 C.ar    1  LIG1       -0.0011
     10 C          -4.3250   -4.7580    0.0000 C.ar    1  LIG1       -0.0204
     11 C          -3.4670   -4.2580    0.0000 C.ar    1  LIG1        0.0137
     12 C          -5.1830   -4.2580    0.0000 C.3     1  LIG1        0.0311
     13 C          -1.7330   -3.2460    0.0000 C.2     1  LIG1        0.2300
     14 O          -2.6040   -2.7540    0.0000 O.2     1  LIG1       -0.2745
     15 C          -0.8710   -2.7460    0.0000 C.3     1  LIG1        0.0952
     16 C          -0.8830   -1.7540    0.0000 C.3     1  LIG1        0.0964
     17 C          -0.0170   -1.2380    0.0000 C.2     1  LIG1        0.2419
     18 O          -0.0250   -0.2500    0.0000 O.2     1  LIG1       -0.2733
     19 N           0.8540   -1.7420    0.0000 N.am    1  LIG1       -0.2052
     20 C           1.7210   -1.2250    0.0000 C.3     1  LIG1        0.1213
     21 C           1.7210   -0.2420    0.0000 C.3     1  LIG1        0.0861
     22 C           2.5830    0.2540    0.0000 C.3     1  LIG1        0.1404
     23 N           2.5920    1.2670    0.0000 N.4     1  LIG1        0.3773
     24 C           3.4580    1.7630    0.0000 C.3     1  LIG1        0.1386
     25 C           3.4580    2.7750    0.0000 C.3     1  LIG1        0.0632
     26 C           2.6080    3.2710    0.0000 C.3     1  LIG1        0.0162
     27 C           2.5960    4.2580    0.0000 C.3     1  LIG1        0.0268
     28 C           3.4500    4.7790    0.0000 C.ar    1  LIG1       -0.0222
     29 C           4.3290    4.2830    0.0000 C.ar    1  LIG1       -0.0043
     30 C           5.1790    4.7880    0.0000 C.ar    1  LIG1       -0.0003
     31 C           5.1790    5.7830    0.0000 C.ar    1  LIG1       -0.0000
     32 C           4.3040    6.2710    0.0000 C.ar    1  LIG1       -0.0003
     33 C           3.4420    5.7710    0.0000 C.ar    1  LIG1       -0.0043
     34 C           1.7210    2.7750    0.0000 C.3     1  LIG1        0.0632
     35 C           1.7210    1.7630    0.0000 C.3     1  LIG1        0.1386
@<TRIPOS>BOND
     1     1     2    1
     2     1     6    1
     3     1    13   am
     4     2     3   ar
     5     2    11   ar
     6     3     4    1
     7     3     8   ar
     8     4     5    1
     9     5     6    1
    10     5     7    1
    11     8     9   ar
    12     9    10   ar
    13    10    11   ar
    14    10    12    1
    15    13    14    2
    16    13    15    1
    17    15    16    1
    18    16    17    1
    19    17    18    2
    20    17    19   am
    21    19    20    1
    22    20    21    1
    23    21    22    1
    24    22    23    1
    25    23    24    1
    26    23    35    1
    27    24    25    1
    28    25    26    1
    29    26    27    1
    30    26    34    1
    31    27    28    1
    32    28    29   ar
    33    28    33   ar
    34    29    30   ar
    35    30    31   ar
    36    31    32   ar
    37    32    33   ar
    38    34    35    1
