@<TRIPOS>MOLECULE
28748_ChemDiv_E015-1663
 26 28 0 0 0
SMALL
GASTEIGER
Energy = 0

@<TRIPOS>ATOM
      1 N          -1.7290   -2.5130    0.0000 N.am    1  LIG1       -0.2521
      2 C          -2.6040   -3.0290    0.0000 C.ar    1  LIG1        0.0881
      3 C          -2.6040   -4.0330    0.0000 C.ar    1  LIG1        0.1522
      4 O          -1.7420   -4.5330    0.0000 O.3     1  LIG1       -0.4723
      5 C          -0.8630   -4.0330    0.0000 C.3     1  LIG1        0.2272
      6 C          -0.8630   -3.0290    0.0000 C.3     1  LIG1        0.1455
      7 C          -3.4670   -4.5250    0.0000 C.ar    1  LIG1        0.0382
      8 C          -4.3250   -4.0250    0.0000 C.ar    1  LIG1        0.0032
      9 C          -4.3250   -3.0290    0.0000 C.ar    1  LIG1        0.0015
     10 C          -3.4670   -2.5290    0.0000 C.ar    1  LIG1        0.0180
     11 C          -1.7290   -1.5170    0.0000 C.2     1  LIG1        0.2300
     12 O          -2.6040   -1.0250    0.0000 O.2     1  LIG1       -0.2745
     13 C          -0.8710   -1.0170    0.0000 C.3     1  LIG1        0.0952
     14 C          -0.8790   -0.0170    0.0000 C.3     1  LIG1        0.0964
     15 C          -0.0170    0.4960    0.0000 C.2     1  LIG1        0.2419
     16 O          -0.0210    1.4830    0.0000 O.2     1  LIG1       -0.2733
     17 N           0.8540   -0.0040    0.0000 N.am    1  LIG1       -0.2054
     18 C           1.7170    0.5000    0.0000 C.3     1  LIG1        0.1169
     19 C           1.7080    1.4960    0.0000 C.3     1  LIG1        0.0449
     20 C           2.5670    1.9880    0.0000 C.3     1  LIG1        0.0952
     21 N           2.5670    2.9880    0.0000 N.am    1  LIG1       -0.2795
     22 C           3.3790    3.5750    0.0000 C.2     1  LIG1        0.2257
     23 O           4.3210    3.2750    0.0000 O.2     1  LIG1       -0.2749
     24 C           3.0540    4.5330    0.0000 C.3     1  LIG1        0.0870
     25 C           2.0540    4.5210    0.0000 C.3     1  LIG1        0.0311
     26 C           1.7500    3.5710    0.0000 C.3     1  LIG1        0.0939
@<TRIPOS>BOND
     1     1     2    1
     2     1     6    1
     3     1    11   am
     4     2     3   ar
     5     2    10   ar
     6     3     4    1
     7     3     7   ar
     8     4     5    1
     9     5     6    1
    10     7     8   ar
    11     8     9   ar
    12     9    10   ar
    13    11    12    2
    14    11    13    1
    15    13    14    1
    16    14    15    1
    17    15    16    2
    18    15    17   am
    19    17    18    1
    20    18    19    1
    21    19    20    1
    22    20    21    1
    23    21    22   am
    24    21    26    1
    25    22    23    2
    26    22    24    1
    27    24    25    1
    28    25    26    1
