@<TRIPOS>MOLECULE
28746_ChemDiv_E015-1420
 30 34 0 0 0
SMALL
GASTEIGER
Energy = 0

@<TRIPOS>ATOM
      1 N          -2.1790   -1.0040    0.0000 N.am    1  LIG1       -0.2523
      2 C          -3.0500   -1.5170    0.0000 C.ar    1  LIG1        0.0881
      3 C          -3.0500   -2.5250    0.0000 C.ar    1  LIG1        0.1520
      4 O          -2.1920   -3.0210    0.0000 O.3     1  LIG1       -0.4761
      5 C          -1.3130   -2.5250    0.0000 C.3     1  LIG1        0.1861
      6 C          -1.3130   -1.5170    0.0000 C.3     1  LIG1        0.1416
      7 C          -0.4540   -3.0290    0.0000 C.3     1  LIG1        0.0491
      8 C          -3.9130   -3.0130    0.0000 C.ar    1  LIG1        0.0382
      9 C          -4.7750   -2.5130    0.0000 C.ar    1  LIG1        0.0032
     10 C          -4.7750   -1.5170    0.0000 C.ar    1  LIG1        0.0015
     11 C          -3.9130   -1.0170    0.0000 C.ar    1  LIG1        0.0180
     12 C          -2.1790   -0.0040    0.0000 C.2     1  LIG1        0.2300
     13 O          -3.0500    0.4830    0.0000 O.2     1  LIG1       -0.2745
     14 C          -1.3210    0.4920    0.0000 C.3     1  LIG1        0.0952
     15 C          -1.3290    1.4920    0.0000 C.3     1  LIG1        0.0964
     16 C          -0.4670    2.0040    0.0000 C.2     1  LIG1        0.2418
     17 N           0.4040    1.5040    0.0000 N.am    1  LIG1       -0.2072
     18 C           1.2710    2.0080    0.0000 C.3     1  LIG1        0.0953
     19 C           2.1420    1.5380    0.0000 C.3     1  LIG1        0.0185
     20 C           1.9670    0.5540    0.0000 C.3     1  LIG1        0.0017
     21 C           2.7960    0.0420    0.0000 C.3     1  LIG1        0.0001
     22 C           3.6080    0.7210    0.0000 C.3     1  LIG1        0.0000
     23 C           3.7630    1.7330    0.0000 C.3     1  LIG1        0.0001
     24 C           2.9170    2.2460    0.0000 C.3     1  LIG1        0.0017
     25 C           4.7710    1.8380    0.0000 C.3     1  LIG1        0.0000
     26 C           3.8630    1.1580    0.0000 C.3     1  LIG1        0.0001
     27 C           3.0830    1.6000    0.0000 C.3     1  LIG1        0.0017
     28 C           3.7130    0.1960    0.0000 C.3     1  LIG1        0.0000
     29 C           1.2540    3.0330    0.0000 C.3     1  LIG1        0.0234
     30 O          -0.4750    2.9920    0.0000 O.2     1  LIG1       -0.2733
@<TRIPOS>BOND
     1     1     2    1
     2     1     6    1
     3     1    12   am
     4     2     3   ar
     5     2    11   ar
     6     3     4    1
     7     3     8   ar
     8     4     5    1
     9     5     6    1
    10     5     7    1
    11     8     9   ar
    12     9    10   ar
    13    10    11   ar
    14    12    13    2
    15    12    14    1
    16    14    15    1
    17    15    16    1
    18    16    17   am
    19    16    30    2
    20    17    18    1
    21    18    19    1
    22    18    29    1
    23    19    20    1
    24    19    24    1
    25    19    27    1
    26    20    21    1
    27    21    22    1
    28    21    28    1
    29    22    23    1
    30    23    24    1
    31    23    25    1
    32    25    26    1
    33    26    27    1
    34    26    28    1
