@<TRIPOS>MOLECULE
28745_ChemDiv_5461-0015
 29 31 0 0 0
SMALL
GASTEIGER
Energy = 0

@<TRIPOS>ATOM
      1 C          -0.5670   -2.0580    0.0000 C.ar    1  LIG1        0.1905
      2 N          -1.3580   -1.4670    0.0000 N.ar    1  LIG1       -0.2196
      3 C          -2.1790   -2.0580    0.0000 C.ar    1  LIG1        0.1041
      4 C          -1.8710   -3.0130    0.0000 C.ar    1  LIG1        0.1013
      5 N          -0.8750   -3.0130    0.0000 N.ar    1  LIG1       -0.2197
      6 C          -2.5420   -3.7500    0.0000 C.ar    1  LIG1        0.0238
      7 C          -3.5080   -3.5420    0.0000 C.ar    1  LIG1        0.0385
      8 C          -3.8250   -2.5920    0.0000 C.ar    1  LIG1        0.1402
      9 C          -3.1630   -1.8500    0.0000 C.ar    1  LIG1        0.0576
     10 O          -4.8170   -2.3790    0.0000 O.3     1  LIG1       -0.4754
     11 C          -5.1380   -1.4420    0.0000 C.3     1  LIG1        0.2055
     12 C          -6.1170   -1.2460    0.0000 C.3     1  LIG1        0.0512
     13 S           0.3790   -1.7540    0.0000 S.3     1  LIG1       -0.0658
     14 C           0.6000   -0.7790    0.0000 C.3     1  LIG1        0.1519
     15 C           1.5670   -0.4630    0.0000 C.2     1  LIG1        0.2570
     16 N           1.7670    0.5040    0.0000 N.am    1  LIG1       -0.1785
     17 C           2.7210    0.8080    0.0000 C.ar    1  LIG1        0.0735
     18 C           2.9420    1.7750    0.0000 C.ar    1  LIG1        0.0177
     19 C           3.9000    2.0750    0.0000 C.ar    1  LIG1        0.0153
     20 C           4.1080    3.0630    0.0000 C.2     1  LIG1        0.0729
     21 O           3.3790    3.7540    0.0000 O.co2   1  LIG1       -0.5446
     22 O           5.0750    3.3630    0.0000 O.co2   1  LIG1       -0.5446
     23 C           4.6330    1.4130    0.0000 C.ar    1  LIG1        0.0023
     24 C           4.4130    0.4460    0.0000 C.ar    1  LIG1        0.0153
     25 C           5.1670   -0.2210    0.0000 C.2     1  LIG1        0.0729
     26 O           6.1170    0.0830    0.0000 O.co2   1  LIG1       -0.5446
     27 O           4.9500   -1.2000    0.0000 O.co2   1  LIG1       -0.5446
     28 C           3.4580    0.1420    0.0000 C.ar    1  LIG1        0.0177
     29 O           2.2960   -1.1420    0.0000 O.2     1  LIG1       -0.2720
@<TRIPOS>BOND
     1     1     2   ar
     2     1     5   ar
     3     1    13    1
     4     2     3   ar
     5     3     4   ar
     6     3     9   ar
     7     4     5   ar
     8     4     6   ar
     9     6     7   ar
    10     7     8   ar
    11     8     9   ar
    12     8    10    1
    13    10    11    1
    14    11    12    1
    15    13    14    1
    16    14    15    1
    17    15    16   am
    18    15    29    2
    19    16    17    1
    20    17    18   ar
    21    17    28   ar
    22    18    19   ar
    23    19    20    1
    24    19    23   ar
    25    20    21   ar
    26    20    22   ar
    27    23    24   ar
    28    24    25    1
    29    24    28   ar
    30    25    26   ar
    31    25    27   ar
