@<TRIPOS>MOLECULE
28742_ChemDiv_C800-0083
 16 17 0 0 0
SMALL
GASTEIGER
Energy = 0

@<TRIPOS>ATOM
      1 N           0.4330    1.0080    0.0000 N.pl3   1  LIG1       -0.2923
      2 C          -0.4290    1.5040    0.0000 C.ar    1  LIG1        0.0828
      3 C          -0.4290    2.5040    0.0000 C.ar    1  LIG1        0.1518
      4 O           0.4330    3.0040    0.0000 O.3     1  LIG1       -0.4724
      5 C           1.3040    2.5040    0.0000 C.3     1  LIG1        0.2268
      6 C           1.3040    1.5040    0.0000 C.3     1  LIG1        0.1390
      7 C          -1.2920    3.0040    0.0000 C.ar    1  LIG1        0.0382
      8 C          -2.1630    2.5040    0.0000 C.ar    1  LIG1        0.0032
      9 C          -2.1630    1.5040    0.0000 C.ar    1  LIG1        0.0015
     10 C          -1.2920    1.0080    0.0000 C.ar    1  LIG1        0.0176
     11 C           0.4330    0.0080    0.0000 C.3     1  LIG1        0.2021
     12 C           1.2960   -0.4920    0.0000 C.2     1  LIG1        0.3375
     13 O           2.1580    0.0080    0.0000 O.2     1  LIG1       -0.2482
     14 O           1.2960   -1.4920    0.0000 O.3     1  LIG1       -0.4473
     15 C           2.1580   -1.9920    0.0000 C.3     1  LIG1        0.2086
     16 C           2.1580   -3.0000    0.0000 C.3     1  LIG1        0.0513
@<TRIPOS>BOND
     1     1     2    1
     2     1     6    1
     3     1    11    1
     4     2     3   ar
     5     2    10   ar
     6     3     4    1
     7     3     7   ar
     8     4     5    1
     9     5     6    1
    10     7     8   ar
    11     8     9   ar
    12     9    10   ar
    13    11    12    1
    14    12    13    2
    15    12    14    1
    16    14    15    1
    17    15    16    1
