@<TRIPOS>MOLECULE
28740_ChemDiv_C798-0299
 30 32 0 0 0
SMALL
GASTEIGER
Energy = 0

@<TRIPOS>ATOM
      1 N           3.9000    0.9920    0.0000 N.am    1  LIG1       -0.2530
      2 C           3.0290    1.5000    0.0000 C.ar    1  LIG1        0.0878
      3 C           3.0380    2.5000    0.0000 C.ar    1  LIG1        0.1528
      4 O           3.9000    3.0000    0.0000 O.3     1  LIG1       -0.4643
      5 C           4.7710    2.5000    0.0000 C.3     1  LIG1        0.2900
      6 C           4.7710    1.4920    0.0000 C.2     1  LIG1        0.2739
      7 O           5.6330    0.9920    0.0000 O.2     1  LIG1       -0.2705
      8 C           2.1630    3.0000    0.0000 C.ar    1  LIG1        0.0379
      9 C           1.3000    2.4920    0.0000 C.ar    1  LIG1       -0.0011
     10 C           1.3000    1.4920    0.0000 C.ar    1  LIG1       -0.0204
     11 C           2.1630    0.9920    0.0000 C.ar    1  LIG1        0.0137
     12 C           0.4380    1.0000    0.0000 C.3     1  LIG1        0.0311
     13 C           3.8920   -0.0080    0.0000 C.3     1  LIG1        0.0989
     14 C           3.0290   -0.4960    0.0000 C.3     1  LIG1        0.0315
     15 C           3.0290   -1.4960    0.0000 C.3     1  LIG1        0.0886
     16 C           2.1580   -1.9960    0.0000 C.2     1  LIG1        0.2414
     17 O           2.1500   -2.9960    0.0000 O.2     1  LIG1       -0.2733
     18 N           1.2960   -1.4960    0.0000 N.am    1  LIG1       -0.2054
     19 C           0.4330   -1.9960    0.0000 C.3     1  LIG1        0.1166
     20 C          -0.4420   -1.5080    0.0000 C.3     1  LIG1        0.0407
     21 C          -1.3040   -2.0130    0.0000 C.3     1  LIG1        0.0743
     22 N          -2.1670   -1.5130    0.0000 N.3     1  LIG1       -0.2627
     23 C          -2.1670   -0.5130    0.0000 C.3     1  LIG1        0.1359
     24 C          -3.0330   -0.0250    0.0000 C.3     1  LIG1        0.1563
     25 N          -3.9000   -0.5250    0.0000 N.4     1  LIG1        0.3794
     26 C          -3.8960   -1.5210    0.0000 C.3     1  LIG1        0.1563
     27 C          -3.0330   -2.0210    0.0000 C.3     1  LIG1        0.1359
     28 C          -4.7630   -0.0250    0.0000 C.3     1  LIG1        0.1387
     29 C          -4.7750    0.9750    0.0000 C.3     1  LIG1        0.0627
     30 C          -5.6380    1.4750    0.0000 C.3     1  LIG1        0.0063
@<TRIPOS>BOND
     1     1     2    1
     2     1     6   am
     3     1    13    1
     4     2     3   ar
     5     2    11   ar
     6     3     4    1
     7     3     8   ar
     8     4     5    1
     9     5     6    1
    10     6     7    2
    11     8     9   ar
    12     9    10   ar
    13    10    11   ar
    14    10    12    1
    15    13    14    1
    16    14    15    1
    17    15    16    1
    18    16    17    2
    19    16    18   am
    20    18    19    1
    21    19    20    1
    22    20    21    1
    23    21    22    1
    24    22    23    1
    25    22    27    1
    26    23    24    1
    27    24    25    1
    28    25    26    1
    29    25    28    1
    30    26    27    1
    31    28    29    1
    32    29    30    1
