@<TRIPOS>MOLECULE
28750_ChemDiv_E216-1378
 34 37 0 0 0
SMALL
GASTEIGER
Energy = 0

@<TRIPOS>ATOM
      1 N          -2.1460    3.2500    0.0000 N.am    1  LIG1       -0.2366
      2 C          -2.1540    2.2500    0.0000 C.2     1  LIG1        0.3111
      3 N          -1.2920    1.7500    0.0000 N.am    1  LIG1       -0.2638
      4 C          -1.2920    0.7460    0.0000 C.3     1  LIG1        0.0954
      5 C          -0.4420    0.2460    0.0000 C.3     1  LIG1        0.0307
      6 C           0.4330    0.7460    0.0000 C.3     1  LIG1        0.0816
      7 C           1.2960    0.2380    0.0000 C.2     1  LIG1        0.2410
      8 N           1.2880   -0.7540    0.0000 N.am    1  LIG1       -0.2071
      9 C           2.1630   -1.2710    0.0000 C.3     1  LIG1        0.0987
     10 C           3.0130   -0.7540    0.0000 C.3     1  LIG1        0.0433
     11 C           3.8750   -1.2540    0.0000 C.3     1  LIG1        0.0985
     12 N           3.8830   -2.2540    0.0000 N.am    1  LIG1       -0.2459
     13 C           4.7420   -2.7500    0.0000 C.2     1  LIG1        0.4049
     14 O           5.6130   -2.2540    0.0000 O.2     1  LIG1       -0.2262
     15 O           4.7420   -3.7540    0.0000 O.3     1  LIG1       -0.4345
     16 C           5.6040   -4.2540    0.0000 C.3     1  LIG1        0.2102
     17 C           5.5960   -5.2540    0.0000 C.3     1  LIG1        0.0513
     18 C           3.0170   -2.7540    0.0000 C.3     1  LIG1        0.0985
     19 C           2.1540   -2.2540    0.0000 C.3     1  LIG1        0.0433
     20 O           2.1670    0.7330    0.0000 O.2     1  LIG1       -0.2734
     21 C           0.4380    1.7380    0.0000 C.3     1  LIG1        0.0307
     22 C          -0.4250    2.2500    0.0000 C.3     1  LIG1        0.0954
     23 O          -3.0210    1.7500    0.0000 O.2     1  LIG1       -0.2520
     24 C          -3.0210    3.7500    0.0000 C.ar    1  LIG1        0.0890
     25 C          -3.0130    4.7500    0.0000 C.ar    1  LIG1        0.1520
     26 O          -2.1460    5.2540    0.0000 O.3     1  LIG1       -0.4761
     27 C          -1.2750    4.7500    0.0000 C.3     1  LIG1        0.1862
     28 C          -1.2750    3.7500    0.0000 C.3     1  LIG1        0.1432
     29 C          -0.4130    5.2500    0.0000 C.3     1  LIG1        0.0491
     30 C          -3.8880    5.2500    0.0000 C.ar    1  LIG1        0.0379
     31 C          -4.7500    4.7500    0.0000 C.ar    1  LIG1       -0.0011
     32 C          -4.7500    3.7500    0.0000 C.ar    1  LIG1       -0.0204
     33 C          -3.8880    3.2500    0.0000 C.ar    1  LIG1        0.0138
     34 C          -5.6170    3.2500    0.0000 C.3     1  LIG1        0.0311
@<TRIPOS>BOND
     1     1     2   am
     2     1    24    1
     3     1    28    1
     4     2     3   am
     5     2    23    2
     6     3     4    1
     7     3    22    1
     8     4     5    1
     9     5     6    1
    10     6     7    1
    11     6    21    1
    12     7     8   am
    13     7    20    2
    14     8     9    1
    15     9    10    1
    16     9    19    1
    17    10    11    1
    18    11    12    1
    19    12    13   am
    20    12    18    1
    21    13    14    2
    22    13    15    1
    23    15    16    1
    24    16    17    1
    25    18    19    1
    26    21    22    1
    27    24    25   ar
    28    24    33   ar
    29    25    26    1
    30    25    30   ar
    31    26    27    1
    32    27    28    1
    33    27    29    1
    34    30    31   ar
    35    31    32   ar
    36    32    33   ar
    37    32    34    1
