@<TRIPOS>MOLECULE
28755_ChemDiv_8017-1963
 29 34 0 0 0
SMALL
GASTEIGER
Energy = 0

@<TRIPOS>ATOM
      1 C          -2.8290    0.7710    0.0000 C.3     1  LIG1        0.0457
      2 N          -1.8710    0.7710    0.0000 N.4     1  LIG1        0.3718
      3 C          -1.3710    1.6420    0.0000 C.3     1  LIG1        0.1600
      4 C          -0.3670    1.6420    0.0000 C.3     1  LIG1        0.1565
      5 N           0.1290    0.7710    0.0000 N.am    1  LIG1       -0.2674
      6 C           1.1290    0.7710    0.0000 C.2     1  LIG1        0.2374
      7 C           1.6290    1.6420    0.0000 C.3     1  LIG1        0.1490
      8 S           2.6290    1.6420    0.0000 S.3     1  LIG1       -0.0786
      9 C           3.1290    0.7710    0.0000 C.ar    1  LIG1        0.1368
     10 N           4.1250    0.6670    0.0000 N.ar    1  LIG1       -0.2320
     11 C           4.3290   -0.3040    0.0000 C.ar    1  LIG1        0.0884
     12 C           3.4670   -0.8040    0.0000 C.ar    1  LIG1        0.0490
     13 S           2.7170   -0.1380    0.0000 S.2     1  LIG1       -0.0603
     14 C           3.4670   -1.8040    0.0000 C.ar    1  LIG1        0.0080
     15 C           4.3290   -2.3130    0.0000 C.ar    1  LIG1        0.0006
     16 C           5.1960   -1.8130    0.0000 C.ar    1  LIG1        0.0016
     17 C           5.1960   -0.8040    0.0000 C.ar    1  LIG1        0.0196
     18 O           1.6290   -0.0920    0.0000 O.2     1  LIG1       -0.2739
     19 C          -0.3670   -0.0920    0.0000 C.3     1  LIG1        0.1565
     20 C          -1.3670   -0.0920    0.0000 C.3     1  LIG1        0.1600
     21 C          -3.4290    0.3670    0.0000 C.3     1  LIG1        0.0512
     22 C          -4.6080    0.7040    0.0000 C.3     1  LIG1        0.0055
     23 C          -4.6080    1.8040    0.0000 C.3     1  LIG1        0.0004
     24 C          -3.7210    2.3170    0.0000 C.3     1  LIG1        0.0055
     25 C          -2.8290    1.8040    0.0000 C.3     1  LIG1        0.0512
     26 C          -4.2330    1.4210    0.0000 C.3     1  LIG1        0.0004
     27 C          -4.2330    0.2960    0.0000 C.3     1  LIG1        0.0055
     28 C          -3.3960    0.0250    0.0000 C.3     1  LIG1        0.0512
     29 C          -5.2000    0.0250    0.0000 C.3     1  LIG1        0.0004
@<TRIPOS>BOND
     1     1     2    1
     2     1    21    1
     3     1    25    1
     4     1    28    1
     5     2     3    1
     6     2    20    1
     7     3     4    1
     8     4     5    1
     9     5     6   am
    10     5    19    1
    11     6     7    1
    12     6    18    2
    13     7     8    1
    14     8     9    1
    15     9    10   ar
    16     9    13   ar
    17    10    11   ar
    18    11    12   ar
    19    11    17   ar
    20    12    13   ar
    21    12    14   ar
    22    14    15   ar
    23    15    16   ar
    24    16    17   ar
    25    19    20    1
    26    21    22    1
    27    22    23    1
    28    22    29    1
    29    23    24    1
    30    24    25    1
    31    24    26    1
    32    26    27    1
    33    27    28    1
    34    27    29    1
