@<TRIPOS>MOLECULE
28758_ChemDiv_2995-0017
 31 34 0 0 0
SMALL
GASTEIGER
Energy = 0

@<TRIPOS>ATOM
      1 N           3.8830   -1.2330    0.0000 N.am    1  LIG1       -0.2088
      2 C           4.1170   -2.1920    0.0000 C.2     1  LIG1        0.3294
      3 N           5.0960   -2.2670    0.0000 N.am    1  LIG1       -0.1827
      4 C           5.5000   -1.4000    0.0000 C.3     1  LIG1        0.1489
      5 C           4.7460   -0.7290    0.0000 C.2     1  LIG1        0.2504
      6 O           4.8380    0.2880    0.0000 O.2     1  LIG1       -0.2726
      7 C           6.0580   -2.2290    0.0000 C.3     1  LIG1        0.0311
      8 C           5.6880   -0.4040    0.0000 C.3     1  LIG1        0.0311
      9 O           3.4630   -2.9580    0.0000 O.2     1  LIG1       -0.2503
     10 C           3.0500   -0.7290    0.0000 C.3     1  LIG1        0.1392
     11 C           2.1920   -1.2330    0.0000 C.3     1  LIG1        0.2155
     12 C           1.3420   -0.7290    0.0000 C.3     1  LIG1        0.2398
     13 O           0.4540   -1.2330    0.0000 O.3     1  LIG1       -0.4727
     14 C          -0.4460   -0.6960    0.0000 C.ar    1  LIG1        0.1388
     15 C          -0.4460    0.3250    0.0000 C.ar    1  LIG1        0.0382
     16 C          -1.3080    0.8040    0.0000 C.ar    1  LIG1        0.0184
     17 C          -2.1540    0.3250    0.0000 C.ar    1  LIG1        0.0608
     18 N          -2.9960    0.8420    0.0000 N.am    1  LIG1       -0.2081
     19 C          -3.0540    1.8290    0.0000 C.2     1  LIG1        0.2354
     20 C          -4.0580    2.0750    0.0000 C.3     1  LIG1        0.0907
     21 C          -4.5630    1.2170    0.0000 C.3     1  LIG1        0.0907
     22 C          -3.9580    0.4670    0.0000 C.2     1  LIG1        0.2354
     23 O          -4.1170   -0.5130    0.0000 O.2     1  LIG1       -0.2741
     24 C          -5.5710    1.2170    0.0000 C.3     1  LIG1        0.0353
     25 C          -6.0580    2.0830    0.0000 C.2     1  LIG1       -0.0302
     26 C          -5.5330    2.9630    0.0000 C.2     1  LIG1       -0.0302
     27 C          -4.5330    2.9460    0.0000 C.3     1  LIG1        0.0353
     28 O          -2.3710    2.5580    0.0000 O.2     1  LIG1       -0.2741
     29 C          -2.1540   -0.6960    0.0000 C.ar    1  LIG1        0.0184
     30 C          -1.3080   -1.2130    0.0000 C.ar    1  LIG1        0.0382
     31 O           2.1920   -2.2290    0.0000 O.3     1  LIG1       -0.2173
@<TRIPOS>BOND
     1     1     2   am
     2     1     5   am
     3     1    10    1
     4     2     3   am
     5     2     9    2
     6     3     4    1
     7     4     5    1
     8     4     7    1
     9     4     8    1
    10     5     6    2
    11    10    11    1
    12    11    12    1
    13    11    31    1
    14    12    13    1
    15    13    14    1
    16    14    15   ar
    17    14    30   ar
    18    15    16   ar
    19    16    17   ar
    20    17    18    1
    21    17    29   ar
    22    18    19   am
    23    18    22   am
    24    19    20    1
    25    19    28    2
    26    20    21    1
    27    20    27    1
    28    21    22    1
    29    21    24    1
    30    22    23    2
    31    24    25    1
    32    25    26    2
    33    26    27    1
    34    29    30   ar
