@<TRIPOS>MOLECULE
28752_ChemDiv_E216-1474
 33 37 0 0 0
SMALL
GASTEIGER
Energy = 0

@<TRIPOS>ATOM
      1 N          -1.2750    2.7210    0.0000 N.am    1  LIG1       -0.2366
      2 C          -1.2880    1.7210    0.0000 C.2     1  LIG1        0.3111
      3 N          -0.4250    1.2210    0.0000 N.am    1  LIG1       -0.2638
      4 C          -0.4250    0.2210    0.0000 C.3     1  LIG1        0.0954
      5 C           0.4250   -0.2790    0.0000 C.3     1  LIG1        0.0307
      6 C           1.3000    0.2210    0.0000 C.3     1  LIG1        0.0816
      7 C           2.1630   -0.2920    0.0000 C.2     1  LIG1        0.2412
      8 N           2.1540   -1.2830    0.0000 N.am    1  LIG1       -0.2027
      9 C           2.9710   -1.7670    0.0000 C.3     1  LIG1        0.1172
     10 C           2.9880   -2.7500    0.0000 C.ar    1  LIG1       -0.0065
     11 C           3.8500   -3.2540    0.0000 C.ar    1  LIG1       -0.0245
     12 C           4.7460   -2.8000    0.0000 C.3     1  LIG1        0.0262
     13 C           4.7130   -1.7670    0.0000 C.3     1  LIG1        0.0068
     14 C           3.8540   -1.2670    0.0000 C.3     1  LIG1        0.0265
     15 C           3.8830   -4.2830    0.0000 C.ar    1  LIG1       -0.0045
     16 C           2.9830   -4.7250    0.0000 C.ar    1  LIG1       -0.0003
     17 C           2.1250   -4.2250    0.0000 C.ar    1  LIG1       -0.0003
     18 C           2.1080   -3.2380    0.0000 C.ar    1  LIG1       -0.0029
     19 O           3.0330    0.2040    0.0000 O.2     1  LIG1       -0.2733
     20 C           1.3040    1.2130    0.0000 C.3     1  LIG1        0.0307
     21 C           0.4380    1.7210    0.0000 C.3     1  LIG1        0.0954
     22 O          -2.1500    1.2210    0.0000 O.2     1  LIG1       -0.2520
     23 C          -2.1500    3.2210    0.0000 C.ar    1  LIG1        0.0890
     24 C          -2.1420    4.2170    0.0000 C.ar    1  LIG1        0.1520
     25 O          -1.2750    4.7250    0.0000 O.3     1  LIG1       -0.4761
     26 C          -0.4080    4.2170    0.0000 C.3     1  LIG1        0.1862
     27 C          -0.4080    3.2210    0.0000 C.3     1  LIG1        0.1432
     28 C           0.4540    4.7210    0.0000 C.3     1  LIG1        0.0491
     29 C          -3.0170    4.7210    0.0000 C.ar    1  LIG1        0.0379
     30 C          -3.8790    4.2170    0.0000 C.ar    1  LIG1       -0.0011
     31 C          -3.8790    3.2210    0.0000 C.ar    1  LIG1       -0.0204
     32 C          -3.0170    2.7210    0.0000 C.ar    1  LIG1        0.0138
     33 C          -4.7500    2.7210    0.0000 C.3     1  LIG1        0.0311
@<TRIPOS>BOND
     1     1     2   am
     2     1    23    1
     3     1    27    1
     4     2     3   am
     5     2    22    2
     6     3     4    1
     7     3    21    1
     8     4     5    1
     9     5     6    1
    10     6     7    1
    11     6    20    1
    12     7     8   am
    13     7    19    2
    14     8     9    1
    15     9    10    1
    16     9    14    1
    17    10    11   ar
    18    10    18   ar
    19    11    12    1
    20    11    15   ar
    21    12    13    1
    22    13    14    1
    23    15    16   ar
    24    16    17   ar
    25    17    18   ar
    26    20    21    1
    27    23    24   ar
    28    23    32   ar
    29    24    25    1
    30    24    29   ar
    31    25    26    1
    32    26    27    1
    33    26    28    1
    34    29    30   ar
    35    30    31   ar
    36    31    32   ar
    37    31    33    1
