@<TRIPOS>MOLECULE
28753_ChemDiv_8016-4349
 26 29 0 0 0
SMALL
GASTEIGER
Energy = 0

@<TRIPOS>ATOM
      1 N           2.1170   -0.5290    0.0000 N.am    1  LIG1       -0.2568
      2 C           1.5540   -1.3500    0.0000 C.3     1  LIG1        0.1931
      3 N           0.6040   -1.0420    0.0000 N.am    1  LIG1       -0.2596
      4 C          -0.2580   -1.5380    0.0000 C.2     1  LIG1        0.2383
      5 C          -1.1210   -1.0420    0.0000 C.3     1  LIG1        0.1491
      6 S          -1.1460   -0.0460    0.0000 S.3     1  LIG1       -0.0786
      7 C          -2.0580    0.4670    0.0000 C.ar    1  LIG1        0.1368
      8 N          -2.1460    1.4420    0.0000 N.ar    1  LIG1       -0.2320
      9 C          -3.1250    1.6540    0.0000 C.ar    1  LIG1        0.0884
     10 C          -3.6210    0.7920    0.0000 C.ar    1  LIG1        0.0490
     11 S          -2.9380    0.0210    0.0000 S.2     1  LIG1       -0.0603
     12 C          -4.6210    0.7920    0.0000 C.ar    1  LIG1        0.0080
     13 C          -5.1290    1.6540    0.0000 C.ar    1  LIG1        0.0006
     14 C          -4.5960    2.5420    0.0000 C.ar    1  LIG1        0.0016
     15 C          -3.6210    2.5170    0.0000 C.ar    1  LIG1        0.0196
     16 O          -0.2330   -2.5380    0.0000 O.2     1  LIG1       -0.2739
     17 C           0.6040   -0.0460    0.0000 C.3     1  LIG1        0.1165
     18 C           1.5380    0.2790    0.0000 C.3     1  LIG1        0.1168
     19 C           3.1170   -0.5290    0.0000 C.2     1  LIG1        0.2503
     20 O           3.6130   -1.4170    0.0000 O.2     1  LIG1       -0.2699
     21 C           3.6290    0.3290    0.0000 C.ar    1  LIG1        0.0536
     22 C           4.6170    0.3290    0.0000 C.ar    1  LIG1        0.0045
     23 C           5.1250    1.1920    0.0000 C.ar    1  LIG1        0.0001
     24 C           4.6380    2.0540    0.0000 C.ar    1  LIG1        0.0000
     25 C           3.6290    2.0540    0.0000 C.ar    1  LIG1        0.0001
     26 C           3.1420    1.2080    0.0000 C.ar    1  LIG1        0.0045
@<TRIPOS>BOND
     1     1     2    1
     2     1    18    1
     3     1    19   am
     4     2     3    1
     5     3     4   am
     6     3    17    1
     7     4     5    1
     8     4    16    2
     9     5     6    1
    10     6     7    1
    11     7     8   ar
    12     7    11   ar
    13     8     9   ar
    14     9    10   ar
    15     9    15   ar
    16    10    11   ar
    17    10    12   ar
    18    12    13   ar
    19    13    14   ar
    20    14    15   ar
    21    17    18    1
    22    19    20    2
    23    19    21    1
    24    21    22   ar
    25    21    26   ar
    26    22    23   ar
    27    23    24   ar
    28    24    25   ar
    29    25    26   ar
