@<TRIPOS>MOLECULE
28767_ChemDiv_2910-0498
 27 29 0 0 0
SMALL
GASTEIGER
Energy = 0

@<TRIPOS>ATOM
      1 C          -2.5920   -2.7960    0.0000 C.ar    1  LIG1        0.1721
      2 C          -3.4790   -2.2830    0.0000 C.ar    1  LIG1        0.1724
      3 C          -3.4790   -1.2630    0.0000 C.ar    1  LIG1        0.0397
      4 C          -2.6080   -0.7670    0.0000 C.ar    1  LIG1       -0.0007
      5 C          -1.7540   -1.2790    0.0000 C.ar    1  LIG1       -0.0128
      6 C          -1.7540   -2.2830    0.0000 C.ar    1  LIG1        0.0360
      7 C          -0.8630   -0.7830    0.0000 C.3     1  LIG1        0.0953
      8 C          -0.8630    0.2130    0.0000 C.3     1  LIG1        0.2059
      9 N          -0.0250    0.7250    0.0000 N.4     1  LIG1        0.4521
     10 C           0.9000    1.2380    0.0000 C.3     1  LIG1        0.2285
     11 C           0.9290    2.3210    0.0000 C.ar    1  LIG1        0.0433
     12 C           1.7580    2.8290    0.0000 C.ar    1  LIG1        0.0391
     13 C           1.7580    3.7960    0.0000 C.ar    1  LIG1        0.1452
     14 O           2.6290    4.2830    0.0000 O.3     1  LIG1       -0.4535
     15 C           3.4880    3.7960    0.0000 C.ar    1  LIG1        0.1453
     16 C           4.3210    4.3040    0.0000 C.ar    1  LIG1        0.0375
     17 C           5.1880    3.7960    0.0000 C.ar    1  LIG1        0.0031
     18 C           5.1710    2.8170    0.0000 C.ar    1  LIG1        0.0002
     19 C           4.3250    2.3250    0.0000 C.ar    1  LIG1        0.0031
     20 C           3.4630    2.8290    0.0000 C.ar    1  LIG1        0.0375
     21 C           0.9000    4.3000    0.0000 C.ar    1  LIG1        0.0375
     22 C           0.0380    3.7960    0.0000 C.ar    1  LIG1        0.0030
     23 C           0.0380    2.8170    0.0000 C.ar    1  LIG1        0.0018
     24 O          -4.3460   -2.7960    0.0000 O.3     1  LIG1       -0.4684
     25 C          -5.1920   -2.2880    0.0000 C.3     1  LIG1        0.2526
     26 O          -2.5920   -3.8170    0.0000 O.3     1  LIG1       -0.4684
     27 C          -3.4380   -4.3040    0.0000 C.3     1  LIG1        0.2526
@<TRIPOS>BOND
     1     1     2   ar
     2     1     6   ar
     3     1    26    1
     4     2     3   ar
     5     2    24    1
     6     3     4   ar
     7     4     5   ar
     8     5     6   ar
     9     5     7    1
    10     7     8    1
    11     8     9    1
    12     9    10    1
    13    10    11    1
    14    11    12   ar
    15    11    23   ar
    16    12    13   ar
    17    13    14    1
    18    13    21   ar
    19    14    15    1
    20    15    16   ar
    21    15    20   ar
    22    16    17   ar
    23    17    18   ar
    24    18    19   ar
    25    19    20   ar
    26    21    22   ar
    27    22    23   ar
    28    24    25    1
    29    26    27    1
