@<TRIPOS>MOLECULE
28765_ChemDiv_8010-4375
 19 21 0 0 0
SMALL
GASTEIGER
Energy = 0

@<TRIPOS>ATOM
      1 N           1.3580    0.3920    0.0000 N.ar    1  LIG1       -0.2121
      2 C           1.3580   -0.5380    0.0000 C.ar    1  LIG1        0.2066
      3 O           2.1790   -1.0000    0.0000 O.2     1  LIG1       -0.4384
      4 C           2.9880   -0.5380    0.0000 C.ar    1  LIG1        0.1644
      5 C           2.9880    0.3920    0.0000 C.ar    1  LIG1        0.1185
      6 C           3.8130    0.8630    0.0000 C.ar    1  LIG1        0.0223
      7 C           4.6330    0.4080    0.0000 C.ar    1  LIG1        0.0017
      8 C           4.6330   -0.5380    0.0000 C.ar    1  LIG1        0.0032
      9 C           3.8250   -0.9830    0.0000 C.ar    1  LIG1        0.0391
     10 C           0.5080   -1.0130    0.0000 C.3     1  LIG1        0.0973
     11 C          -0.3500   -0.5040    0.0000 C.3     1  LIG1        0.0719
     12 S          -1.1960   -0.9830    0.0000 S.3     1  LIG1       -0.1131
     13 C          -2.0460   -0.4920    0.0000 C.ar    1  LIG1        0.0253
     14 C          -2.9000   -1.0000    0.0000 C.ar    1  LIG1        0.0067
     15 C          -3.7710   -0.4920    0.0000 C.ar    1  LIG1        0.0072
     16 C          -3.7710    0.5040    0.0000 C.ar    1  LIG1        0.0346
     17 BR         -4.6380    1.0170    0.0000 Br      1  LIG1       -0.0490
     18 C          -2.9000    1.0170    0.0000 C.ar    1  LIG1        0.0072
     19 C          -2.0460    0.5040    0.0000 C.ar    1  LIG1        0.0067
@<TRIPOS>BOND
     1     1     2   ar
     2     1     5   ar
     3     2     3   ar
     4     2    10    1
     5     3     4   ar
     6     4     5   ar
     7     4     9   ar
     8     5     6   ar
     9     6     7   ar
    10     7     8   ar
    11     8     9   ar
    12    10    11    1
    13    11    12    1
    14    12    13    1
    15    13    14   ar
    16    13    19   ar
    17    14    15   ar
    18    15    16   ar
    19    16    17    1
    20    16    18   ar
    21    18    19   ar
