@<TRIPOS>MOLECULE
28763_ChemDiv_2900-0486
 24 27 0 0 0
SMALL
GASTEIGER
Energy = 0

@<TRIPOS>ATOM
      1 S          -0.7290   -0.2210    0.0000 S.O2    1  LIG1        0.0092
      2 C          -1.6080   -0.7540    0.0000 C.ar    1  LIG1        0.1057
      3 C          -2.4580   -0.2460    0.0000 C.ar    1  LIG1        0.0183
      4 C          -3.3130   -0.7540    0.0000 C.ar    1  LIG1        0.0013
      5 C          -3.3130   -1.7540    0.0000 C.ar    1  LIG1        0.0001
      6 C          -2.4580   -2.2420    0.0000 C.ar    1  LIG1        0.0013
      7 C          -1.6080   -1.7540    0.0000 C.ar    1  LIG1        0.0183
      8 C          -4.1960   -2.2420    0.0000 C.ar    1  LIG1        0.0000
      9 C          -5.0500   -1.7540    0.0000 C.ar    1  LIG1        0.0000
     10 C          -5.0500   -0.7540    0.0000 C.ar    1  LIG1        0.0000
     11 C          -4.1960   -0.2460    0.0000 C.ar    1  LIG1        0.0000
     12 C           0.1250    0.2960    0.0000 C.3     1  LIG1        0.1656
     13 C           1.0000   -0.1920    0.0000 C.3     1  LIG1        0.1110
     14 C           1.8750    0.3170    0.0000 C.ar    1  LIG1        0.2075
     15 N           2.0750    1.2920    0.0000 N.ar    1  LIG1       -0.2120
     16 C           3.0500    1.4250    0.0000 C.ar    1  LIG1        0.1185
     17 C           3.4790    0.5080    0.0000 C.ar    1  LIG1        0.1644
     18 O           2.7500   -0.1710    0.0000 O.2     1  LIG1       -0.4384
     19 C           4.4880    0.4380    0.0000 C.ar    1  LIG1        0.0391
     20 C           5.0460    1.2710    0.0000 C.ar    1  LIG1        0.0032
     21 C           4.5790    2.1710    0.0000 C.ar    1  LIG1        0.0017
     22 C           3.6040    2.2460    0.0000 C.ar    1  LIG1        0.0223
     23 O          -0.2210   -1.1000    0.0000 O.2     1  LIG1       -0.1686
     24 O          -1.2710    0.6330    0.0000 O.2     1  LIG1       -0.1686
@<TRIPOS>BOND
     1     1     2    1
     2     1    12    1
     3     1    23    2
     4     1    24    2
     5     2     3   ar
     6     2     7   ar
     7     3     4   ar
     8     4     5   ar
     9     4    11   ar
    10     5     6   ar
    11     5     8   ar
    12     6     7   ar
    13     8     9   ar
    14     9    10   ar
    15    10    11   ar
    16    12    13    1
    17    13    14    1
    18    14    15   ar
    19    14    18   ar
    20    15    16   ar
    21    16    17   ar
    22    16    22   ar
    23    17    18   ar
    24    17    19   ar
    25    19    20   ar
    26    20    21   ar
    27    21    22   ar
