@<TRIPOS>MOLECULE
28776_ChemDiv_E216-5251
 26 29 0 0 0
SMALL
GASTEIGER
Energy = 0

@<TRIPOS>ATOM
      1 N           0.0000    0.7460    0.0000 N.am    1  LIG1       -0.2351
      2 C           0.0000   -0.2540    0.0000 C.2     1  LIG1        0.3314
      3 N           0.8670   -0.7540    0.0000 N.am    1  LIG1       -0.1623
      4 C           0.8670   -1.7540    0.0000 C.ar    1  LIG1        0.0706
      5 C           1.7330   -2.2540    0.0000 C.ar    1  LIG1       -0.0107
      6 C           1.7330   -3.2500    0.0000 C.ar    1  LIG1       -0.0249
      7 C           0.8670   -3.7500    0.0000 C.ar    1  LIG1       -0.0045
      8 C           0.0000   -3.2500    0.0000 C.ar    1  LIG1        0.0010
      9 C           0.0000   -2.2540    0.0000 C.ar    1  LIG1        0.0163
     10 C           2.5920   -3.7500    0.0000 C.3     1  LIG1        0.0261
     11 C           3.4580   -3.2500    0.0000 C.3     1  LIG1        0.0050
     12 C           3.4580   -2.2540    0.0000 C.3     1  LIG1        0.0051
     13 C           2.5920   -1.7540    0.0000 C.3     1  LIG1        0.0274
     14 O          -0.8540   -0.7540    0.0000 O.2     1  LIG1       -0.2501
     15 C          -0.8540    1.2460    0.0000 C.ar    1  LIG1        0.0891
     16 C          -0.8540    2.2460    0.0000 C.ar    1  LIG1        0.1520
     17 O           0.0000    2.7540    0.0000 O.3     1  LIG1       -0.4761
     18 C           0.8670    2.2460    0.0000 C.3     1  LIG1        0.1861
     19 C           0.8670    1.2460    0.0000 C.3     1  LIG1        0.1432
     20 C           1.7460    2.7540    0.0000 C.3     1  LIG1        0.0454
     21 C           1.7460    3.7540    0.0000 C.3     1  LIG1        0.0039
     22 C          -1.7170    2.7540    0.0000 C.ar    1  LIG1        0.0379
     23 C          -2.5790    2.2460    0.0000 C.ar    1  LIG1       -0.0011
     24 C          -2.5790    1.2460    0.0000 C.ar    1  LIG1       -0.0204
     25 C          -1.7170    0.7460    0.0000 C.ar    1  LIG1        0.0138
     26 C          -3.4630    0.7420    0.0000 C.3     1  LIG1        0.0311
@<TRIPOS>BOND
     1     1     2   am
     2     1    15    1
     3     1    19    1
     4     2     3   am
     5     2    14    2
     6     3     4    1
     7     4     5   ar
     8     4     9   ar
     9     5     6   ar
    10     5    13    1
    11     6     7   ar
    12     6    10    1
    13     7     8   ar
    14     8     9   ar
    15    10    11    1
    16    11    12    1
    17    12    13    1
    18    15    16   ar
    19    15    25   ar
    20    16    17    1
    21    16    22   ar
    22    17    18    1
    23    18    19    1
    24    18    20    1
    25    20    21    1
    26    22    23   ar
    27    23    24   ar
    28    24    25   ar
    29    24    26    1
