@<TRIPOS>MOLECULE
28770_ChemDiv_E216-1519
 35 40 0 0 0
SMALL
GASTEIGER
Energy = 0

@<TRIPOS>ATOM
      1 N          -1.2000    2.8210    0.0000 N.am    1  LIG1       -0.2366
      2 C          -1.2080    1.8210    0.0000 C.2     1  LIG1        0.3111
      3 N          -0.3420    1.3210    0.0000 N.am    1  LIG1       -0.2638
      4 C          -0.3420    0.3170    0.0000 C.3     1  LIG1        0.0954
      5 C           0.5080   -0.1830    0.0000 C.3     1  LIG1        0.0307
      6 C           1.3830    0.3170    0.0000 C.3     1  LIG1        0.0816
      7 C           2.2460   -0.1920    0.0000 C.2     1  LIG1        0.2409
      8 N           2.2380   -1.1830    0.0000 N.am    1  LIG1       -0.2072
      9 C           3.1130   -1.7000    0.0000 C.3     1  LIG1        0.0953
     10 C           3.1170   -2.6960    0.0000 C.3     1  LIG1        0.0185
     11 C           2.1710   -3.0210    0.0000 C.3     1  LIG1        0.0017
     12 C           2.1420   -3.9920    0.0000 C.3     1  LIG1        0.0001
     13 C           3.1170   -4.3710    0.0000 C.3     1  LIG1        0.0000
     14 C           4.0880   -4.0080    0.0000 C.3     1  LIG1        0.0001
     15 C           4.1170   -3.0210    0.0000 C.3     1  LIG1        0.0017
     16 C           4.6670   -4.8250    0.0000 C.3     1  LIG1        0.0000
     17 C           3.6330   -4.3710    0.0000 C.3     1  LIG1        0.0001
     18 C           3.6330   -3.4750    0.0000 C.3     1  LIG1        0.0017
     19 C           2.7210   -4.7170    0.0000 C.3     1  LIG1        0.0000
     20 C           3.9750   -1.1830    0.0000 C.3     1  LIG1        0.0234
     21 O           3.1170    0.3040    0.0000 O.2     1  LIG1       -0.2734
     22 C           1.3880    1.3080    0.0000 C.3     1  LIG1        0.0307
     23 C           0.5210    1.8210    0.0000 C.3     1  LIG1        0.0954
     24 O          -2.0750    1.3210    0.0000 O.2     1  LIG1       -0.2520
     25 C          -2.0750    3.3250    0.0000 C.ar    1  LIG1        0.0890
     26 C          -2.0630    4.3210    0.0000 C.ar    1  LIG1        0.1520
     27 O          -1.2000    4.8250    0.0000 O.3     1  LIG1       -0.4761
     28 C          -0.3290    4.3210    0.0000 C.3     1  LIG1        0.1862
     29 C          -0.3290    3.3250    0.0000 C.3     1  LIG1        0.1432
     30 C           0.5380    4.8210    0.0000 C.3     1  LIG1        0.0491
     31 C          -2.9380    4.8210    0.0000 C.ar    1  LIG1        0.0379
     32 C          -3.8040    4.3210    0.0000 C.ar    1  LIG1       -0.0011
     33 C          -3.8040    3.3250    0.0000 C.ar    1  LIG1       -0.0204
     34 C          -2.9380    2.8210    0.0000 C.ar    1  LIG1        0.0138
     35 C          -4.6710    2.8210    0.0000 C.3     1  LIG1        0.0311
@<TRIPOS>BOND
     1     1     2   am
     2     1    25    1
     3     1    29    1
     4     2     3   am
     5     2    24    2
     6     3     4    1
     7     3    23    1
     8     4     5    1
     9     5     6    1
    10     6     7    1
    11     6    22    1
    12     7     8   am
    13     7    21    2
    14     8     9    1
    15     9    10    1
    16     9    20    1
    17    10    11    1
    18    10    15    1
    19    10    18    1
    20    11    12    1
    21    12    13    1
    22    12    19    1
    23    13    14    1
    24    14    15    1
    25    14    16    1
    26    16    17    1
    27    17    18    1
    28    17    19    1
    29    22    23    1
    30    25    26   ar
    31    25    34   ar
    32    26    27    1
    33    26    31   ar
    34    27    28    1
    35    28    29    1
    36    28    30    1
    37    31    32   ar
    38    32    33   ar
    39    33    34   ar
    40    33    35    1
