@<TRIPOS>MOLECULE
28778_ChemDiv_E216-5263
 26 30 0 0 0
SMALL
GASTEIGER
Energy = 0

@<TRIPOS>ATOM
      1 N          -0.0630    0.5170    0.0000 N.am    1  LIG1       -0.2354
      2 C          -0.0630   -0.4830    0.0000 C.2     1  LIG1        0.3271
      3 N           0.8080   -0.9880    0.0000 N.am    1  LIG1       -0.1916
      4 C           0.8080   -1.9880    0.0000 C.3     1  LIG1        0.0802
      5 C           0.6080   -2.8250    0.0000 C.3     1  LIG1        0.0201
      6 C           1.3210   -3.5290    0.0000 C.3     1  LIG1        0.0017
      7 C           2.3130   -3.5250    0.0000 C.3     1  LIG1        0.0001
      8 C           2.6250   -2.5750    0.0000 C.3     1  LIG1        0.0017
      9 C           1.8130   -1.9880    0.0000 C.3     1  LIG1        0.0201
     10 C           3.5290   -2.1210    0.0000 C.3     1  LIG1        0.0001
     11 C           2.5290   -2.0880    0.0000 C.3     1  LIG1        0.0017
     12 C           1.7380   -1.4750    0.0000 C.3     1  LIG1        0.0201
     13 C           2.1790   -3.0290    0.0000 C.3     1  LIG1        0.0001
     14 O          -0.9170   -0.9880    0.0000 O.2     1  LIG1       -0.2504
     15 C          -0.9170    1.0170    0.0000 C.ar    1  LIG1        0.0891
     16 C          -0.9170    2.0210    0.0000 C.ar    1  LIG1        0.1520
     17 O          -0.0630    2.5330    0.0000 O.3     1  LIG1       -0.4761
     18 C           0.8080    2.0210    0.0000 C.3     1  LIG1        0.1861
     19 C           0.8080    1.0170    0.0000 C.3     1  LIG1        0.1432
     20 C           1.6880    2.5330    0.0000 C.3     1  LIG1        0.0454
     21 C           1.6880    3.5330    0.0000 C.3     1  LIG1        0.0039
     22 C          -1.7790    2.5330    0.0000 C.ar    1  LIG1        0.0379
     23 C          -2.6500    2.0210    0.0000 C.ar    1  LIG1       -0.0011
     24 C          -2.6500    1.0170    0.0000 C.ar    1  LIG1       -0.0204
     25 C          -1.7790    0.5170    0.0000 C.ar    1  LIG1        0.0138
     26 C          -3.5330    0.5130    0.0000 C.3     1  LIG1        0.0311
@<TRIPOS>BOND
     1     1     2   am
     2     1    15    1
     3     1    19    1
     4     2     3   am
     5     2    14    2
     6     3     4    1
     7     4     5    1
     8     4     9    1
     9     4    12    1
    10     5     6    1
    11     6     7    1
    12     6    13    1
    13     7     8    1
    14     8     9    1
    15     8    10    1
    16    10    11    1
    17    11    12    1
    18    11    13    1
    19    15    16   ar
    20    15    25   ar
    21    16    17    1
    22    16    22   ar
    23    17    18    1
    24    18    19    1
    25    18    20    1
    26    20    21    1
    27    22    23   ar
    28    23    24   ar
    29    24    25   ar
    30    24    26    1
