@<TRIPOS>MOLECULE
28777_ChemDiv_2944-0133
 30 34 0 0 0
SMALL
GASTEIGER
Energy = 0

@<TRIPOS>ATOM
      1 C          -0.8750   -0.2540    0.0000 C.ar    1  LIG1        0.0517
      2 C           0.0000   -0.7420    0.0000 C.ar    1  LIG1        0.2641
      3 N           0.8500   -0.2540    0.0000 N.ar    1  LIG1       -0.2463
      4 C           0.8670    0.7580    0.0000 C.ar    1  LIG1        0.2238
      5 N          -0.0170    1.2670    0.0000 N.ar    1  LIG1       -0.2137
      6 C          -0.8710    0.7580    0.0000 C.ar    1  LIG1        0.0844
      7 C          -1.7250    1.2460    0.0000 C.ar    1  LIG1        0.0136
      8 C          -2.6040    0.7580    0.0000 C.ar    1  LIG1       -0.0204
      9 C          -2.5920   -0.2380    0.0000 C.3     1  LIG1        0.0306
     10 C          -1.7250   -0.7420    0.0000 C.3     1  LIG1        0.0289
     11 C          -2.6170   -1.2330    0.0000 C.3     1  LIG1        0.0046
     12 C          -2.6170   -2.2380    0.0000 C.3     1  LIG1        0.0003
     13 C          -1.7500   -2.7460    0.0000 C.3     1  LIG1        0.0000
     14 C          -0.8750   -2.2460    0.0000 C.3     1  LIG1        0.0003
     15 C          -0.8750   -1.2330    0.0000 C.3     1  LIG1        0.0046
     16 C          -3.4710    1.2460    0.0000 C.ar    1  LIG1       -0.0042
     17 C          -3.4710    2.2330    0.0000 C.ar    1  LIG1       -0.0003
     18 C          -2.6040    2.7420    0.0000 C.ar    1  LIG1        0.0000
     19 C          -1.7420    2.2420    0.0000 C.ar    1  LIG1        0.0012
     20 N           1.7420    1.2630    0.0000 N.pl3   1  LIG1       -0.2021
     21 C           1.7420    2.2420    0.0000 C.3     1  LIG1        0.1508
     22 C           2.6000    2.7500    0.0000 C.3     1  LIG1        0.2054
     23 O           3.4670    2.2420    0.0000 O.3     1  LIG1       -0.2184
     24 C           1.7250   -0.7460    0.0000 C.ar    1  LIG1        0.0694
     25 C           1.7170   -1.7500    0.0000 C.ar    1  LIG1        0.0177
     26 C           2.5920   -2.2630    0.0000 C.ar    1  LIG1        0.0015
     27 C           3.4500   -1.7580    0.0000 C.ar    1  LIG1        0.0001
     28 C           3.4500   -0.7460    0.0000 C.ar    1  LIG1        0.0015
     29 C           2.5920   -0.2540    0.0000 C.ar    1  LIG1        0.0177
     30 O          -0.0170   -1.7330    0.0000 O.2     1  LIG1       -0.2668
@<TRIPOS>BOND
     1     1     2   ar
     2     1     6   ar
     3     1    10    1
     4     2     3   ar
     5     2    30    2
     6     3     4   ar
     7     3    24    1
     8     4     5   ar
     9     4    20    1
    10     5     6   ar
    11     6     7    1
    12     7     8   ar
    13     7    19   ar
    14     8     9    1
    15     8    16   ar
    16     9    10    1
    17    10    11    1
    18    10    15    1
    19    11    12    1
    20    12    13    1
    21    13    14    1
    22    14    15    1
    23    16    17   ar
    24    17    18   ar
    25    18    19   ar
    26    20    21    1
    27    21    22    1
    28    22    23    1
    29    24    25   ar
    30    24    29   ar
    31    25    26   ar
    32    26    27   ar
    33    27    28   ar
    34    28    29   ar
