@<TRIPOS>MOLECULE
28771_ChemDiv_2829-1446
 19 21 0 0 0
SMALL
GASTEIGER
Energy = 0

@<TRIPOS>ATOM
      1 N          -2.5040    0.8210    0.0000 N.am    1  LIG1        0.1624
      2 C          -1.5040    0.8210    0.0000 C.2     1  LIG1        0.4716
      3 C          -1.0630    0.0330    0.0000 C.3     1  LIG1        0.2269
      4 S          -1.9460   -0.8330    0.0000 S.3     1  LIG1       -0.0029
      5 C          -2.8920   -0.0290    0.0000 C.2     1  LIG1        0.4122
      6 N          -3.8380   -0.2290    0.0000 N.pl3   1  LIG1       -0.0474
      7 C          -0.5880   -0.8330    0.0000 C.3     1  LIG1        0.1722
      8 O           0.4040   -0.8330    0.0000 O.3     1  LIG1       -0.3254
      9 C           0.8960    0.0170    0.0000 C.3     1  LIG1        0.2609
     10 C           1.8750    0.0330    0.0000 C.ar    1  LIG1        0.0442
     11 C           2.3750   -0.8170    0.0000 C.ar    1  LIG1        0.0584
     12 CL          1.8750   -1.6670    0.0000 Cl      1  LIG1       -0.0824
     13 C           3.3540   -0.8170    0.0000 C.ar    1  LIG1        0.0112
     14 C           3.8330    0.0330    0.0000 C.ar    1  LIG1        0.0008
     15 C           3.3540    0.8790    0.0000 C.ar    1  LIG1       -0.0001
     16 C           2.3750    0.8630    0.0000 C.ar    1  LIG1        0.0014
     17 O           0.4170    0.8630    0.0000 O.3     1  LIG1       -0.3254
     18 C          -0.5750    0.8790    0.0000 C.3     1  LIG1        0.1722
     19 O          -1.0040    1.6710    0.0000 O.2     1  LIG1       -0.2108
@<TRIPOS>BOND
     1     1     2   am
     2     1     5    2
     3     2     3    1
     4     2    19    2
     5     3     4    1
     6     3     7    1
     7     3    18    1
     8     4     5    1
     9     5     6    1
    10     7     8    1
    11     8     9    1
    12     9    10    1
    13     9    17    1
    14    10    11   ar
    15    10    16   ar
    16    11    12    1
    17    11    13   ar
    18    13    14   ar
    19    14    15   ar
    20    15    16   ar
    21    17    18    1
