@<TRIPOS>MOLECULE
28772_ChemDiv_E216-5015
 23 25 0 0 0
SMALL
GASTEIGER
Energy = 0

@<TRIPOS>ATOM
      1 N           0.4290    1.2580    0.0000 N.am    1  LIG1       -0.2351
      2 C           0.4290    0.2580    0.0000 C.2     1  LIG1        0.3314
      3 N           1.2960   -0.2420    0.0000 N.am    1  LIG1       -0.1623
      4 C           1.2960   -1.2420    0.0000 C.ar    1  LIG1        0.0706
      5 C           2.1580   -1.7420    0.0000 C.ar    1  LIG1       -0.0104
      6 C           2.1580   -2.7420    0.0000 C.ar    1  LIG1       -0.0245
      7 C           1.2960   -3.2420    0.0000 C.ar    1  LIG1       -0.0045
      8 C           0.4290   -2.7420    0.0000 C.ar    1  LIG1        0.0010
      9 C           0.4290   -1.7420    0.0000 C.ar    1  LIG1        0.0163
     10 C           3.0290   -3.2540    0.0000 C.3     1  LIG1        0.0307
     11 C           3.0290   -1.2420    0.0000 C.3     1  LIG1        0.0321
     12 O          -0.4330   -0.2420    0.0000 O.2     1  LIG1       -0.2501
     13 C          -0.4330    1.7580    0.0000 C.ar    1  LIG1        0.0902
     14 C          -0.4330    2.7580    0.0000 C.ar    1  LIG1        0.1521
     15 O           0.4290    3.2580    0.0000 O.3     1  LIG1       -0.4761
     16 C           1.2960    2.7580    0.0000 C.3     1  LIG1        0.1862
     17 C           1.2960    1.7580    0.0000 C.3     1  LIG1        0.1432
     18 C           2.1630    3.2580    0.0000 C.3     1  LIG1        0.0491
     19 C          -1.2920    3.2580    0.0000 C.ar    1  LIG1        0.0391
     20 C          -2.1580    2.7460    0.0000 C.ar    1  LIG1        0.0146
     21 C          -2.1580    1.7580    0.0000 C.ar    1  LIG1        0.0591
     22 C          -1.2920    1.2580    0.0000 C.ar    1  LIG1        0.0294
     23 CL         -3.0330    1.2460    0.0000 Cl      1  LIG1       -0.0822
@<TRIPOS>BOND
     1     1     2   am
     2     1    13    1
     3     1    17    1
     4     2     3   am
     5     2    12    2
     6     3     4    1
     7     4     5   ar
     8     4     9   ar
     9     5     6   ar
    10     5    11    1
    11     6     7   ar
    12     6    10    1
    13     7     8   ar
    14     8     9   ar
    15    13    14   ar
    16    13    22   ar
    17    14    15    1
    18    14    19   ar
    19    15    16    1
    20    16    17    1
    21    16    18    1
    22    19    20   ar
    23    20    21   ar
    24    21    22   ar
    25    21    23    1
