@<TRIPOS>MOLECULE
28789_ChemDiv_5225-7782
 26 28 0 0 0
SMALL
GASTEIGER
Energy = 0

@<TRIPOS>ATOM
      1 S          -1.2130    0.2750    0.0000 S.O2    1  LIG1        0.0803
      2 N          -2.4710   -0.4580    0.0000 N.3     1  LIG1       -0.0311
      3 C          -2.7790   -1.3920    0.0000 C.3     1  LIG1        0.2892
      4 O          -2.2420   -2.1580    0.0000 O.3     1  LIG1       -0.4259
      5 C          -2.7790   -2.9210    0.0000 C.2     1  LIG1        0.3424
      6 C          -3.6790   -2.6420    0.0000 C.ar    1  LIG1        0.0766
      7 C          -3.6790   -1.6750    0.0000 C.ar    1  LIG1        0.0426
      8 C          -4.5040   -1.2250    0.0000 C.ar    1  LIG1        0.0009
      9 C          -5.3170   -1.7040    0.0000 C.ar    1  LIG1       -0.0002
     10 C          -5.3170   -2.6080    0.0000 C.ar    1  LIG1        0.0002
     11 C          -4.5040   -3.0880    0.0000 C.ar    1  LIG1        0.0063
     12 O          -2.4710   -3.8250    0.0000 O.2     1  LIG1       -0.2449
     13 C          -0.3960    0.7330    0.0000 C.ar    1  LIG1        0.1237
     14 C          -0.3790    1.6830    0.0000 C.ar    1  LIG1        0.0196
     15 C           0.4250    2.1630    0.0000 C.ar    1  LIG1       -0.0028
     16 C           1.3460    1.7540    0.0000 C.ar    1  LIG1       -0.0203
     17 C           1.3330    0.7790    0.0000 C.ar    1  LIG1       -0.0028
     18 C           0.4880    0.2540    0.0000 C.ar    1  LIG1        0.0196
     19 C           2.2630    2.3000    0.0000 C.3     1  LIG1        0.0498
     20 C           3.3420    1.7540    0.0000 C.3     1  LIG1        0.1198
     21 N           4.4080    2.2750    0.0000 N.am    1  LIG1       -0.2051
     22 C           4.4080    3.2750    0.0000 C.2     1  LIG1        0.2419
     23 O           5.3130    3.7710    0.0000 O.2     1  LIG1       -0.2733
     24 C           3.4630    3.8290    0.0000 C.3     1  LIG1        0.0964
     25 O          -1.6920    1.0460    0.0000 O.2     1  LIG1       -0.1515
     26 O          -0.7170   -0.4880    0.0000 O.2     1  LIG1       -0.1515
@<TRIPOS>BOND
     1     1     2    1
     2     1    13    1
     3     1    25    2
     4     1    26    2
     5     2     3    1
     6     3     4    1
     7     3     7    1
     8     4     5    1
     9     5     6    1
    10     5    12    2
    11     6     7   ar
    12     6    11   ar
    13     7     8   ar
    14     8     9   ar
    15     9    10   ar
    16    10    11   ar
    17    13    14   ar
    18    13    18   ar
    19    14    15   ar
    20    15    16   ar
    21    16    17   ar
    22    16    19    1
    23    17    18   ar
    24    19    20    1
    25    20    21    1
    26    21    22   am
    27    22    23    2
    28    22    24    1
