@<TRIPOS>MOLECULE
28784_ChemDiv_K784-1883
 14 15 0 0 0
SMALL
GASTEIGER
Energy = 0

@<TRIPOS>ATOM
      1 N           0.8540    1.5130    0.0000 N.am    1  LIG1       -0.2032
      2 C           1.7330    1.0000    0.0000 C.2     1  LIG1        0.1232
      3 C           1.7330    0.0000    0.0000 C.3     1  LIG1        0.2096
      4 O           0.8540   -0.4960    0.0000 O.3     1  LIG1       -0.4715
      5 C          -0.0080    0.0000    0.0000 C.ar    1  LIG1        0.1540
      6 C          -0.0080    1.0000    0.0000 C.ar    1  LIG1        0.1044
      7 C          -0.8710    1.5000    0.0000 C.ar    1  LIG1        0.0153
      8 C          -1.7290    1.0000    0.0000 C.ar    1  LIG1       -0.0204
      9 C          -1.7290    0.0000    0.0000 C.ar    1  LIG1       -0.0011
     10 C          -0.8710   -0.4960    0.0000 C.ar    1  LIG1        0.0379
     11 C          -2.5960    1.5000    0.0000 C.3     1  LIG1        0.0311
     12 C           2.5920   -0.5130    0.0000 C.3     1  LIG1        0.0502
     13 C           2.5920   -1.5080    0.0000 C.3     1  LIG1        0.0043
     14 S           2.5920    1.5000    0.0000 S.2     1  LIG1       -0.0338
@<TRIPOS>BOND
     1     1     2    1
     2     1     6    1
     3     2     3    1
     4     2    14    2
     5     3     4    1
     6     3    12    1
     7     4     5    1
     8     5     6   ar
     9     5    10   ar
    10     6     7   ar
    11     7     8   ar
    12     8     9   ar
    13     8    11    1
    14     9    10   ar
    15    12    13    1
