@<TRIPOS>MOLECULE
28786_ChemDiv_3010-1378
 26 29 0 0 0
SMALL
GASTEIGER
Energy = 0

@<TRIPOS>ATOM
      1 C          -1.6330   -0.9790    0.0000 C.ar    1  LIG1        0.1696
      2 C          -1.6330    0.0210    0.0000 C.ar    1  LIG1        0.1531
      3 C          -2.5000    0.5330    0.0000 C.ar    1  LIG1        0.2832
      4 N          -3.3630    0.0210    0.0000 N.ar    1  LIG1       -0.2454
      5 C          -3.3630   -0.9790    0.0000 C.ar    1  LIG1        0.3350
      6 N          -2.5000   -1.4830    0.0000 N.ar    1  LIG1       -0.2628
      7 C          -2.5000   -2.4420    0.0000 C.3     1  LIG1        0.1366
      8 O          -4.2290   -1.4830    0.0000 O.2     1  LIG1       -0.2461
      9 C          -4.2290    0.5330    0.0000 C.3     1  LIG1        0.1383
     10 O          -2.5000    1.5290    0.0000 O.2     1  LIG1       -0.2652
     11 N          -0.6790    0.3500    0.0000 N.ar    1  LIG1       -0.2954
     12 C          -0.0960   -0.4670    0.0000 C.ar    1  LIG1        0.1805
     13 N          -0.6790   -1.2830    0.0000 N.ar    1  LIG1       -0.2063
     14 C          -0.3670    1.2880    0.0000 C.3     1  LIG1        0.1936
     15 C           0.6290    1.5040    0.0000 C.2     1  LIG1        0.2525
     16 N           1.2960    0.7540    0.0000 N.am    1  LIG1       -0.2574
     17 C           2.2500    0.9540    0.0000 C.ar    1  LIG1        0.0499
     18 C           2.9170    0.2210    0.0000 C.ar    1  LIG1       -0.0084
     19 C           2.6290   -0.7330    0.0000 C.3     1  LIG1        0.0294
     20 C           1.6330   -0.9330    0.0000 C.3     1  LIG1        0.0266
     21 C           0.9630   -0.2000    0.0000 C.3     1  LIG1        0.0986
     22 C           3.8920    0.4210    0.0000 C.ar    1  LIG1       -0.0030
     23 C           4.2250    1.3790    0.0000 C.ar    1  LIG1       -0.0002
     24 C           3.5580    2.1130    0.0000 C.ar    1  LIG1        0.0013
     25 C           2.5630    1.9130    0.0000 C.ar    1  LIG1        0.0146
     26 O           0.9210    2.4460    0.0000 O.2     1  LIG1       -0.2724
@<TRIPOS>BOND
     1     1     2   ar
     2     1     6   ar
     3     1    13   ar
     4     2     3   ar
     5     2    11   ar
     6     3     4   ar
     7     3    10    2
     8     4     5   ar
     9     4     9    1
    10     5     6   ar
    11     5     8    2
    12     6     7    1
    13    11    12   ar
    14    11    14    1
    15    12    13   ar
    16    14    15    1
    17    15    16   am
    18    15    26    2
    19    16    17    1
    20    16    21    1
    21    17    18   ar
    22    17    25   ar
    23    18    19    1
    24    18    22   ar
    25    19    20    1
    26    20    21    1
    27    22    23   ar
    28    23    24   ar
    29    24    25   ar
