@<TRIPOS>MOLECULE
28781_ChemDiv_3455-1212
 30 34 0 0 0
SMALL
GASTEIGER
Energy = 0

@<TRIPOS>ATOM
      1 C          -1.2130   -0.4960    0.0000 C.ar    1  LIG1        0.0517
      2 C          -0.3420   -0.9920    0.0000 C.ar    1  LIG1        0.2635
      3 N           0.5250   -0.4960    0.0000 N.ar    1  LIG1       -0.2545
      4 C           0.5250    0.5130    0.0000 C.ar    1  LIG1        0.1778
      5 N          -0.3420    1.0130    0.0000 N.ar    1  LIG1       -0.2224
      6 C          -1.2130    0.5130    0.0000 C.ar    1  LIG1        0.0836
      7 C          -2.0880    1.0130    0.0000 C.ar    1  LIG1        0.0136
      8 C          -2.9580    0.5130    0.0000 C.ar    1  LIG1       -0.0204
      9 C          -2.9580   -0.4960    0.0000 C.3     1  LIG1        0.0306
     10 C          -2.0920   -0.9540    0.0000 C.3     1  LIG1        0.0289
     11 C          -1.3380   -1.4830    0.0000 C.3     1  LIG1        0.0046
     12 C          -1.3380   -2.3130    0.0000 C.3     1  LIG1        0.0003
     13 C          -2.8630   -2.3130    0.0000 C.3     1  LIG1        0.0003
     14 C          -2.8630   -1.4830    0.0000 C.3     1  LIG1        0.0046
     15 C          -3.8330    1.0130    0.0000 C.ar    1  LIG1       -0.0042
     16 C          -3.8330    2.0170    0.0000 C.ar    1  LIG1       -0.0003
     17 C          -2.9580    2.5080    0.0000 C.ar    1  LIG1        0.0000
     18 C          -2.0880    2.0000    0.0000 C.ar    1  LIG1        0.0012
     19 S           1.3710    1.0170    0.0000 S.3     1  LIG1       -0.0670
     20 C           2.0830    0.5580    0.0000 C.3     1  LIG1        0.1532
     21 C           2.9710    1.0130    0.0000 C.2     1  LIG1        0.2722
     22 O           2.9630    2.0000    0.0000 O.2     1  LIG1       -0.2707
     23 N           3.8290    0.4670    0.0000 N.am    1  LIG1       -0.0870
     24 C           1.3880   -0.9920    0.0000 C.ar    1  LIG1        0.0687
     25 C           1.3960   -2.0080    0.0000 C.ar    1  LIG1        0.0177
     26 C           2.2880   -2.5040    0.0000 C.ar    1  LIG1        0.0015
     27 C           3.1670   -1.9880    0.0000 C.ar    1  LIG1        0.0001
     28 C           3.1670   -0.9880    0.0000 C.ar    1  LIG1        0.0015
     29 C           2.2580   -0.5000    0.0000 C.ar    1  LIG1        0.0177
     30 O          -0.3420   -2.0080    0.0000 O.2     1  LIG1       -0.2669
@<TRIPOS>BOND
     1     1     2   ar
     2     1     6   ar
     3     1    10    1
     4     2     3   ar
     5     2    30    2
     6     3     4   ar
     7     3    24    1
     8     4     5   ar
     9     4    19    1
    10     5     6   ar
    11     6     7    1
    12     7     8   ar
    13     7    18   ar
    14     8     9    1
    15     8    15   ar
    16     9    10    1
    17    10    11    1
    18    10    14    1
    19    11    12    1
    20    12    13    1
    21    13    14    1
    22    15    16   ar
    23    16    17   ar
    24    17    18   ar
    25    19    20    1
    26    20    21    1
    27    21    22    2
    28    21    23   am
    29    24    25   ar
    30    24    29   ar
    31    25    26   ar
    32    26    27   ar
    33    27    28   ar
    34    28    29   ar
