@<TRIPOS>MOLECULE
28782_ChemDiv_E216-5474
 33 37 0 0 0
SMALL
GASTEIGER
Energy = 0

@<TRIPOS>ATOM
      1 N          -0.8790    3.2920    0.0000 N.am    1  LIG1       -0.2365
      2 C          -0.8790    2.2920    0.0000 C.2     1  LIG1        0.3111
      3 N          -0.0080    1.7920    0.0000 N.am    1  LIG1       -0.2638
      4 C          -0.0080    0.7920    0.0000 C.3     1  LIG1        0.0954
      5 C           0.8580    0.2920    0.0000 C.3     1  LIG1        0.0307
      6 C           1.7250    0.7920    0.0000 C.3     1  LIG1        0.0816
      7 C           2.5920    0.2880    0.0000 C.2     1  LIG1        0.2413
      8 N           2.5920   -0.7170    0.0000 N.am    1  LIG1       -0.2006
      9 C           1.7330   -1.2170    0.0000 C.3     1  LIG1        0.1416
     10 C           1.7330   -2.2170    0.0000 C.ar    1  LIG1        0.0027
     11 C           2.6040   -2.7170    0.0000 C.ar    1  LIG1        0.0376
     12 C           2.6040   -3.7170    0.0000 C.ar    1  LIG1        0.1762
     13 C           1.7330   -4.2170    0.0000 C.ar    1  LIG1        0.1764
     14 O           1.9420   -5.2000    0.0000 O.3     1  LIG1       -0.4346
     15 C           2.9380   -5.3000    0.0000 C.3     1  LIG1        0.4294
     16 O           3.3420   -4.3830    0.0000 O.3     1  LIG1       -0.4346
     17 C           0.8750   -3.7170    0.0000 C.ar    1  LIG1        0.0399
     18 C           0.8750   -2.7170    0.0000 C.ar    1  LIG1        0.0008
     19 O           3.4580    0.7880    0.0000 O.2     1  LIG1       -0.2733
     20 C           1.7250    1.7920    0.0000 C.3     1  LIG1        0.0307
     21 C           0.8580    2.2920    0.0000 C.3     1  LIG1        0.0954
     22 O          -1.7330    1.7920    0.0000 O.2     1  LIG1       -0.2520
     23 C          -1.7330    3.7920    0.0000 C.ar    1  LIG1        0.0893
     24 C          -1.7330    4.7920    0.0000 C.ar    1  LIG1        0.1520
     25 O          -0.8790    5.2920    0.0000 O.3     1  LIG1       -0.4761
     26 C          -0.0080    4.7920    0.0000 C.3     1  LIG1        0.1861
     27 C          -0.0080    3.7920    0.0000 C.3     1  LIG1        0.1432
     28 C           0.8670    5.3000    0.0000 C.3     1  LIG1        0.0454
     29 C           1.7330    4.8000    0.0000 C.3     1  LIG1        0.0039
     30 C          -2.5960    5.2920    0.0000 C.ar    1  LIG1        0.0382
     31 C          -3.4630    4.7920    0.0000 C.ar    1  LIG1        0.0032
     32 C          -3.4630    3.7920    0.0000 C.ar    1  LIG1        0.0015
     33 C          -2.5960    3.2920    0.0000 C.ar    1  LIG1        0.0180
@<TRIPOS>BOND
     1     1     2   am
     2     1    23    1
     3     1    27    1
     4     2     3   am
     5     2    22    2
     6     3     4    1
     7     3    21    1
     8     4     5    1
     9     5     6    1
    10     6     7    1
    11     6    20    1
    12     7     8   am
    13     7    19    2
    14     8     9    1
    15     9    10    1
    16    10    11   ar
    17    10    18   ar
    18    11    12   ar
    19    12    13   ar
    20    12    16    1
    21    13    14    1
    22    13    17   ar
    23    14    15    1
    24    15    16    1
    25    17    18   ar
    26    20    21    1
    27    23    24   ar
    28    23    33   ar
    29    24    25    1
    30    24    30   ar
    31    25    26    1
    32    26    27    1
    33    26    28    1
    34    28    29    1
    35    30    31   ar
    36    31    32   ar
    37    32    33   ar
