@<TRIPOS>MOLECULE
28788_ChemDiv_3455-3301
 29 32 0 0 0
SMALL
GASTEIGER
Energy = 0

@<TRIPOS>ATOM
      1 C          -2.6380   -0.9170    0.0000 C.ar    1  LIG1        0.1696
      2 C          -2.6380    0.0880    0.0000 C.ar    1  LIG1        0.1531
      3 C          -3.5040    0.5500    0.0000 C.ar    1  LIG1        0.2832
      4 N          -4.3750    0.0880    0.0000 N.ar    1  LIG1       -0.2454
      5 C          -4.3750   -0.9170    0.0000 C.ar    1  LIG1        0.3350
      6 N          -3.5040   -1.4460    0.0000 N.ar    1  LIG1       -0.2628
      7 C          -3.5040   -2.4460    0.0000 C.3     1  LIG1        0.1366
      8 O          -5.2420   -1.4460    0.0000 O.2     1  LIG1       -0.2461
      9 C          -5.2420    0.5330    0.0000 C.3     1  LIG1        0.1383
     10 O          -3.5040    1.5500    0.0000 O.2     1  LIG1       -0.2652
     11 N          -1.7040    0.3540    0.0000 N.ar    1  LIG1       -0.2954
     12 C          -1.1040   -0.4460    0.0000 C.ar    1  LIG1        0.1805
     13 N          -1.7040   -1.2460    0.0000 N.ar    1  LIG1       -0.2063
     14 C          -1.3710    1.2880    0.0000 C.3     1  LIG1        0.1933
     15 C          -0.3710    1.5080    0.0000 C.2     1  LIG1        0.2488
     16 N           0.3000    0.7540    0.0000 N.am    1  LIG1       -0.2780
     17 C           1.2330    0.9710    0.0000 C.3     1  LIG1        0.0935
     18 C           1.9000    0.2830    0.0000 C.3     1  LIG1        0.0219
     19 C           1.6330   -0.7130    0.0000 C.3     1  LIG1        0.0078
     20 C           2.3000   -1.4460    0.0000 C.3     1  LIG1        0.0265
     21 C           3.2420   -1.2460    0.0000 C.ar    1  LIG1       -0.0222
     22 C           3.5670   -0.2500    0.0000 C.ar    1  LIG1       -0.0043
     23 C           4.5710   -0.0460    0.0000 C.ar    1  LIG1       -0.0003
     24 C           5.2380   -0.7790    0.0000 C.ar    1  LIG1       -0.0000
     25 C           4.9040   -1.7790    0.0000 C.ar    1  LIG1       -0.0003
     26 C           3.9080   -1.9790    0.0000 C.ar    1  LIG1       -0.0043
     27 C           0.6330   -0.9130    0.0000 C.3     1  LIG1        0.0219
     28 C          -0.0380   -0.1790    0.0000 C.3     1  LIG1        0.0935
     29 O          -0.1000    2.4500    0.0000 O.2     1  LIG1       -0.2728
@<TRIPOS>BOND
     1     1     2   ar
     2     1     6   ar
     3     1    13   ar
     4     2     3   ar
     5     2    11   ar
     6     3     4   ar
     7     3    10    2
     8     4     5   ar
     9     4     9    1
    10     5     6   ar
    11     5     8    2
    12     6     7    1
    13    11    12   ar
    14    11    14    1
    15    12    13   ar
    16    14    15    1
    17    15    16   am
    18    15    29    2
    19    16    17    1
    20    16    28    1
    21    17    18    1
    22    18    19    1
    23    19    20    1
    24    19    27    1
    25    20    21    1
    26    21    22   ar
    27    21    26   ar
    28    22    23   ar
    29    23    24   ar
    30    24    25   ar
    31    25    26   ar
    32    27    28    1
