@<TRIPOS>MOLECULE
28787_ChemDiv_2914-0033
 21 23 0 0 0
SMALL
GASTEIGER
Energy = 0

@<TRIPOS>ATOM
      1 S           0.4380    1.0580    0.0000 S.O2    1  LIG1        0.0803
      2 N          -0.8790    0.3330    0.0000 N.3     1  LIG1       -0.0311
      3 C          -1.1960   -0.6170    0.0000 C.3     1  LIG1        0.2892
      4 O          -0.6420   -1.4210    0.0000 O.3     1  LIG1       -0.4259
      5 C          -1.1960   -2.1920    0.0000 C.2     1  LIG1        0.3424
      6 C          -2.1380   -1.9000    0.0000 C.ar    1  LIG1        0.0766
      7 C          -2.1380   -0.9080    0.0000 C.ar    1  LIG1        0.0426
      8 C          -2.9790   -0.4380    0.0000 C.ar    1  LIG1        0.0009
      9 C          -3.8170   -0.9330    0.0000 C.ar    1  LIG1       -0.0002
     10 C          -3.8170   -1.8630    0.0000 C.ar    1  LIG1        0.0002
     11 C          -2.9790   -2.3670    0.0000 C.ar    1  LIG1        0.0063
     12 O          -0.8790   -3.1250    0.0000 O.2     1  LIG1       -0.2449
     13 C           1.2880    1.5750    0.0000 C.ar    1  LIG1        0.1237
     14 C           1.2880    2.5540    0.0000 C.ar    1  LIG1        0.0208
     15 C           2.1170    3.0540    0.0000 C.ar    1  LIG1        0.0128
     16 C           2.9670    2.6710    0.0000 C.ar    1  LIG1        0.0578
     17 C           3.0460    1.6250    0.0000 C.ar    1  LIG1        0.0128
     18 C           2.1710    1.0830    0.0000 C.ar    1  LIG1        0.0208
     19 CL          3.8130    3.1290    0.0000 Cl      1  LIG1       -0.0822
     20 O          -0.0750    1.9000    0.0000 O.2     1  LIG1       -0.1515
     21 O           0.9290    0.3080    0.0000 O.2     1  LIG1       -0.1515
@<TRIPOS>BOND
     1     1     2    1
     2     1    13    1
     3     1    20    2
     4     1    21    2
     5     2     3    1
     6     3     4    1
     7     3     7    1
     8     4     5    1
     9     5     6    1
    10     5    12    2
    11     6     7   ar
    12     6    11   ar
    13     7     8   ar
    14     8     9   ar
    15     9    10   ar
    16    10    11   ar
    17    13    14   ar
    18    13    18   ar
    19    14    15   ar
    20    15    16   ar
    21    16    17   ar
    22    16    19    1
    23    17    18   ar
