@<TRIPOS>MOLECULE
28780_ChemDiv_E216-5409
 34 38 0 0 0
SMALL
GASTEIGER
Energy = 0

@<TRIPOS>ATOM
      1 N          -0.8790    3.5000    0.0000 N.am    1  LIG1       -0.2365
      2 C          -0.8790    2.5000    0.0000 C.2     1  LIG1        0.3111
      3 N          -0.0130    2.0000    0.0000 N.am    1  LIG1       -0.2638
      4 C           0.8580    2.5000    0.0000 C.3     1  LIG1        0.0954
      5 C           1.7250    2.0000    0.0000 C.3     1  LIG1        0.0307
      6 C           1.7250    1.0000    0.0000 C.3     1  LIG1        0.0801
      7 C           2.5920    0.4960    0.0000 C.2     1  LIG1        0.2254
      8 N           2.5920   -0.5080    0.0000 N.am    1  LIG1       -0.2760
      9 C           1.7250   -1.0080    0.0000 C.3     1  LIG1        0.1149
     10 C           1.7250   -2.0080    0.0000 C.3     1  LIG1        0.1137
     11 N           2.5920   -2.5080    0.0000 N.pl3   1  LIG1       -0.2897
     12 C           2.5920   -3.5080    0.0000 C.ar    1  LIG1        0.1318
     13 N           3.4580   -4.0080    0.0000 N.ar    1  LIG1       -0.2292
     14 C           3.4580   -5.0080    0.0000 C.ar    1  LIG1        0.1003
     15 C           2.5920   -5.5080    0.0000 C.ar    1  LIG1        0.0208
     16 C           1.7330   -5.0080    0.0000 C.ar    1  LIG1        0.0045
     17 C           1.7330   -4.0080    0.0000 C.ar    1  LIG1        0.0343
     18 C           3.4580   -2.0080    0.0000 C.3     1  LIG1        0.1137
     19 C           3.4580   -1.0080    0.0000 C.3     1  LIG1        0.1149
     20 O           3.4580    0.9960    0.0000 O.2     1  LIG1       -0.2749
     21 C           0.8580    0.5000    0.0000 C.3     1  LIG1        0.0307
     22 C          -0.0130    1.0000    0.0000 C.3     1  LIG1        0.0954
     23 O          -1.7330    2.0000    0.0000 O.2     1  LIG1       -0.2520
     24 C          -1.7330    4.0000    0.0000 C.ar    1  LIG1        0.0893
     25 C          -1.7330    5.0000    0.0000 C.ar    1  LIG1        0.1520
     26 O          -0.8790    5.5000    0.0000 O.3     1  LIG1       -0.4761
     27 C          -0.0130    5.0000    0.0000 C.3     1  LIG1        0.1861
     28 C          -0.0130    4.0000    0.0000 C.3     1  LIG1        0.1432
     29 C           0.8670    5.5080    0.0000 C.3     1  LIG1        0.0454
     30 C           1.7330    5.0080    0.0000 C.3     1  LIG1        0.0039
     31 C          -2.5960    5.5000    0.0000 C.ar    1  LIG1        0.0382
     32 C          -3.4630    5.0000    0.0000 C.ar    1  LIG1        0.0032
     33 C          -3.4630    4.0000    0.0000 C.ar    1  LIG1        0.0015
     34 C          -2.5960    3.5000    0.0000 C.ar    1  LIG1        0.0180
@<TRIPOS>BOND
     1     1     2   am
     2     1    24    1
     3     1    28    1
     4     2     3   am
     5     2    23    2
     6     3     4    1
     7     3    22    1
     8     4     5    1
     9     5     6    1
    10     6     7    1
    11     6    21    1
    12     7     8   am
    13     7    20    2
    14     8     9    1
    15     8    19    1
    16     9    10    1
    17    10    11    1
    18    11    12    1
    19    11    18    1
    20    12    13   ar
    21    12    17   ar
    22    13    14   ar
    23    14    15   ar
    24    15    16   ar
    25    16    17   ar
    26    18    19    1
    27    21    22    1
    28    24    25   ar
    29    24    34   ar
    30    25    26    1
    31    25    31   ar
    32    26    27    1
    33    27    28    1
    34    27    29    1
    35    29    30    1
    36    31    32   ar
    37    32    33   ar
    38    33    34   ar
