@<TRIPOS>MOLECULE
28783_ChemDiv_4222-0233
 33 37 0 0 0
SMALL
GASTEIGER
Energy = 0

@<TRIPOS>ATOM
      1 N           0.4580    0.0330    0.0000 N.ar    1  LIG1       -0.2515
      2 C           0.4580    1.0290    0.0000 C.ar    1  LIG1        0.1779
      3 N          -0.3920    1.5250    0.0000 N.ar    1  LIG1       -0.2224
      4 C          -1.3130    1.0290    0.0000 C.ar    1  LIG1        0.0836
      5 C          -1.3130    0.0330    0.0000 C.ar    1  LIG1        0.0517
      6 C          -0.3920   -0.4540    0.0000 C.ar    1  LIG1        0.2636
      7 O          -0.3920   -1.5210    0.0000 O.2     1  LIG1       -0.2669
      8 C          -2.1630   -0.4540    0.0000 C.3     1  LIG1        0.0289
      9 C          -3.0130    0.0330    0.0000 C.3     1  LIG1        0.0306
     10 C          -3.0130    1.0290    0.0000 C.ar    1  LIG1       -0.0204
     11 C          -2.1630    1.5250    0.0000 C.ar    1  LIG1        0.0136
     12 C          -2.1630    2.5170    0.0000 C.ar    1  LIG1        0.0012
     13 C          -3.0130    3.0130    0.0000 C.ar    1  LIG1        0.0000
     14 C          -3.9330    2.5170    0.0000 C.ar    1  LIG1       -0.0003
     15 C          -3.9330    1.5250    0.0000 C.ar    1  LIG1       -0.0042
     16 C          -3.0130   -1.0250    0.0000 C.3     1  LIG1        0.0046
     17 C          -3.0130   -1.9460    0.0000 C.3     1  LIG1        0.0003
     18 C          -2.1630   -2.5130    0.0000 C.3     1  LIG1        0.0000
     19 C          -1.3130   -1.9460    0.0000 C.3     1  LIG1        0.0003
     20 C          -1.3130   -1.0250    0.0000 C.3     1  LIG1        0.0046
     21 S           1.3080    1.5250    0.0000 S.3     1  LIG1       -0.0670
     22 C           2.1580    1.0290    0.0000 C.3     1  LIG1        0.1532
     23 C           3.0790    1.5250    0.0000 C.2     1  LIG1        0.2722
     24 O           3.0790    2.5170    0.0000 O.2     1  LIG1       -0.2707
     25 N           3.9290    1.0290    0.0000 N.am    1  LIG1       -0.0870
     26 C           1.3080   -0.5290    0.0000 C.ar    1  LIG1        0.1025
     27 C           1.3080   -1.5210    0.0000 C.ar    1  LIG1        0.1548
     28 O           0.4580   -2.0170    0.0000 O.3     1  LIG1       -0.4700
     29 C           0.4580   -3.0080    0.0000 C.3     1  LIG1        0.2525
     30 C           2.1580   -2.0170    0.0000 C.ar    1  LIG1        0.0384
     31 C           3.0080   -1.5210    0.0000 C.ar    1  LIG1        0.0032
     32 C           3.0080   -0.5290    0.0000 C.ar    1  LIG1        0.0017
     33 C           2.1580    0.0330    0.0000 C.ar    1  LIG1        0.0207
@<TRIPOS>BOND
     1     1     2   ar
     2     1     6   ar
     3     1    26    1
     4     2     3   ar
     5     2    21    1
     6     3     4   ar
     7     4     5   ar
     8     4    11    1
     9     5     6   ar
    10     5     8    1
    11     6     7    2
    12     8     9    1
    13     8    16    1
    14     8    20    1
    15     9    10    1
    16    10    11   ar
    17    10    15   ar
    18    11    12   ar
    19    12    13   ar
    20    13    14   ar
    21    14    15   ar
    22    16    17    1
    23    17    18    1
    24    18    19    1
    25    19    20    1
    26    21    22    1
    27    22    23    1
    28    23    24    2
    29    23    25   am
    30    26    27   ar
    31    26    33   ar
    32    27    28    1
    33    27    30   ar
    34    28    29    1
    35    30    31   ar
    36    31    32   ar
    37    32    33   ar
