@<TRIPOS>MOLECULE
28797_ChemDiv_4334-1411
 31 35 0 0 0
SMALL
GASTEIGER
Energy = 0

@<TRIPOS>ATOM
      1 N           1.8580    0.4500    0.0000 N.am    1  LIG1       -0.1981
      2 C           1.2710    1.2750    0.0000 C.2     1  LIG1        0.2590
      3 C           0.2960    0.9330    0.0000 C.ar    1  LIG1        0.0588
      4 C           0.3080   -0.0380    0.0000 C.ar    1  LIG1        0.0587
      5 C           1.2710   -0.3500    0.0000 C.2     1  LIG1        0.2590
      6 O           1.5750   -1.3000    0.0000 O.2     1  LIG1       -0.2691
      7 C          -0.5580   -0.5460    0.0000 C.ar    1  LIG1        0.0048
      8 C          -1.4170   -0.0500    0.0000 C.ar    1  LIG1        0.0047
      9 C          -1.4170    0.9330    0.0000 C.ar    1  LIG1        0.0555
     10 C          -2.2790    1.4380    0.0000 C.2     1  LIG1        0.2690
     11 N          -3.1380    0.9330    0.0000 N.am    1  LIG1       -0.1753
     12 C          -3.1380   -0.0500    0.0000 C.ar    1  LIG1        0.0769
     13 C          -3.9790   -0.5330    0.0000 C.ar    1  LIG1        0.0568
     14 C          -3.9670   -1.5380    0.0000 C.ar    1  LIG1        0.1777
     15 C          -3.1210   -2.0170    0.0000 C.ar    1  LIG1        0.1765
     16 O          -3.1210   -3.0170    0.0000 O.3     1  LIG1       -0.4346
     17 C          -4.2040   -3.0170    0.0000 C.3     1  LIG1        0.4294
     18 O          -4.8330   -2.0210    0.0000 O.3     1  LIG1       -0.4346
     19 C          -2.2750   -1.5210    0.0000 C.ar    1  LIG1        0.0415
     20 C          -2.2790   -0.5330    0.0000 C.ar    1  LIG1        0.0199
     21 O          -2.2790    2.4330    0.0000 O.2     1  LIG1       -0.2680
     22 C          -0.5580    1.4380    0.0000 C.ar    1  LIG1        0.0093
     23 O           1.5790    2.1960    0.0000 O.2     1  LIG1       -0.2691
     24 C           2.8580    0.4460    0.0000 C.ar    1  LIG1        0.0951
     25 C           3.3380    1.3080    0.0000 C.ar    1  LIG1        0.1527
     26 O           2.8380    2.1630    0.0000 O.3     1  LIG1       -0.4702
     27 C           3.3250    3.0210    0.0000 C.3     1  LIG1        0.2525
     28 C           4.3290    1.3080    0.0000 C.ar    1  LIG1        0.0382
     29 C           4.8290    0.4460    0.0000 C.ar    1  LIG1        0.0032
     30 C           4.3290   -0.4130    0.0000 C.ar    1  LIG1        0.0015
     31 C           3.3380   -0.4130    0.0000 C.ar    1  LIG1        0.0184
@<TRIPOS>BOND
     1     1     2   am
     2     1     5   am
     3     1    24    1
     4     2     3    1
     5     2    23    2
     6     3     4   ar
     7     3    22   ar
     8     4     5    1
     9     4     7   ar
    10     5     6    2
    11     7     8   ar
    12     8     9   ar
    13     9    10    1
    14     9    22   ar
    15    10    11   am
    16    10    21    2
    17    11    12    1
    18    12    13   ar
    19    12    20   ar
    20    13    14   ar
    21    14    15   ar
    22    14    18    1
    23    15    16    1
    24    15    19   ar
    25    16    17    1
    26    17    18    1
    27    19    20   ar
    28    24    25   ar
    29    24    31   ar
    30    25    26    1
    31    25    28   ar
    32    26    27    1
    33    28    29   ar
    34    29    30   ar
    35    30    31   ar
