@<TRIPOS>MOLECULE
28798_ChemDiv_8017-4920
 21 23 0 0 0
SMALL
GASTEIGER
Energy = 0

@<TRIPOS>ATOM
      1 C          -0.6460   -1.8920    0.0000 C.ar    1  LIG1        0.1697
      2 C          -0.6380   -0.8920    0.0000 C.ar    1  LIG1        0.1548
      3 N           0.3170   -0.5920    0.0000 N.ar    1  LIG1       -0.2953
      4 C           0.9000   -1.4040    0.0000 C.ar    1  LIG1        0.1805
      5 N           0.3040   -2.2130    0.0000 N.ar    1  LIG1       -0.2063
      6 C           0.6290    0.3540    0.0000 C.3     1  LIG1        0.1933
      7 C           1.6130    0.5540    0.0000 C.2     1  LIG1        0.2488
      8 N           1.9290    1.5040    0.0000 N.am    1  LIG1       -0.2780
      9 C           2.9130    1.7040    0.0000 C.3     1  LIG1        0.0935
     10 C           3.2290    2.6420    0.0000 C.3     1  LIG1        0.0216
     11 C           2.5670    3.3960    0.0000 C.3     1  LIG1        0.0035
     12 C           1.5880    3.2000    0.0000 C.3     1  LIG1        0.0216
     13 C           1.2670    2.2460    0.0000 C.3     1  LIG1        0.0935
     14 O           2.2790   -0.1920    0.0000 O.2     1  LIG1       -0.2728
     15 C          -1.5080   -0.3920    0.0000 C.ar    1  LIG1        0.3019
     16 N          -2.3710   -0.9000    0.0000 N.ar    1  LIG1       -0.1518
     17 C          -2.3710   -1.9000    0.0000 C.ar    1  LIG1        0.3540
     18 N          -1.5080   -2.3920    0.0000 N.ar    1  LIG1       -0.2614
     19 C          -1.5080   -3.3920    0.0000 C.3     1  LIG1        0.1367
     20 O          -3.2330   -2.4000    0.0000 O.2     1  LIG1       -0.2443
     21 O          -1.5080    0.6040    0.0000 O.2     1  LIG1       -0.2634
@<TRIPOS>BOND
     1     1     2   ar
     2     1     5   ar
     3     1    18   ar
     4     2     3   ar
     5     2    15   ar
     6     3     4   ar
     7     3     6    1
     8     4     5   ar
     9     6     7    1
    10     7     8   am
    11     7    14    2
    12     8     9    1
    13     8    13    1
    14     9    10    1
    15    10    11    1
    16    11    12    1
    17    12    13    1
    18    15    16   ar
    19    15    21    2
    20    16    17   ar
    21    17    18   ar
    22    17    20    2
    23    18    19    1
