@<TRIPOS>MOLECULE
28795_ChemDiv_2922-1808
 31 35 0 0 0
SMALL
GASTEIGER
Energy = 0

@<TRIPOS>ATOM
      1 N           1.6040   -0.5670    0.0000 N.am    1  LIG1       -0.2011
      2 C           1.9880    0.3290    0.0000 C.2     1  LIG1        0.2589
      3 C           1.2500    1.0000    0.0000 C.ar    1  LIG1        0.0588
      4 C           0.4000    0.5130    0.0000 C.ar    1  LIG1        0.0587
      5 C           0.5830   -0.4670    0.0000 C.2     1  LIG1        0.2589
      6 O          -0.0790   -1.2040    0.0000 O.2     1  LIG1       -0.2691
      7 C          -0.4710    1.0000    0.0000 C.ar    1  LIG1        0.0048
      8 C          -0.4710    1.9880    0.0000 C.ar    1  LIG1        0.0047
      9 C           0.4000    2.5000    0.0000 C.ar    1  LIG1        0.0555
     10 C           0.4000    3.4920    0.0000 C.2     1  LIG1        0.2690
     11 N          -0.4830    4.0000    0.0000 N.am    1  LIG1       -0.1753
     12 C          -1.3630    3.4920    0.0000 C.ar    1  LIG1        0.0769
     13 C          -2.2290    3.9920    0.0000 C.ar    1  LIG1        0.0568
     14 C          -3.0960    3.4920    0.0000 C.ar    1  LIG1        0.1777
     15 C          -3.0960    2.5000    0.0000 C.ar    1  LIG1        0.1765
     16 O          -4.0370    2.1830    0.0000 O.3     1  LIG1       -0.4346
     17 C          -4.6250    2.9880    0.0000 C.3     1  LIG1        0.4294
     18 O          -4.0370    3.8080    0.0000 O.3     1  LIG1       -0.4346
     19 C          -2.2290    1.9880    0.0000 C.ar    1  LIG1        0.0415
     20 C          -1.3630    2.5000    0.0000 C.ar    1  LIG1        0.0199
     21 O           1.2630    4.0000    0.0000 O.2     1  LIG1       -0.2680
     22 C           1.2500    1.9880    0.0000 C.ar    1  LIG1        0.0093
     23 O           2.9920    0.5170    0.0000 O.2     1  LIG1       -0.2691
     24 C           2.0920   -1.4130    0.0000 C.ar    1  LIG1        0.0609
     25 C           3.1170   -1.4130    0.0000 C.ar    1  LIG1        0.0108
     26 C           3.6290   -2.2750    0.0000 C.ar    1  LIG1       -0.0245
     27 C           3.1170   -3.1580    0.0000 C.ar    1  LIG1       -0.0257
     28 C           2.1080   -3.1580    0.0000 C.ar    1  LIG1       -0.0033
     29 C           1.6080   -2.2880    0.0000 C.ar    1  LIG1        0.0150
     30 C           3.6290   -4.0000    0.0000 C.3     1  LIG1        0.0307
     31 C           4.6210   -2.2750    0.0000 C.3     1  LIG1        0.0307
@<TRIPOS>BOND
     1     1     2   am
     2     1     5   am
     3     1    24    1
     4     2     3    1
     5     2    23    2
     6     3     4   ar
     7     3    22   ar
     8     4     5    1
     9     4     7   ar
    10     5     6    2
    11     7     8   ar
    12     8     9   ar
    13     9    10    1
    14     9    22   ar
    15    10    11   am
    16    10    21    2
    17    11    12    1
    18    12    13   ar
    19    12    20   ar
    20    13    14   ar
    21    14    15   ar
    22    14    18    1
    23    15    16    1
    24    15    19   ar
    25    16    17    1
    26    17    18    1
    27    19    20   ar
    28    24    25   ar
    29    24    29   ar
    30    25    26   ar
    31    26    27   ar
    32    26    31    1
    33    27    28   ar
    34    27    30    1
    35    28    29   ar
