@<TRIPOS>MOLECULE
28790_ChemDiv_3966-2681
 24 26 0 0 0
SMALL
GASTEIGER
Energy = 0

@<TRIPOS>ATOM
      1 C          -1.5540   -1.6880    0.0000 C.ar    1  LIG1        0.1696
      2 C          -1.5540   -0.6880    0.0000 C.ar    1  LIG1        0.1531
      3 C          -2.4290   -0.1830    0.0000 C.ar    1  LIG1        0.2832
      4 N          -3.3210   -0.6880    0.0000 N.ar    1  LIG1       -0.2454
      5 C          -3.3210   -1.6880    0.0000 C.ar    1  LIG1        0.3350
      6 N          -2.4290   -2.1960    0.0000 N.ar    1  LIG1       -0.2628
      7 C          -2.4290   -3.2040    0.0000 C.3     1  LIG1        0.1366
      8 O          -4.2130   -2.1960    0.0000 O.2     1  LIG1       -0.2461
      9 C          -4.2130   -0.1830    0.0000 C.3     1  LIG1        0.1383
     10 O          -2.4290    0.8290    0.0000 O.2     1  LIG1       -0.2652
     11 N          -0.6130   -0.3750    0.0000 N.ar    1  LIG1       -0.2953
     12 C          -0.0500   -1.1920    0.0000 C.ar    1  LIG1        0.1805
     13 N          -0.6130   -2.0040    0.0000 N.ar    1  LIG1       -0.2063
     14 C          -0.2670    0.5750    0.0000 C.3     1  LIG1        0.1948
     15 C           0.7130    0.7670    0.0000 C.2     1  LIG1        0.2645
     16 N           1.0460    1.7210    0.0000 N.am    1  LIG1       -0.2056
     17 C           1.9960    1.9130    0.0000 C.3     1  LIG1        0.0954
     18 C           2.5540    1.1080    0.0000 C.3     1  LIG1        0.0217
     19 C           3.5330    1.0210    0.0000 C.3     1  LIG1        0.0018
     20 C           4.2080    1.7460    0.0000 C.3     1  LIG1        0.0001
     21 C           4.0920    2.7000    0.0000 C.3     1  LIG1        0.0001
     22 C           3.2540    3.2080    0.0000 C.3     1  LIG1        0.0018
     23 C           2.3250    2.8630    0.0000 C.3     1  LIG1        0.0217
     24 O           1.3830    0.0130    0.0000 O.2     1  LIG1       -0.2712
@<TRIPOS>BOND
     1     1     2   ar
     2     1     6   ar
     3     1    13   ar
     4     2     3   ar
     5     2    11   ar
     6     3     4   ar
     7     3    10    2
     8     4     5   ar
     9     4     9    1
    10     5     6   ar
    11     5     8    2
    12     6     7    1
    13    11    12   ar
    14    11    14    1
    15    12    13   ar
    16    14    15    1
    17    15    16   am
    18    15    24    2
    19    16    17    1
    20    17    18    1
    21    17    23    1
    22    18    19    1
    23    19    20    1
    24    20    21    1
    25    21    22    1
    26    22    23    1
