@<TRIPOS>MOLECULE
28791_ChemDiv_2921-0105
 14 15 0 0 0
SMALL
GASTEIGER
Energy = 0

@<TRIPOS>ATOM
      1 N1          0.4750   -0.2250    0.0000 N.4     1  <1>         0.4558
      2 C1          1.4170    0.1290    0.0000 C.3     1  <1>         0.1933
      3 C2          2.2330   -0.4290    0.0000 C.2     1  <1>         0.1082
      4 O1          3.1460   -0.0170    0.0000 O.co2   1  <1>        -0.5436
      5 O2          2.2080   -1.4380    0.0000 O.co2   1  <1>        -0.5436
      6 C3          1.3630    1.1330    0.0000 C.3     1  <1>         0.1320
      7 S1          0.4000    1.3750    0.0000 S.3     1  <1>        -0.0686
      8 C4         -0.1380    0.5710    0.0000 C.3     1  <1>         0.2186
      9 C5         -1.1420    0.5710    0.0000 C.ar    1  <1>         0.0641
     10 C6         -1.6380   -0.2960    0.0000 C.ar    1  <1>         0.1012
     11 N2         -2.6290   -0.2960    0.0000 N.ar    1  <1>        -0.2424
     12 C7         -3.1500    0.5710    0.0000 C.ar    1  <1>         0.0989
     13 C8         -2.6500    1.4420    0.0000 C.ar    1  <1>         0.0206
     14 C9         -1.6500    1.4420    0.0000 C.ar    1  <1>         0.0055
@<TRIPOS>BOND
     1     1     2    1
     2     1     8    1
     3     2     3    1
     4     2     6    1
     5     3     4   ar
     6     3     5   ar
     7     6     7    1
     8     7     8    1
     9     8     9    1
    10     9    10   ar
    11     9    14   ar
    12    10    11   ar
    13    11    12   ar
    14    12    13   ar
    15    13    14   ar
