@<TRIPOS>MOLECULE
28799_ChemDiv_C447-0226
 29 33 0 0 0
SMALL
GASTEIGER
Energy = 0

@<TRIPOS>ATOM
      1 N          -0.1500    1.9830    0.0000 N.am    1  LIG1       -0.2678
      2 C           0.4500    1.1670    0.0000 C.2     1  LIG1        0.2494
      3 C           1.4080    1.4880    0.0000 C.ar    1  LIG1        0.0557
      4 C           1.4080    2.4960    0.0000 C.ar    1  LIG1        0.0022
      5 C           0.4500    2.8000    0.0000 C.3     1  LIG1        0.1209
      6 C           2.2710    3.0000    0.0000 C.ar    1  LIG1       -0.0025
      7 C           3.1290    2.5000    0.0000 C.ar    1  LIG1       -0.0001
      8 C           3.1290    1.4960    0.0000 C.ar    1  LIG1        0.0047
      9 C           2.2710    0.9960    0.0000 C.ar    1  LIG1        0.0595
     10 C           2.2710    0.0080    0.0000 C.2     1  LIG1        0.2691
     11 N           1.4080   -0.4920    0.0000 N.am    1  LIG1       -0.1753
     12 C           1.4080   -1.4960    0.0000 C.ar    1  LIG1        0.0769
     13 C           0.5380   -2.0000    0.0000 C.ar    1  LIG1        0.0568
     14 C           0.5290   -2.9960    0.0000 C.ar    1  LIG1        0.1777
     15 C           1.3920   -3.4960    0.0000 C.ar    1  LIG1        0.1765
     16 O           1.1960   -4.4750    0.0000 O.3     1  LIG1       -0.4346
     17 C           0.1960   -4.5790    0.0000 C.3     1  LIG1        0.4294
     18 O          -0.2000   -3.6630    0.0000 O.3     1  LIG1       -0.4346
     19 C           2.2710   -3.0080    0.0000 C.ar    1  LIG1        0.0415
     20 C           2.2710   -2.0000    0.0000 C.ar    1  LIG1        0.0199
     21 O           3.1290   -0.4920    0.0000 O.2     1  LIG1       -0.2680
     22 O           0.1380    0.2380    0.0000 O.2     1  LIG1       -0.2699
     23 C          -1.1380    1.9830    0.0000 C.3     1  LIG1        0.1223
     24 C          -1.6290    2.8580    0.0000 C.ar    1  LIG1        0.0169
     25 C          -2.6250    2.8460    0.0000 C.ar    1  LIG1        0.0962
     26 N          -3.1330    3.7080    0.0000 N.ar    1  LIG1       -0.2426
     27 C          -2.6250    4.5790    0.0000 C.ar    1  LIG1        0.0989
     28 C          -1.6290    4.5790    0.0000 C.ar    1  LIG1        0.0204
     29 C          -1.1290    3.7170    0.0000 C.ar    1  LIG1        0.0005
@<TRIPOS>BOND
     1     1     2   am
     2     1     5    1
     3     1    23    1
     4     2     3    1
     5     2    22    2
     6     3     4   ar
     7     3     9   ar
     8     4     5    1
     9     4     6   ar
    10     6     7   ar
    11     7     8   ar
    12     8     9   ar
    13     9    10    1
    14    10    11   am
    15    10    21    2
    16    11    12    1
    17    12    13   ar
    18    12    20   ar
    19    13    14   ar
    20    14    15   ar
    21    14    18    1
    22    15    16    1
    23    15    19   ar
    24    16    17    1
    25    17    18    1
    26    19    20   ar
    27    23    24    1
    28    24    25   ar
    29    24    29   ar
    30    25    26   ar
    31    26    27   ar
    32    27    28   ar
    33    28    29   ar
