@<TRIPOS>MOLECULE
28796_ChemDiv_8011-1228
 24 26 0 0 0
SMALL
GASTEIGER
Energy = 0

@<TRIPOS>ATOM
      1 C          -1.3250    0.0460    0.0000 C.ar    1  LIG1        0.1530
      2 C          -2.2130    0.5420    0.0000 C.ar    1  LIG1        0.1534
      3 C          -3.0710    0.0210    0.0000 C.ar    1  LIG1        0.2832
      4 N          -3.0710   -0.9630    0.0000 N.ar    1  LIG1       -0.2454
      5 C          -2.1830   -1.4670    0.0000 C.ar    1  LIG1        0.3350
      6 N          -1.3250   -0.9540    0.0000 N.ar    1  LIG1       -0.2640
      7 C          -0.4750   -1.4380    0.0000 C.3     1  LIG1        0.1366
      8 O          -2.1830   -2.4710    0.0000 O.2     1  LIG1       -0.2461
      9 C          -3.9710   -1.4670    0.0000 C.3     1  LIG1        0.1383
     10 O          -3.9710    0.5250    0.0000 O.2     1  LIG1       -0.2652
     11 N          -2.0210    1.5250    0.0000 N.ar    1  LIG1       -0.2726
     12 C          -1.0380    1.6170    0.0000 C.ar    1  LIG1        0.3332
     13 N          -0.6170    0.7130    0.0000 N.ar    1  LIG1       -0.2570
     14 C           0.3960    0.5250    0.0000 C.3     1  LIG1        0.1970
     15 C           1.0670    1.2880    0.0000 C.2     1  LIG1        0.2489
     16 N           2.0130    1.0750    0.0000 N.am    1  LIG1       -0.2780
     17 C           2.6880    1.8250    0.0000 C.3     1  LIG1        0.0935
     18 C           3.6790    1.6500    0.0000 C.3     1  LIG1        0.0216
     19 C           3.9670    0.6670    0.0000 C.3     1  LIG1        0.0035
     20 C           3.3040   -0.0210    0.0000 C.3     1  LIG1        0.0216
     21 C           2.3330    0.1670    0.0000 C.3     1  LIG1        0.0935
     22 O           0.7420    2.2380    0.0000 O.2     1  LIG1       -0.2728
     23 O          -0.5460    2.4750    0.0000 O.2     1  LIG1       -0.2462
     24 C          -2.6960    2.2880    0.0000 C.3     1  LIG1        0.1353
@<TRIPOS>BOND
     1     1     2   ar
     2     1     6   ar
     3     1    13   ar
     4     2     3   ar
     5     2    11   ar
     6     3     4   ar
     7     3    10    2
     8     4     5   ar
     9     4     9    1
    10     5     6   ar
    11     5     8    2
    12     6     7    1
    13    11    12   ar
    14    11    24    1
    15    12    13   ar
    16    12    23    2
    17    13    14    1
    18    14    15    1
    19    15    16   am
    20    15    22    2
    21    16    17    1
    22    16    21    1
    23    17    18    1
    24    18    19    1
    25    19    20    1
    26    20    21    1
