@<TRIPOS>MOLECULE
28793_ChemDiv_2922-0532
 21 22 0 0 0
SMALL
GASTEIGER
Energy = 0

@<TRIPOS>ATOM
      1 C           2.1130   -0.6000    0.0000 C.ar    1  LIG1        0.1506
      2 C           2.6920   -1.4380    0.0000 C.ar    1  LIG1        0.3000
      3 N           3.7330   -1.3540    0.0000 N.ar    1  LIG1       -0.1505
      4 C           4.1710   -0.4380    0.0000 C.ar    1  LIG1        0.3715
      5 N           3.6000    0.3920    0.0000 N.ar    1  LIG1       -0.1877
      6 C           2.5380    0.3250    0.0000 C.ar    1  LIG1        0.1252
      7 O           4.8670   -0.4210    0.0000 O.2     1  LIG1       -0.2425
      8 O           2.3130   -2.1670    0.0000 O.2     1  LIG1       -0.2636
      9 N           1.0960   -0.6670    0.0000 N.am    1  LIG1       -0.1690
     10 C           0.4130    0.3330    0.0000 C.2     1  LIG1        0.2692
     11 C          -0.5630    0.3330    0.0000 C.ar    1  LIG1        0.0555
     12 C          -1.0460    1.1920    0.0000 C.ar    1  LIG1        0.0059
     13 C          -1.9830    1.2130    0.0000 C.ar    1  LIG1        0.0167
     14 C          -2.5080    0.4250    0.0000 C.ar    1  LIG1        0.0734
     15 N          -3.4920    0.5080    0.0000 N.am    1  LIG1       -0.1792
     16 C          -3.9040    1.3750    0.0000 C.2     1  LIG1        0.2461
     17 O          -4.8710    1.4630    0.0000 O.2     1  LIG1       -0.2730
     18 C          -3.3290    2.1710    0.0000 C.3     1  LIG1        0.0968
     19 C          -2.0920   -0.4380    0.0000 C.ar    1  LIG1        0.0167
     20 C          -1.1460   -0.4670    0.0000 C.ar    1  LIG1        0.0059
     21 O           1.1630    1.5710    0.0000 O.2     1  LIG1       -0.2680
@<TRIPOS>BOND
     1     1     2   ar
     2     1     6   ar
     3     1     9    1
     4     2     3   ar
     5     2     8    2
     6     3     4   ar
     7     4     5   ar
     8     4     7    2
     9     5     6   ar
    10     9    10   am
    11    10    11    1
    12    10    21    2
    13    11    12   ar
    14    11    20   ar
    15    12    13   ar
    16    13    14   ar
    17    14    15    1
    18    14    19   ar
    19    15    16   am
    20    16    17    2
    21    16    18    1
    22    19    20   ar
