@<TRIPOS>MOLECULE
28804_ChemDiv_8015-7529
 14 16 0 0 0
SMALL
GASTEIGER
Energy = 0

@<TRIPOS>ATOM
      1 C          -0.2290   -0.3790    0.0000 C.3     1  LIG1        0.1924
      2 C          -0.2290    0.4210    0.0000 C.3     1  LIG1        0.1924
      3 N          -1.0080    0.6790    0.0000 N.am    1  LIG1       -0.1668
      4 C          -1.4540    0.0210    0.0000 C.2     1  LIG1        0.3423
      5 N          -1.0080   -0.6290    0.0000 N.am    1  LIG1       -0.1668
      6 O          -2.2540    0.0210    0.0000 O.2     1  LIG1       -0.2491
      7 N           0.5380    0.6790    0.0000 N.am    1  LIG1       -0.1668
      8 C           1.0000    0.0210    0.0000 C.2     1  LIG1        0.3423
      9 N           0.5380   -0.6290    0.0000 N.am    1  LIG1       -0.1668
     10 O           1.7920    0.0210    0.0000 O.2     1  LIG1       -0.2491
     11 C           1.0000    1.3330    0.0000 C.3     1  LIG1        0.0442
     12 C           2.2500    0.5420    0.0000 C.3     1  LIG1        0.0037
     13 C           2.2500   -0.6290    0.0000 C.3     1  LIG1        0.0037
     14 C           1.0920   -1.3290    0.0000 C.3     1  LIG1        0.0442
@<TRIPOS>BOND
     1     1     2    1
     2     1     5    1
     3     1     9    1
     4     1    14    1
     5     2     3    1
     6     2     7    1
     7     2    11    1
     8     3     4   am
     9     4     5   am
    10     4     6    2
    11     7     8   am
    12     8     9   am
    13     8    10    2
    14    11    12    1
    15    12    13    1
    16    13    14    1
