@<TRIPOS>MOLECULE
28803_ChemDiv_K786-4727
 24 25 0 0 0
SMALL
GASTEIGER
Energy = 0

@<TRIPOS>ATOM
      1 N          -2.1670    0.4750    0.0000 N.am    1  LIG1       -0.2440
      2 C          -1.2830    0.9790    0.0000 C.2     1  LIG1        0.2700
      3 C          -1.2830    1.9920    0.0000 C.3     1  LIG1        0.2416
      4 O          -2.1580    2.5000    0.0000 O.3     1  LIG1       -0.4687
      5 C          -3.0250    1.9920    0.0000 C.ar    1  LIG1        0.1526
      6 C          -3.0330    0.9790    0.0000 C.ar    1  LIG1        0.0885
      7 C          -3.9000    0.4830    0.0000 C.ar    1  LIG1        0.0180
      8 C          -4.7630    0.9920    0.0000 C.ar    1  LIG1        0.0015
      9 C          -4.7630    1.9920    0.0000 C.ar    1  LIG1        0.0032
     10 C          -3.9000    2.4880    0.0000 C.ar    1  LIG1        0.0382
     11 C          -0.4170    2.4880    0.0000 C.3     1  LIG1        0.0532
     12 C           0.4420    2.0000    0.0000 C.3     1  LIG1        0.0044
     13 O          -0.4170    0.4750    0.0000 O.2     1  LIG1       -0.2706
     14 C          -2.1670   -0.5170    0.0000 C.3     1  LIG1        0.1851
     15 C          -1.2960   -1.0170    0.0000 C.2     1  LIG1        0.2620
     16 O          -0.4460   -0.5130    0.0000 O.2     1  LIG1       -0.2715
     17 N          -1.2920   -1.9960    0.0000 N.am    1  LIG1       -0.2040
     18 C          -0.4330   -2.4960    0.0000 C.3     1  LIG1        0.1152
     19 C           0.4290   -1.9960    0.0000 C.3     1  LIG1        0.0234
     20 C           1.2960   -2.4960    0.0000 C.3     1  LIG1        0.0018
     21 C           2.1630   -1.9920    0.0000 C.3     1  LIG1        0.0001
     22 C           3.0210   -2.4880    0.0000 C.3     1  LIG1        0.0000
     23 C           3.8920   -1.9830    0.0000 C.3     1  LIG1        0.0000
     24 C           4.7580   -2.4790    0.0000 C.3     1  LIG1        0.0000
@<TRIPOS>BOND
     1     1     2   am
     2     1     6    1
     3     1    14    1
     4     2     3    1
     5     2    13    2
     6     3     4    1
     7     3    11    1
     8     4     5    1
     9     5     6   ar
    10     5    10   ar
    11     6     7   ar
    12     7     8   ar
    13     8     9   ar
    14     9    10   ar
    15    11    12    1
    16    14    15    1
    17    15    16    2
    18    15    17   am
    19    17    18    1
    20    18    19    1
    21    19    20    1
    22    20    21    1
    23    21    22    1
    24    22    23    1
    25    23    24    1
