@<TRIPOS>MOLECULE
28805_ChemDiv_K786-5624
 32 34 0 0 0
SMALL
GASTEIGER
Energy = 0

@<TRIPOS>ATOM
      1 N          -0.8710    2.7380    0.0000 N.am    1  LIG1       -0.2440
      2 C           0.0040    3.2380    0.0000 C.2     1  LIG1        0.2700
      3 C          -0.0080    4.2380    0.0000 C.3     1  LIG1        0.2416
      4 O          -0.8710    4.7380    0.0000 O.3     1  LIG1       -0.4687
      5 C          -1.7330    4.2330    0.0000 C.ar    1  LIG1        0.1526
      6 C          -1.7330    3.2380    0.0000 C.ar    1  LIG1        0.0882
      7 C          -2.6040    2.7250    0.0000 C.ar    1  LIG1        0.0137
      8 C          -3.4670    3.2250    0.0000 C.ar    1  LIG1       -0.0204
      9 C          -3.4670    4.2210    0.0000 C.ar    1  LIG1       -0.0011
     10 C          -2.6040    4.7330    0.0000 C.ar    1  LIG1        0.0379
     11 C          -4.3420    2.7250    0.0000 C.3     1  LIG1        0.0311
     12 C           0.8670    4.7380    0.0000 C.3     1  LIG1        0.0532
     13 C           1.7380    4.2460    0.0000 C.3     1  LIG1        0.0044
     14 O           0.8670    2.7380    0.0000 O.2     1  LIG1       -0.2706
     15 C          -0.8630    1.7330    0.0000 C.3     1  LIG1        0.1851
     16 C           0.0080    1.2420    0.0000 C.2     1  LIG1        0.2620
     17 O           0.8670    1.7500    0.0000 O.2     1  LIG1       -0.2715
     18 N           0.0170    0.2500    0.0000 N.am    1  LIG1       -0.2039
     19 C           0.8830   -0.2500    0.0000 C.3     1  LIG1        0.1170
     20 C           0.8830   -1.2460    0.0000 C.3     1  LIG1        0.0448
     21 C           1.7460   -1.7460    0.0000 C.3     1  LIG1        0.0926
     22 N           1.7460   -2.7380    0.0000 N.pl3   1  LIG1       -0.3074
     23 C           2.6080   -3.2380    0.0000 C.ar    1  LIG1        0.0478
     24 C           2.6000   -4.2380    0.0000 C.ar    1  LIG1        0.0145
     25 C           3.4630   -4.7380    0.0000 C.ar    1  LIG1        0.0013
     26 C           4.3380   -4.2380    0.0000 C.ar    1  LIG1        0.0001
     27 C           4.3290   -3.2290    0.0000 C.ar    1  LIG1        0.0013
     28 C           3.4630   -2.7380    0.0000 C.ar    1  LIG1        0.0145
     29 C           0.8830   -3.2380    0.0000 C.3     1  LIG1        0.0908
     30 C           0.0170   -2.7380    0.0000 C.3     1  LIG1        0.0214
     31 C          -0.8460   -3.2380    0.0000 C.3     1  LIG1        0.0018
     32 C          -1.7210   -2.7380    0.0000 C.3     1  LIG1        0.0001
@<TRIPOS>BOND
     1     1     2   am
     2     1     6    1
     3     1    15    1
     4     2     3    1
     5     2    14    2
     6     3     4    1
     7     3    12    1
     8     4     5    1
     9     5     6   ar
    10     5    10   ar
    11     6     7   ar
    12     7     8   ar
    13     8     9   ar
    14     8    11    1
    15     9    10   ar
    16    12    13    1
    17    15    16    1
    18    16    17    2
    19    16    18   am
    20    18    19    1
    21    19    20    1
    22    20    21    1
    23    21    22    1
    24    22    23    1
    25    22    29    1
    26    23    24   ar
    27    23    28   ar
    28    24    25   ar
    29    25    26   ar
    30    26    27   ar
    31    27    28   ar
    32    29    30    1
    33    30    31    1
    34    31    32    1
