@<TRIPOS>MOLECULE
28809_ChemDiv_K788-7502
 26 29 0 0 0
SMALL
GASTEIGER
Energy = 0

@<TRIPOS>ATOM
      1 N          -0.4250    2.7380    0.0000 N.pl3   1  LIG1       -0.2940
      2 C          -0.4250    1.7380    0.0000 C.3     1  LIG1        0.1774
      3 C           0.4420    1.2330    0.0000 C.2     1  LIG1        0.2459
      4 N           0.4420    0.2380    0.0000 N.am    1  LIG1       -0.2782
      5 C           1.3040   -0.2670    0.0000 C.3     1  LIG1        0.0935
      6 C           1.3040   -1.2580    0.0000 C.3     1  LIG1        0.0219
      7 C           0.4330   -1.7500    0.0000 C.3     1  LIG1        0.0078
      8 C           0.4330   -2.7500    0.0000 C.3     1  LIG1        0.0265
      9 C           1.2960   -3.2580    0.0000 C.ar    1  LIG1       -0.0222
     10 C           1.2880   -4.2580    0.0000 C.ar    1  LIG1       -0.0043
     11 C           2.1500   -4.7580    0.0000 C.ar    1  LIG1       -0.0003
     12 C           3.0130   -4.2630    0.0000 C.ar    1  LIG1       -0.0000
     13 C           3.0130   -3.2580    0.0000 C.ar    1  LIG1       -0.0003
     14 C           2.1500   -2.7580    0.0000 C.ar    1  LIG1       -0.0043
     15 C          -0.4290   -1.2500    0.0000 C.3     1  LIG1        0.0219
     16 C          -0.4250   -0.2500    0.0000 C.3     1  LIG1        0.0935
     17 O           1.3040    1.7330    0.0000 O.2     1  LIG1       -0.2730
     18 C          -1.2920    3.2380    0.0000 C.ar    1  LIG1        0.0827
     19 C          -1.2880    4.2420    0.0000 C.ar    1  LIG1        0.1518
     20 O          -0.4250    4.7580    0.0000 O.3     1  LIG1       -0.4724
     21 C           0.4540    4.2420    0.0000 C.3     1  LIG1        0.2268
     22 C           0.4540    3.2380    0.0000 C.3     1  LIG1        0.1389
     23 C          -2.1540    4.7420    0.0000 C.ar    1  LIG1        0.0382
     24 C          -3.0170    4.2420    0.0000 C.ar    1  LIG1        0.0032
     25 C          -3.0170    3.2460    0.0000 C.ar    1  LIG1        0.0015
     26 C          -2.1540    2.7500    0.0000 C.ar    1  LIG1        0.0176
@<TRIPOS>BOND
     1     1     2    1
     2     1    18    1
     3     1    22    1
     4     2     3    1
     5     3     4   am
     6     3    17    2
     7     4     5    1
     8     4    16    1
     9     5     6    1
    10     6     7    1
    11     7     8    1
    12     7    15    1
    13     8     9    1
    14     9    10   ar
    15     9    14   ar
    16    10    11   ar
    17    11    12   ar
    18    12    13   ar
    19    13    14   ar
    20    15    16    1
    21    18    19   ar
    22    18    26   ar
    23    19    20    1
    24    19    23   ar
    25    20    21    1
    26    21    22    1
    27    23    24   ar
    28    24    25   ar
    29    25    26   ar
