@<TRIPOS>MOLECULE
28800_ChemDiv_3010-1429
 26 29 0 0 0
SMALL
GASTEIGER
Energy = 0

@<TRIPOS>ATOM
      1 C          -2.2710   -0.9880    0.0000 C.ar    1  LIG1        0.1696
      2 C          -2.2710    0.0330    0.0000 C.ar    1  LIG1        0.1531
      3 C          -3.1540    0.5330    0.0000 C.ar    1  LIG1        0.2832
      4 N          -4.0370    0.0330    0.0000 N.ar    1  LIG1       -0.2454
      5 C          -4.0370   -0.9880    0.0000 C.ar    1  LIG1        0.3350
      6 N          -3.1540   -1.4830    0.0000 N.ar    1  LIG1       -0.2628
      7 C          -3.1540   -2.4420    0.0000 C.3     1  LIG1        0.1366
      8 O          -4.8960   -1.4830    0.0000 O.2     1  LIG1       -0.2461
      9 C          -4.8960    0.5250    0.0000 C.3     1  LIG1        0.1383
     10 O          -3.1540    1.5380    0.0000 O.2     1  LIG1       -0.2652
     11 N          -1.3290    0.3330    0.0000 N.ar    1  LIG1       -0.2953
     12 C          -0.7250   -0.4790    0.0000 C.ar    1  LIG1        0.1805
     13 N          -1.3290   -1.3000    0.0000 N.ar    1  LIG1       -0.2063
     14 C          -1.0170    1.2880    0.0000 C.3     1  LIG1        0.1952
     15 C          -0.0250    1.5040    0.0000 C.2     1  LIG1        0.2704
     16 N           0.6460    0.7500    0.0000 N.am    1  LIG1       -0.1526
     17 C           1.6130    0.9670    0.0000 C.ar    1  LIG1        0.1858
     18 N           2.3500    0.2830    0.0000 N.ar    1  LIG1       -0.2225
     19 C           3.2130    0.7750    0.0000 C.ar    1  LIG1        0.0893
     20 C           3.0130    1.7710    0.0000 C.ar    1  LIG1        0.0498
     21 S           2.0330    1.8710    0.0000 S.2     1  LIG1       -0.0497
     22 C           3.7460    2.4210    0.0000 C.ar    1  LIG1        0.0081
     23 C           4.6880    2.1040    0.0000 C.ar    1  LIG1        0.0006
     24 C           4.8920    1.1250    0.0000 C.ar    1  LIG1        0.0016
     25 C           4.1500    0.4670    0.0000 C.ar    1  LIG1        0.0197
     26 O           0.2750    2.4460    0.0000 O.2     1  LIG1       -0.2708
@<TRIPOS>BOND
     1     1     2   ar
     2     1     6   ar
     3     1    13   ar
     4     2     3   ar
     5     2    11   ar
     6     3     4   ar
     7     3    10    2
     8     4     5   ar
     9     4     9    1
    10     5     6   ar
    11     5     8    2
    12     6     7    1
    13    11    12   ar
    14    11    14    1
    15    12    13   ar
    16    14    15    1
    17    15    16   am
    18    15    26    2
    19    16    17    1
    20    17    18   ar
    21    17    21   ar
    22    18    19   ar
    23    19    20   ar
    24    19    25   ar
    25    20    21   ar
    26    20    22   ar
    27    22    23   ar
    28    23    24   ar
    29    24    25   ar
