@<TRIPOS>MOLECULE
28802_ChemDiv_8011-0382
 26 29 0 0 0
SMALL
GASTEIGER
Energy = 0

@<TRIPOS>ATOM
      1 N          -1.6750   -0.9500    0.0000 N.am    1  LIG1       -0.1965
      2 C          -0.0420   -0.9500    0.0000 C.3     1  LIG1        0.2039
      3 N           1.6040   -0.9500    0.0000 N.am    1  LIG1       -0.1965
      4 C           1.6040   -0.0080    0.0000 C.2     1  LIG1        0.3138
      5 N           0.7790    0.4580    0.0000 N.am    1  LIG1       -0.2443
      6 C          -0.0420   -0.0080    0.0000 C.3     1  LIG1        0.1956
      7 N          -0.8540    0.4580    0.0000 N.am    1  LIG1       -0.2443
      8 C          -1.6750   -0.0080    0.0000 C.2     1  LIG1        0.3138
      9 O          -2.5420    0.4960    0.0000 O.2     1  LIG1       -0.2521
     10 C          -0.8540    1.4580    0.0000 C.3     1  LIG1        0.1181
     11 C           0.7790    1.4580    0.0000 C.3     1  LIG1        0.1181
     12 O           2.4710    0.4960    0.0000 O.2     1  LIG1       -0.2521
     13 C           2.4710   -1.4420    0.0000 C.3     1  LIG1        0.2474
     14 N           3.3130   -0.9710    0.0000 N.4     1  LIG1        0.3935
     15 C           3.3130   -0.0420    0.0000 C.3     1  LIG1        0.1410
     16 C           4.1330    0.4290    0.0000 C.3     1  LIG1        0.0630
     17 C           4.9460   -0.0420    0.0000 C.3     1  LIG1        0.0123
     18 C           4.9460   -0.9710    0.0000 C.3     1  LIG1        0.0630
     19 C           4.1330   -1.4540    0.0000 C.3     1  LIG1        0.1410
     20 C          -2.5420   -1.4420    0.0000 C.3     1  LIG1        0.2474
     21 N          -3.3170   -0.9710    0.0000 N.4     1  LIG1        0.3935
     22 C          -4.1250   -1.4290    0.0000 C.3     1  LIG1        0.1410
     23 C          -4.9500   -0.9710    0.0000 C.3     1  LIG1        0.0630
     24 C          -4.9500   -0.0420    0.0000 C.3     1  LIG1        0.0123
     25 C          -4.1250    0.4290    0.0000 C.3     1  LIG1        0.0630
     26 C          -3.3170   -0.0420    0.0000 C.3     1  LIG1        0.1410
@<TRIPOS>BOND
     1     1     2    1
     2     1     8   am
     3     1    20    1
     4     2     3    1
     5     2     6    1
     6     3     4   am
     7     3    13    1
     8     4     5   am
     9     4    12    2
    10     5     6    1
    11     5    11    1
    12     6     7    1
    13     7     8   am
    14     7    10    1
    15     8     9    2
    16    13    14    1
    17    14    15    1
    18    14    19    1
    19    15    16    1
    20    16    17    1
    21    17    18    1
    22    18    19    1
    23    20    21    1
    24    21    22    1
    25    21    26    1
    26    22    23    1
    27    23    24    1
    28    24    25    1
    29    25    26    1
