@<TRIPOS>MOLECULE
28807_ChemDiv_K786-6730
 32 35 0 0 0
SMALL
GASTEIGER
Energy = 0

@<TRIPOS>ATOM
      1 N          -3.8630   -0.5080    0.0000 N.am    1  LIG1       -0.2439
      2 C          -2.9920   -1.0080    0.0000 C.2     1  LIG1        0.2744
      3 C          -2.9920   -2.0130    0.0000 C.3     1  LIG1        0.2900
      4 O          -3.8540   -2.5210    0.0000 O.3     1  LIG1       -0.4643
      5 C          -4.7210   -2.0210    0.0000 C.ar    1  LIG1        0.1528
      6 C          -4.7250   -1.0210    0.0000 C.ar    1  LIG1        0.0885
      7 C          -5.6000   -0.5210    0.0000 C.ar    1  LIG1        0.0180
      8 C          -6.4630   -1.0210    0.0000 C.ar    1  LIG1        0.0015
      9 C          -6.4630   -2.0250    0.0000 C.ar    1  LIG1        0.0032
     10 C          -5.6000   -2.5250    0.0000 C.ar    1  LIG1        0.0382
     11 O          -2.1250   -0.5040    0.0000 O.2     1  LIG1       -0.2705
     12 C          -3.8710    0.4920    0.0000 C.3     1  LIG1        0.1851
     13 C          -3.0210    1.0080    0.0000 C.2     1  LIG1        0.2620
     14 O          -2.1580    0.5290    0.0000 O.2     1  LIG1       -0.2715
     15 N          -3.0380    2.0000    0.0000 N.am    1  LIG1       -0.2037
     16 C          -2.1880    2.5170    0.0000 C.3     1  LIG1        0.1214
     17 C          -1.3210    2.0250    0.0000 C.3     1  LIG1        0.0861
     18 C          -0.4580    2.5250    0.0000 C.3     1  LIG1        0.1406
     19 N           0.4080    2.0250    0.0000 N.4     1  LIG1        0.3800
     20 C           1.2670    2.5290    0.0000 C.3     1  LIG1        0.1605
     21 C           2.1330    2.0420    0.0000 C.3     1  LIG1        0.1544
     22 N           2.1380    1.0290    0.0000 N.pl3   1  LIG1       -0.2972
     23 C           2.9960    0.5290    0.0000 C.ar    1  LIG1        0.0483
     24 C           2.9960   -0.4750    0.0000 C.ar    1  LIG1        0.0176
     25 C           3.8630   -0.9750    0.0000 C.ar    1  LIG1        0.0382
     26 C           4.7330   -0.4750    0.0000 C.ar    1  LIG1        0.1388
     27 C           4.7250    0.5380    0.0000 C.ar    1  LIG1        0.0382
     28 C           3.8630    1.0290    0.0000 C.ar    1  LIG1        0.0176
     29 O           5.5920   -0.9750    0.0000 O.3     1  LIG1       -0.4714
     30 C           6.4630   -0.4750    0.0000 C.3     1  LIG1        0.2525
     31 C           1.2710    0.5380    0.0000 C.3     1  LIG1        0.1544
     32 C           0.4080    1.0290    0.0000 C.3     1  LIG1        0.1605
@<TRIPOS>BOND
     1     1     2   am
     2     1     6    1
     3     1    12    1
     4     2     3    1
     5     2    11    2
     6     3     4    1
     7     4     5    1
     8     5     6   ar
     9     5    10   ar
    10     6     7   ar
    11     7     8   ar
    12     8     9   ar
    13     9    10   ar
    14    12    13    1
    15    13    14    2
    16    13    15   am
    17    15    16    1
    18    16    17    1
    19    17    18    1
    20    18    19    1
    21    19    20    1
    22    19    32    1
    23    20    21    1
    24    21    22    1
    25    22    23    1
    26    22    31    1
    27    23    24   ar
    28    23    28   ar
    29    24    25   ar
    30    25    26   ar
    31    26    27   ar
    32    26    29    1
    33    27    28   ar
    34    29    30    1
    35    31    32    1
