@<TRIPOS>MOLECULE
28817_ChemDiv_4965-0162
 16 17 0 0 0
SMALL
GASTEIGER
Energy = 0

@<TRIPOS>ATOM
      1 C           1.3380    0.2380    0.0000 C.ar    1  LIG1        0.0716
      2 C           1.3380   -0.7670    0.0000 C.ar    1  LIG1        0.2799
      3 N           0.4830   -1.2630    0.0000 N.ar    1  LIG1       -0.2124
      4 C          -0.3750   -0.7670    0.0000 C.ar    1  LIG1        0.0629
      5 C          -0.3750    0.2380    0.0000 C.ar    1  LIG1        0.0212
      6 C           0.4830    0.7250    0.0000 C.ar    1  LIG1        0.0053
      7 C          -1.2630    0.7250    0.0000 C.3     1  LIG1        0.1696
      8 O          -2.1210    0.2380    0.0000 O.3     1  LIG1       -0.3533
      9 C          -2.1210   -0.7670    0.0000 C.3     1  LIG1        0.0989
     10 C          -1.2630   -1.2630    0.0000 C.3     1  LIG1        0.0728
     11 C          -3.0880   -0.5210    0.0000 C.3     1  LIG1        0.0300
     12 C          -2.4830   -1.7170    0.0000 C.3     1  LIG1        0.0300
     13 O           2.2210   -1.2630    0.0000 O.2     1  LIG1       -0.2652
     14 C           2.2210    0.7250    0.0000 C.2     1  LIG1        0.0775
     15 O           2.2540    1.7210    0.0000 O.co2   1  LIG1       -0.5444
     16 O           3.0830    0.2380    0.0000 O.co2   1  LIG1       -0.5444
@<TRIPOS>BOND
     1     1     2   ar
     2     1     6   ar
     3     1    14    1
     4     2     3   ar
     5     2    13    2
     6     3     4   ar
     7     4     5   ar
     8     4    10    1
     9     5     6   ar
    10     5     7    1
    11     7     8    1
    12     8     9    1
    13     9    10    1
    14     9    11    1
    15     9    12    1
    16    14    15   ar
    17    14    16   ar
