@<TRIPOS>MOLECULE
28811_ChemDiv_R152-2347
 16 17 0 0 0
SMALL
GASTEIGER
Energy = 0

@<TRIPOS>ATOM
      1 N           0.4210    0.2420    0.0000 N.am    1  LIG1       -0.2495
      2 C           1.2960    0.7380    0.0000 C.2     1  LIG1        0.2742
      3 C           1.2960    1.7500    0.0000 C.3     1  LIG1        0.2900
      4 O           0.4290    2.2540    0.0000 O.3     1  LIG1       -0.4643
      5 C          -0.4420    1.7500    0.0000 C.ar    1  LIG1        0.1528
      6 C          -0.4420    0.7380    0.0000 C.ar    1  LIG1        0.0883
      7 C          -1.3000    0.2460    0.0000 C.ar    1  LIG1        0.0180
      8 C          -2.1630    0.7460    0.0000 C.ar    1  LIG1        0.0015
      9 C          -2.1630    1.7500    0.0000 C.ar    1  LIG1        0.0032
     10 C          -1.3000    2.2500    0.0000 C.ar    1  LIG1        0.0382
     11 O           2.1580    0.2420    0.0000 O.2     1  LIG1       -0.2705
     12 C           0.4210   -0.7540    0.0000 C.3     1  LIG1        0.1163
     13 C           1.2920   -1.2540    0.0000 C.2     1  LIG1        0.0687
     14 O           2.1580   -0.7540    0.0000 O.co2   1  LIG1       -0.5475
     15 O           1.2920   -2.2500    0.0000 O.co2   1  LIG1       -0.5475
     16 C          -0.4420   -1.2540    0.0000 C.3     1  LIG1        0.0280
@<TRIPOS>BOND
     1     1     2   am
     2     1     6    1
     3     1    12    1
     4     2     3    1
     5     2    11    2
     6     3     4    1
     7     4     5    1
     8     5     6   ar
     9     5    10   ar
    10     6     7   ar
    11     7     8   ar
    12     8     9   ar
    13     9    10   ar
    14    12    13    1
    15    12    16    1
    16    13    14   ar
    17    13    15   ar
