@<TRIPOS>MOLECULE
28821_ChemDiv_7017-0161
 17 18 0 0 0
SMALL
GASTEIGER
Energy = 0

@<TRIPOS>ATOM
      1 C           1.2960    0.5040    0.0000 C.ar    1  LIG1        0.0716
      2 C           1.2960   -0.4960    0.0000 C.ar    1  LIG1        0.2799
      3 N           0.4290   -0.9960    0.0000 N.ar    1  LIG1       -0.2124
      4 C          -0.4380   -0.4960    0.0000 C.ar    1  LIG1        0.0630
      5 C          -0.4380    0.5040    0.0000 C.ar    1  LIG1        0.0212
      6 C           0.4290    1.0040    0.0000 C.ar    1  LIG1        0.0053
      7 C          -1.3040    1.0040    0.0000 C.3     1  LIG1        0.1697
      8 O          -2.1710    0.5040    0.0000 O.3     1  LIG1       -0.3510
      9 C          -2.1710   -0.4960    0.0000 C.3     1  LIG1        0.1215
     10 C          -1.3040   -0.9960    0.0000 C.3     1  LIG1        0.0752
     11 C          -2.1710   -1.4960    0.0000 C.3     1  LIG1        0.0276
     12 C          -3.0330   -1.9960    0.0000 C.3     1  LIG1        0.0025
     13 C          -1.3040   -1.9960    0.0000 C.3     1  LIG1        0.0025
     14 O           2.1630   -0.9960    0.0000 O.2     1  LIG1       -0.2652
     15 C           2.1580    1.0040    0.0000 C.2     1  LIG1        0.0775
     16 O           2.1580    2.0000    0.0000 O.co2   1  LIG1       -0.5444
     17 O           3.0290    0.5040    0.0000 O.co2   1  LIG1       -0.5444
@<TRIPOS>BOND
     1     1     2   ar
     2     1     6   ar
     3     1    15    1
     4     2     3   ar
     5     2    14    2
     6     3     4   ar
     7     4     5   ar
     8     4    10    1
     9     5     6   ar
    10     5     7    1
    11     7     8    1
    12     8     9    1
    13     9    10    1
    14     9    11    1
    15    11    12    1
    16    11    13    1
    17    15    16   ar
    18    15    17   ar
