@<TRIPOS>MOLECULE
28831_ChemDiv_3130-1472
 22 24 0 0 0
SMALL
GASTEIGER
Energy = 0

@<TRIPOS>ATOM
      1 C          -0.0170   -1.0580    0.0000 C.ar    1  LIG1        0.1530
      2 O           0.8670   -0.5210    0.0000 O.2     1  LIG1       -0.4213
      3 C           1.7790   -1.0500    0.0000 C.ar    1  LIG1        0.3414
      4 C           1.7790   -2.0710    0.0000 C.ar    1  LIG1        0.0499
      5 C           0.8830   -2.6000    0.0000 C.ar    1  LIG1       -0.0170
      6 C          -0.0170   -2.0880    0.0000 C.ar    1  LIG1        0.0307
      7 C          -0.8920   -2.6000    0.0000 C.ar    1  LIG1        0.0060
      8 C          -1.7750   -2.0880    0.0000 C.ar    1  LIG1        0.0421
      9 C          -1.7750   -1.0580    0.0000 C.ar    1  LIG1        0.2002
     10 C          -0.8920   -0.5380    0.0000 C.ar    1  LIG1        0.1077
     11 C          -0.8920    0.6040    0.0000 C.3     1  LIG1        0.1728
     12 N          -1.6790    1.0170    0.0000 N.4     1  LIG1        0.3856
     13 C          -1.6790    1.9210    0.0000 C.3     1  LIG1        0.1393
     14 C          -0.8920    2.3670    0.0000 C.3     1  LIG1        0.0627
     15 C          -0.8920    3.2710    0.0000 C.3     1  LIG1        0.0061
     16 C          -0.1250    3.7210    0.0000 C.3     1  LIG1        0.0002
     17 C          -2.4460    0.6040    0.0000 C.3     1  LIG1        0.2027
     18 O          -2.6540   -0.5500    0.0000 O.3     1  LIG1       -0.2866
     19 C           1.0960   -3.6210    0.0000 C.3     1  LIG1        0.0267
     20 C           2.1250   -3.7170    0.0000 C.3     1  LIG1        0.0096
     21 C           2.5420   -2.7710    0.0000 C.3     1  LIG1        0.0330
     22 O           2.6500   -0.5380    0.0000 O.2     1  LIG1       -0.2449
@<TRIPOS>BOND
     1     1     2   ar
     2     1     6   ar
     3     1    10   ar
     4     2     3   ar
     5     3     4   ar
     6     3    22    2
     7     4     5   ar
     8     4    21    1
     9     5     6   ar
    10     5    19    1
    11     6     7   ar
    12     7     8   ar
    13     8     9   ar
    14     9    10   ar
    15     9    18    1
    16    10    11    1
    17    11    12    1
    18    12    13    1
    19    12    17    1
    20    13    14    1
    21    14    15    1
    22    15    16    1
    23    19    20    1
    24    20    21    1
