@<TRIPOS>MOLECULE
28838_ChemDiv_8012-9113
 21 22 0 0 0
SMALL
GASTEIGER
Energy = 0

@<TRIPOS>ATOM
      1 C           0.9420    0.2500    0.0000 C.ar    1  LIG1        0.0333
      2 C           0.0750   -0.2460    0.0000 C.ar    1  LIG1        0.0411
      3 C          -0.7920    0.2750    0.0000 C.ar    1  LIG1        0.1721
      4 C          -0.7920    1.2750    0.0000 C.ar    1  LIG1        0.1719
      5 C           0.0750    1.7710    0.0000 C.ar    1  LIG1        0.0359
      6 C           0.9420    1.2750    0.0000 C.ar    1  LIG1       -0.0113
      7 C           1.8130    1.7710    0.0000 C.3     1  LIG1        0.0952
      8 C           2.6830    1.2750    0.0000 C.3     1  LIG1        0.2055
      9 N           2.6830    0.2750    0.0000 N.4     1  LIG1        0.4470
     10 C           1.8130   -0.2460    0.0000 C.3     1  LIG1        0.1661
     11 C           1.8130   -1.2460    0.0000 C.3     1  LIG1        0.0614
     12 C           0.9420   -1.7670    0.0000 C.3     1  LIG1        0.0063
     13 C           0.0460   -1.2670    0.0000 C.3     1  LIG1        0.0002
     14 C           2.6830   -1.7460    0.0000 C.3     1  LIG1        0.0063
     15 C           3.4170   -1.3080    0.0000 C.3     1  LIG1        0.0002
     16 O          -1.6880    1.7500    0.0000 O.3     1  LIG1       -0.4724
     17 C          -2.5540    1.2250    0.0000 C.3     1  LIG1        0.2057
     18 C          -3.4210    1.7080    0.0000 C.3     1  LIG1        0.0512
     19 O          -1.6880   -0.2250    0.0000 O.3     1  LIG1       -0.4724
     20 C          -2.5540    0.3170    0.0000 C.3     1  LIG1        0.2057
     21 C          -3.4210   -0.1580    0.0000 C.3     1  LIG1        0.0512
@<TRIPOS>BOND
     1     1     2   ar
     2     1     6   ar
     3     1    10    1
     4     2     3   ar
     5     3     4   ar
     6     3    19    1
     7     4     5   ar
     8     4    16    1
     9     5     6   ar
    10     6     7    1
    11     7     8    1
    12     8     9    1
    13     9    10    1
    14    10    11    1
    15    11    12    1
    16    11    14    1
    17    12    13    1
    18    14    15    1
    19    16    17    1
    20    17    18    1
    21    19    20    1
    22    20    21    1
