@<TRIPOS>MOLECULE
28834_ChemDiv_4905-1759
 36 40 0 0 0
SMALL
GASTEIGER
Energy = 0

@<TRIPOS>ATOM
      1 N          -4.3250   -2.5130    0.0000 N.4     1  LIG1        0.3831
      2 C          -3.4460   -2.0250    0.0000 C.3     1  LIG1        0.1660
      3 C          -2.5920   -2.5540    0.0000 C.ar    1  LIG1        0.0306
      4 C          -2.6210   -3.5580    0.0000 C.ar    1  LIG1       -0.0147
      5 C          -3.5000   -4.0370    0.0000 C.3     1  LIG1        0.0889
      6 C          -4.3500   -3.5130    0.0000 C.3     1  LIG1        0.1439
      7 C          -1.7670   -4.0710    0.0000 C.ar    1  LIG1       -0.0042
      8 C          -0.8920   -3.6000    0.0000 C.ar    1  LIG1       -0.0003
      9 C          -0.8670   -2.5920    0.0000 C.ar    1  LIG1       -0.0001
     10 C          -1.7170   -2.0750    0.0000 C.ar    1  LIG1        0.0011
     11 C          -5.1830   -1.9920    0.0000 C.3     1  LIG1        0.1763
     12 C          -5.1830   -1.0210    0.0000 C.3     1  LIG1        0.2514
     13 C          -4.3000   -0.5330    0.0000 C.3     1  LIG1        0.2443
     14 O          -3.4330   -1.0210    0.0000 O.3     1  LIG1       -0.4725
     15 C          -2.5710   -0.5330    0.0000 C.ar    1  LIG1        0.1389
     16 C          -2.5710    0.4710    0.0000 C.ar    1  LIG1        0.0400
     17 C          -1.7130    1.0130    0.0000 C.ar    1  LIG1        0.0400
     18 C          -0.8580    0.4920    0.0000 C.ar    1  LIG1        0.1389
     19 O           0.0380    1.0420    0.0000 O.3     1  LIG1       -0.4725
     20 C           0.0080    2.0500    0.0000 C.3     1  LIG1        0.2443
     21 C           0.8670    2.5580    0.0000 C.3     1  LIG1        0.2514
     22 C           1.7250    2.0750    0.0000 C.3     1  LIG1        0.1763
     23 N           2.5920    2.5790    0.0000 N.4     1  LIG1        0.3831
     24 C           3.4540    2.0750    0.0000 C.3     1  LIG1        0.1660
     25 C           4.3130    2.5750    0.0000 C.ar    1  LIG1        0.0306
     26 C           4.3130    3.5710    0.0000 C.ar    1  LIG1       -0.0147
     27 C           3.4500    4.0580    0.0000 C.3     1  LIG1        0.0889
     28 C           2.5750    3.5670    0.0000 C.3     1  LIG1        0.1439
     29 C           5.1710    4.0710    0.0000 C.ar    1  LIG1       -0.0042
     30 C           6.0380    3.5710    0.0000 C.ar    1  LIG1       -0.0003
     31 C           6.0380    2.5750    0.0000 C.ar    1  LIG1       -0.0001
     32 C           5.1710    2.0750    0.0000 C.ar    1  LIG1        0.0011
     33 O           0.8420    3.5420    0.0000 O.3     1  LIG1       -0.2127
     34 C          -0.8250   -0.5080    0.0000 C.ar    1  LIG1        0.0400
     35 C          -1.6830   -1.0210    0.0000 C.ar    1  LIG1        0.0400
     36 O          -6.0380   -0.5080    0.0000 O.3     1  LIG1       -0.2127
@<TRIPOS>BOND
     1     1     2    1
     2     1     6    1
     3     1    11    1
     4     2     3    1
     5     3     4   ar
     6     3    10   ar
     7     4     5    1
     8     4     7   ar
     9     5     6    1
    10     7     8   ar
    11     8     9   ar
    12     9    10   ar
    13    11    12    1
    14    12    13    1
    15    12    36    1
    16    13    14    1
    17    14    15    1
    18    15    16   ar
    19    15    35   ar
    20    16    17   ar
    21    17    18   ar
    22    18    19    1
    23    18    34   ar
    24    19    20    1
    25    20    21    1
    26    21    22    1
    27    21    33    1
    28    22    23    1
    29    23    24    1
    30    23    28    1
    31    24    25    1
    32    25    26   ar
    33    25    32   ar
    34    26    27    1
    35    26    29   ar
    36    27    28    1
    37    29    30   ar
    38    30    31   ar
    39    31    32   ar
    40    34    35   ar
