@<TRIPOS>MOLECULE
28848_ChemDiv_3228-0101
 26 30 0 0 0
SMALL
GASTEIGER
Energy = 0

@<TRIPOS>ATOM
      1 N          -0.9630   -0.2540    0.0000 N.am    1  LIG1       -0.2316
      2 C          -0.9630   -1.3000    0.0000 C.2     1  LIG1        0.2892
      3 C          -0.0630   -1.8170    0.0000 C.3     1  LIG1        0.1959
      4 N           0.8420   -1.2880    0.0000 N.4     1  LIG1        0.3096
      5 C           1.7500   -1.7960    0.0000 C.3     1  LIG1        0.1745
      6 C           2.6500   -1.2880    0.0000 C.2     1  LIG1        0.2055
      7 C           2.6500   -0.5210    0.0000 C.3     1  LIG1        0.0754
      8 C           1.6080   -0.6670    0.0000 C.3     1  LIG1        0.0688
      9 C           1.7290   -1.1670    0.0000 C.3     1  LIG1        0.1099
     10 C           1.7500    0.0080    0.0000 C.3     1  LIG1        0.0688
     11 C           0.8420   -0.5040    0.0000 C.3     1  LIG1        0.1099
     12 O           3.6630   -1.5630    0.0000 O.2     1  LIG1       -0.2899
     13 O          -1.8710   -1.8170    0.0000 O.2     1  LIG1       -0.2678
     14 C          -0.0630    0.2750    0.0000 C.ar    1  LIG1        0.0642
     15 C          -0.0630    1.2880    0.0000 C.ar    1  LIG1        0.0435
     16 S          -0.9630    1.8210    0.0000 S.3     1  LIG1       -0.0844
     17 C          -1.8540    1.3040    0.0000 C.ar    1  LIG1        0.0435
     18 C          -1.8540    0.2580    0.0000 C.ar    1  LIG1        0.0642
     19 C          -2.7540   -0.2540    0.0000 C.ar    1  LIG1        0.0157
     20 C          -3.6670    0.2750    0.0000 C.ar    1  LIG1        0.0013
     21 C          -3.6670    1.2880    0.0000 C.ar    1  LIG1        0.0006
     22 C          -2.7540    1.8210    0.0000 C.ar    1  LIG1        0.0077
     23 C           0.8420    1.8040    0.0000 C.ar    1  LIG1        0.0077
     24 C           1.7500    1.2880    0.0000 C.ar    1  LIG1        0.0006
     25 C           1.7500    0.2750    0.0000 C.ar    1  LIG1        0.0013
     26 C           0.8420   -0.2540    0.0000 C.ar    1  LIG1        0.0157
@<TRIPOS>BOND
     1     1     2   am
     2     1    14    1
     3     1    18    1
     4     2     3    1
     5     2    13    2
     6     3     4    1
     7     4     5    1
     8     4     9    1
     9     4    11    1
    10     5     6    1
    11     6     7    1
    12     6    12    2
    13     7     8    1
    14     7    10    1
    15     8     9    1
    16    10    11    1
    17    14    15   ar
    18    14    26   ar
    19    15    16    1
    20    15    23   ar
    21    16    17    1
    22    17    18   ar
    23    17    22   ar
    24    18    19   ar
    25    19    20   ar
    26    20    21   ar
    27    21    22   ar
    28    23    24   ar
    29    24    25   ar
    30    25    26   ar
