@<TRIPOS>MOLECULE
28844_ChemDiv_N058-0410
 17 18 0 0 0
SMALL
GASTEIGER
Energy = 0

@<TRIPOS>ATOM
      1 N           2.1630    0.0000    0.0000 N.4     1  LIG1        0.3053
      2 C           1.2920   -0.5080    0.0000 C.3     1  LIG1        0.0818
      3 C           0.4210    0.0000    0.0000 C.ar    1  LIG1        0.0262
      4 C           0.4210    1.0000    0.0000 C.ar    1  LIG1       -0.0118
      5 C          -0.4290    1.5080    0.0000 C.ar    1  LIG1        0.0359
      6 C          -1.3000    1.0000    0.0000 C.ar    1  LIG1        0.1721
      7 C          -1.3000    0.0000    0.0000 C.ar    1  LIG1        0.1722
      8 C          -0.4290   -0.5080    0.0000 C.ar    1  LIG1        0.0409
      9 O          -2.1880   -0.5080    0.0000 O.3     1  LIG1       -0.4684
     10 C          -3.0380    0.0000    0.0000 C.3     1  LIG1        0.2526
     11 O          -2.1670    1.5080    0.0000 O.3     1  LIG1       -0.4684
     12 C          -3.0380    1.0210    0.0000 C.3     1  LIG1        0.2526
     13 C           1.2920    1.5080    0.0000 C.3     1  LIG1        0.0873
     14 C           2.1630    1.0000    0.0000 C.3     1  LIG1        0.1138
     15 C           1.2920   -1.5040    0.0000 C.3     1  LIG1        0.0662
     16 C           3.0330   -0.4420    0.0000 C.3     1  LIG1        0.1708
     17 C           2.8580    0.7040    0.0000 C.3     1  LIG1        0.1708
@<TRIPOS>BOND
     1     1     2    1
     2     1    14    1
     3     1    16    1
     4     1    17    1
     5     2     3    1
     6     2    15    1
     7     3     4   ar
     8     3     8   ar
     9     4     5   ar
    10     4    13    1
    11     5     6   ar
    12     6     7   ar
    13     6    11    1
    14     7     8   ar
    15     7     9    1
    16     9    10    1
    17    11    12    1
    18    13    14    1
