@<TRIPOS>MOLECULE
28842_ChemDiv_E540-0142
 20 21 0 0 0
SMALL
GASTEIGER
Energy = 0

@<TRIPOS>ATOM
      1 C           0.8580    0.7420    0.0000 C.ar    1  LIG1        0.0337
      2 C           1.7210    0.2420    0.0000 C.3     1  LIG1        0.1719
      3 C           1.7210   -0.7580    0.0000 C.3     1  LIG1        0.1090
      4 C           2.5790   -1.2540    0.0000 C.2     1  LIG1        0.0567
      5 O           3.4540   -0.7580    0.0000 O.co2   1  LIG1       -0.5489
      6 O           2.5790   -2.2540    0.0000 O.co2   1  LIG1       -0.5489
      7 N           2.5960    0.7420    0.0000 N.4     1  LIG1        0.4473
      8 C           2.5960    1.7540    0.0000 C.3     1  LIG1        0.2055
      9 C           1.7290    2.2580    0.0000 C.3     1  LIG1        0.0952
     10 C           0.8580    1.7540    0.0000 C.ar    1  LIG1       -0.0113
     11 C          -0.0040    2.2540    0.0000 C.ar    1  LIG1        0.0359
     12 C          -0.8670    1.7420    0.0000 C.ar    1  LIG1        0.1719
     13 C          -0.8670    0.7460    0.0000 C.ar    1  LIG1        0.1721
     14 C          -0.0040    0.2460    0.0000 C.ar    1  LIG1        0.0411
     15 O          -1.7290    0.2580    0.0000 O.3     1  LIG1       -0.4724
     16 C          -1.7290   -0.7420    0.0000 C.3     1  LIG1        0.2057
     17 C          -2.5960   -1.2420    0.0000 C.3     1  LIG1        0.0512
     18 O          -1.7290    2.2420    0.0000 O.3     1  LIG1       -0.4724
     19 C          -2.5960    1.7420    0.0000 C.3     1  LIG1        0.2057
     20 C          -3.4580    2.2420    0.0000 C.3     1  LIG1        0.0512
@<TRIPOS>BOND
     1     1     2    1
     2     1    10   ar
     3     1    14   ar
     4     2     3    1
     5     2     7    1
     6     3     4    1
     7     4     5   ar
     8     4     6   ar
     9     7     8    1
    10     8     9    1
    11     9    10    1
    12    10    11   ar
    13    11    12   ar
    14    12    13   ar
    15    12    18    1
    16    13    14   ar
    17    13    15    1
    18    15    16    1
    19    16    17    1
    20    18    19    1
    21    19    20    1
