@<TRIPOS>MOLECULE
28846_ChemDiv_3228-0090
 22 24 0 0 0
SMALL
GASTEIGER
Energy = 0

@<TRIPOS>ATOM
      1 C           1.4000    0.5750    0.0000 C.ar    1  LIG1        0.1395
      2 N           0.6830    1.2920    0.0000 N.ar    1  LIG1       -0.2840
      3 C           1.1290    2.1580    0.0000 C.ar    1  LIG1        0.1842
      4 N           2.1040    2.0080    0.0000 N.ar    1  LIG1       -0.2053
      5 C           2.2670    1.0330    0.0000 C.ar    1  LIG1        0.1905
      6 N           3.1670    0.5540    0.0000 N.pl3   1  LIG1       -0.1055
      7 C          -0.2710    1.0330    0.0000 C.ar    1  LIG1        0.0656
      8 C          -0.5290    0.0670    0.0000 C.ar    1  LIG1        0.0172
      9 C          -1.5040   -0.2040    0.0000 C.ar    1  LIG1       -0.0028
     10 C          -2.1960    0.5130    0.0000 C.ar    1  LIG1       -0.0218
     11 C          -1.9380    1.4670    0.0000 C.ar    1  LIG1       -0.0028
     12 C          -0.9830    1.7250    0.0000 C.ar    1  LIG1        0.0172
     13 C          -3.1710    0.2290    0.0000 C.3     1  LIG1        0.0310
     14 C           1.2380   -0.4250    0.0000 C.2     1  LIG1        0.2144
     15 C           0.2960   -0.8000    0.0000 C.ar    1  LIG1        0.0406
     16 C           0.1420   -1.7750    0.0000 C.ar    1  LIG1        0.0037
     17 C          -0.7880   -2.1540    0.0000 C.ar    1  LIG1        0.0068
     18 C          -1.5710   -1.5080    0.0000 C.ar    1  LIG1        0.0346
     19 C          -1.4130   -0.5290    0.0000 C.ar    1  LIG1        0.0068
     20 C          -0.4880   -0.1710    0.0000 C.ar    1  LIG1        0.0037
     21 BR         -2.5210   -1.8630    0.0000 Br      1  LIG1       -0.0490
     22 O           2.0170   -1.0710    0.0000 O.2     1  LIG1       -0.2849
@<TRIPOS>BOND
     1     1     2   ar
     2     1     5   ar
     3     1    14    1
     4     2     3   ar
     5     2     7    1
     6     3     4   ar
     7     4     5   ar
     8     5     6    1
     9     7     8   ar
    10     7    12   ar
    11     8     9   ar
    12     9    10   ar
    13    10    11   ar
    14    10    13    1
    15    11    12   ar
    16    14    15    1
    17    14    22    2
    18    15    16   ar
    19    15    20   ar
    20    16    17   ar
    21    17    18   ar
    22    18    19   ar
    23    18    21    1
    24    19    20   ar
