@<TRIPOS>MOLECULE
28851_ChemDiv_8011-0379
 24 27 0 0 0
SMALL
GASTEIGER
Energy = 0

@<TRIPOS>ATOM
      1 C           3.7830   -0.4750    0.0000 C.ar    1  LIG1        0.3414
      2 C           3.7830    0.4750    0.0000 C.ar    1  LIG1        0.0499
      3 C           2.9170    0.9710    0.0000 C.ar    1  LIG1       -0.0170
      4 C           2.0670    0.4750    0.0000 C.ar    1  LIG1        0.0308
      5 C           2.0670   -0.4750    0.0000 C.ar    1  LIG1        0.1514
      6 O           2.9170   -0.9540    0.0000 O.2     1  LIG1       -0.4212
      7 C           1.2420   -0.9540    0.0000 C.ar    1  LIG1        0.0745
      8 C           0.4130   -0.4750    0.0000 C.ar    1  LIG1        0.1423
      9 O          -0.4250   -0.9540    0.0000 O.3     1  LIG1       -0.4655
     10 C          -1.2330   -0.4630    0.0000 C.3     1  LIG1        0.2896
     11 C          -2.0500   -0.9540    0.0000 C.2     1  LIG1        0.2702
     12 N          -2.9000   -0.4630    0.0000 N.am    1  LIG1       -0.2765
     13 C          -3.7830   -0.9540    0.0000 C.3     1  LIG1        0.0935
     14 C          -4.6250   -0.4630    0.0000 C.3     1  LIG1        0.0216
     15 C          -4.6250    0.5460    0.0000 C.3     1  LIG1        0.0035
     16 C          -3.7670    1.0580    0.0000 C.3     1  LIG1        0.0216
     17 C          -2.9000    0.5580    0.0000 C.3     1  LIG1        0.0935
     18 O          -2.0500   -1.9250    0.0000 O.2     1  LIG1       -0.2708
     19 C           0.4130    0.4750    0.0000 C.ar    1  LIG1        0.0371
     20 C           1.2420    0.9710    0.0000 C.ar    1  LIG1        0.0058
     21 C           2.9170    1.9290    0.0000 C.3     1  LIG1        0.0267
     22 C           4.6080    1.9290    0.0000 C.3     1  LIG1        0.0096
     23 C           4.6080    0.9710    0.0000 C.3     1  LIG1        0.0330
     24 O           4.6210   -0.9540    0.0000 O.2     1  LIG1       -0.2448
@<TRIPOS>BOND
     1     1     2   ar
     2     1     6   ar
     3     1    24    2
     4     2     3   ar
     5     2    23    1
     6     3     4   ar
     7     3    21    1
     8     4     5   ar
     9     4    20   ar
    10     5     6   ar
    11     5     7   ar
    12     7     8   ar
    13     8     9    1
    14     8    19   ar
    15     9    10    1
    16    10    11    1
    17    11    12   am
    18    11    18    2
    19    12    13    1
    20    12    17    1
    21    13    14    1
    22    14    15    1
    23    15    16    1
    24    16    17    1
    25    19    20   ar
    26    21    22    1
    27    22    23    1
