@<TRIPOS>MOLECULE
28868_ChemDiv_3228-0104
 34 39 0 0 0
SMALL
GASTEIGER
Energy = 0

@<TRIPOS>ATOM
      1 N           2.1170   -0.2500    0.0000 N.am    1  LIG1       -0.2316
      2 C           1.2380    0.2540    0.0000 C.2     1  LIG1        0.2892
      3 C           1.2580    1.2540    0.0000 C.3     1  LIG1        0.1956
      4 N           0.3830    1.7540    0.0000 N.4     1  LIG1        0.3067
      5 C          -0.4920    1.2540    0.0000 C.3     1  LIG1        0.1531
      6 C          -1.3670    1.7540    0.0000 C.3     1  LIG1        0.2240
      7 O          -2.2460    1.2540    0.0000 O.3     1  LIG1       -0.4430
      8 C          -2.2460    0.2330    0.0000 C.2     1  LIG1        0.3413
      9 O          -1.5630   -0.2290    0.0000 O.2     1  LIG1       -0.2449
     10 C          -3.0290   -0.3830    0.0000 C.ar    1  LIG1        0.0756
     11 C          -2.8750   -1.3750    0.0000 C.ar    1  LIG1        0.0064
     12 C          -3.6540   -2.0080    0.0000 C.ar    1  LIG1        0.0002
     13 C          -4.6000   -1.6500    0.0000 C.ar    1  LIG1        0.0000
     14 C          -4.7460   -0.6460    0.0000 C.ar    1  LIG1        0.0002
     15 C          -3.9540   -0.0250    0.0000 C.ar    1  LIG1        0.0064
     16 C          -1.3670    2.7500    0.0000 C.3     1  LIG1        0.0580
     17 C          -0.4920    3.2500    0.0000 C.3     1  LIG1        0.0651
     18 C           0.3830    2.7500    0.0000 C.3     1  LIG1        0.1093
     19 C          -0.3040    2.5210    0.0000 C.3     1  LIG1        0.0651
     20 C          -0.7830    2.0670    0.0000 C.3     1  LIG1        0.1093
     21 O           0.3630   -0.2500    0.0000 O.2     1  LIG1       -0.2678
     22 C           2.9920    0.2540    0.0000 C.ar    1  LIG1        0.0642
     23 C           3.8670   -0.2670    0.0000 C.ar    1  LIG1        0.0435
     24 S           3.8670   -1.2630    0.0000 S.3     1  LIG1       -0.0844
     25 C           2.9920   -1.7460    0.0000 C.ar    1  LIG1        0.0435
     26 C           2.1170   -1.2630    0.0000 C.ar    1  LIG1        0.0642
     27 C           1.2380   -1.7460    0.0000 C.ar    1  LIG1        0.0157
     28 C           1.2380   -2.7380    0.0000 C.ar    1  LIG1        0.0013
     29 C           2.1170   -3.2500    0.0000 C.ar    1  LIG1        0.0006
     30 C           2.9920   -2.7630    0.0000 C.ar    1  LIG1        0.0077
     31 C           4.7420    0.2540    0.0000 C.ar    1  LIG1        0.0077
     32 C           4.7420    1.2540    0.0000 C.ar    1  LIG1        0.0006
     33 C           3.8500    1.7540    0.0000 C.ar    1  LIG1        0.0013
     34 C           2.9920    1.2710    0.0000 C.ar    1  LIG1        0.0157
@<TRIPOS>BOND
     1     1     2   am
     2     1    22    1
     3     1    26    1
     4     2     3    1
     5     2    21    2
     6     3     4    1
     7     4     5    1
     8     4    18    1
     9     4    20    1
    10     5     6    1
    11     6     7    1
    12     6    16    1
    13     7     8    1
    14     8     9    2
    15     8    10    1
    16    10    11   ar
    17    10    15   ar
    18    11    12   ar
    19    12    13   ar
    20    13    14   ar
    21    14    15   ar
    22    16    17    1
    23    16    19    1
    24    17    18    1
    25    19    20    1
    26    22    23   ar
    27    22    34   ar
    28    23    24    1
    29    23    31   ar
    30    24    25    1
    31    25    26   ar
    32    25    30   ar
    33    26    27   ar
    34    27    28   ar
    35    28    29   ar
    36    29    30   ar
    37    31    32   ar
    38    32    33   ar
    39    33    34   ar
