@<TRIPOS>MOLECULE
28870_ChemDiv_5594-0940
 23 26 0 0 0
SMALL
GASTEIGER
Energy = 0

@<TRIPOS>ATOM
      1 N          -0.0540    1.2630    0.0000 N.am    1  LIG1       -0.2316
      2 C          -0.0880    0.2710    0.0000 C.2     1  LIG1        0.2909
      3 C           0.7080   -0.3040    0.0000 C.3     1  LIG1        0.2256
      4 N           0.6080   -1.2670    0.0000 N.4     1  LIG1        0.3844
      5 C           1.4290   -1.8420    0.0000 C.3     1  LIG1        0.1393
      6 C           1.3380   -2.8750    0.0000 C.3     1  LIG1        0.0629
      7 C           0.4130   -3.3170    0.0000 C.3     1  LIG1        0.0123
      8 C          -0.3540   -2.7380    0.0000 C.3     1  LIG1        0.0629
      9 C          -0.3080   -1.7040    0.0000 C.3     1  LIG1        0.1393
     10 O          -0.9420   -0.2420    0.0000 O.2     1  LIG1       -0.2678
     11 C           0.8540    1.7630    0.0000 C.ar    1  LIG1        0.0642
     12 C           0.8790    2.6880    0.0000 C.ar    1  LIG1        0.0435
     13 S           0.0210    3.2670    0.0000 S.3     1  LIG1       -0.0844
     14 C          -0.8290    2.8000    0.0000 C.ar    1  LIG1        0.0435
     15 C          -0.8750    1.7630    0.0000 C.ar    1  LIG1        0.0642
     16 C          -1.7830    1.3250    0.0000 C.ar    1  LIG1        0.0157
     17 C          -2.6630    1.8920    0.0000 C.ar    1  LIG1        0.0013
     18 C          -2.6170    2.8250    0.0000 C.ar    1  LIG1        0.0006
     19 C          -1.7000    3.3210    0.0000 C.ar    1  LIG1        0.0077
     20 C           1.8040    3.1290    0.0000 C.ar    1  LIG1        0.0077
     21 C           2.6580    2.6170    0.0000 C.ar    1  LIG1        0.0006
     22 C           2.6380    1.7000    0.0000 C.ar    1  LIG1        0.0013
     23 C           1.7330    1.2330    0.0000 C.ar    1  LIG1        0.0157
@<TRIPOS>BOND
     1     1     2   am
     2     1    11    1
     3     1    15    1
     4     2     3    1
     5     2    10    2
     6     3     4    1
     7     4     5    1
     8     4     9    1
     9     5     6    1
    10     6     7    1
    11     7     8    1
    12     8     9    1
    13    11    12   ar
    14    11    23   ar
    15    12    13    1
    16    12    20   ar
    17    13    14    1
    18    14    15   ar
    19    14    19   ar
    20    15    16   ar
    21    16    17   ar
    22    17    18   ar
    23    18    19   ar
    24    20    21   ar
    25    21    22   ar
    26    22    23   ar
