@<TRIPOS>MOLECULE
28879_ChemDiv_8009-3415
 25 28 0 0 0
SMALL
GASTEIGER
Energy = 0

@<TRIPOS>ATOM
      1 C           1.1380    1.0170    0.0000 C.2     1  LIG1        0.0841
      2 C           0.8750    0.0540    0.0000 C.3     1  LIG1        0.1465
      3 N           1.7210   -0.4670    0.0000 N.am    1  LIG1       -0.1914
      4 C           2.4750    0.2000    0.0000 C.2     1  LIG1        0.3043
      5 C           2.1290    1.0790    0.0000 C.2     1  LIG1        0.2512
      6 O           2.6920    1.9210    0.0000 O.2     1  LIG1       -0.2818
      7 O           3.4710   -0.0170    0.0000 O.2     1  LIG1       -0.2648
      8 C          -0.0170   -0.3580    0.0000 C.ar    1  LIG1        0.0050
      9 C          -0.1290   -1.3750    0.0000 C.ar    1  LIG1        0.0379
     10 C          -1.0540   -1.7830    0.0000 C.ar    1  LIG1        0.1762
     11 C          -1.8500   -1.2040    0.0000 C.ar    1  LIG1        0.1764
     12 O          -2.6750   -1.8080    0.0000 O.3     1  LIG1       -0.4346
     13 C          -2.3500   -2.7380    0.0000 C.3     1  LIG1        0.4294
     14 O          -1.3580   -2.7380    0.0000 O.3     1  LIG1       -0.4346
     15 C          -1.7710   -0.1880    0.0000 C.ar    1  LIG1        0.0399
     16 C          -0.8630    0.2250    0.0000 C.ar    1  LIG1        0.0010
     17 C           0.4920    1.8130    0.0000 C.2     1  LIG1        0.1968
     18 C          -0.4960    1.6380    0.0000 C.ar    1  LIG1        0.0388
     19 C          -1.1170    2.4130    0.0000 C.ar    1  LIG1        0.0028
     20 C          -2.0880    2.2670    0.0000 C.ar    1  LIG1       -0.0042
     21 C          -2.4790    1.3580    0.0000 C.ar    1  LIG1       -0.0218
     22 C          -1.8500    0.5710    0.0000 C.ar    1  LIG1       -0.0042
     23 C          -0.8630    0.7210    0.0000 C.ar    1  LIG1        0.0028
     24 C          -3.4750    1.2330    0.0000 C.3     1  LIG1        0.0310
     25 O           0.8540    2.7420    0.0000 O.2     1  LIG1       -0.2867
@<TRIPOS>BOND
     1     1     2    1
     2     1     5    2
     3     1    17    1
     4     2     3    1
     5     2     8    1
     6     3     4   am
     7     4     5    1
     8     4     7    2
     9     5     6    1
    10     8     9   ar
    11     8    16   ar
    12     9    10   ar
    13    10    11   ar
    14    10    14    1
    15    11    12    1
    16    11    15   ar
    17    12    13    1
    18    13    14    1
    19    15    16   ar
    20    17    18    1
    21    17    25    2
    22    18    19   ar
    23    18    23   ar
    24    19    20   ar
    25    20    21   ar
    26    21    22   ar
    27    21    24    1
    28    22    23   ar
