@<TRIPOS>MOLECULE
28880_ChemDiv_8009-4047
 20 21 0 0 0
SMALL
GASTEIGER
Energy = 0

@<TRIPOS>ATOM
      1 N          -1.8790   -0.0500    0.0000 N.am    1  LIG1       -0.2031
      2 C          -1.4420    0.8420    0.0000 C.2     1  LIG1        0.2419
      3 C          -0.4460    0.6580    0.0000 C.3     1  LIG1        0.1581
      4 C          -0.3170   -0.2880    0.0000 C.3     1  LIG1        0.2305
      5 C          -1.1830   -0.7580    0.0000 C.2     1  LIG1        0.2927
      6 O          -1.3130   -1.7540    0.0000 O.2     1  LIG1       -0.2677
      7 N           0.6250   -0.7290    0.0000 N.4     1  LIG1        0.4509
      8 C           1.4630   -0.1540    0.0000 C.3     1  LIG1        0.2014
      9 C           2.3540   -0.5750    0.0000 C.3     1  LIG1        0.0748
     10 C           3.1670    0.0000    0.0000 C.3     1  LIG1        0.0481
     11 C           4.0830   -0.4210    0.0000 C.2     1  LIG1        0.0505
     12 O           4.8960    0.1580    0.0000 O.co2   1  LIG1       -0.5492
     13 O           4.1630   -1.4130    0.0000 O.co2   1  LIG1       -0.5492
     14 O          -1.8790    1.7580    0.0000 O.2     1  LIG1       -0.2739
     15 C          -2.9080   -0.0500    0.0000 C.ar    1  LIG1        0.0608
     16 C          -3.4040   -0.9130    0.0000 C.ar    1  LIG1        0.0153
     17 C          -4.4250   -0.8880    0.0000 C.ar    1  LIG1        0.0013
     18 C          -4.9000   -0.0500    0.0000 C.ar    1  LIG1        0.0001
     19 C          -4.4000    0.8170    0.0000 C.ar    1  LIG1        0.0013
     20 C          -3.4040    0.8170    0.0000 C.ar    1  LIG1        0.0153
@<TRIPOS>BOND
     1     1     2   am
     2     1     5   am
     3     1    15    1
     4     2     3    1
     5     2    14    2
     6     3     4    1
     7     4     5    1
     8     4     7    1
     9     5     6    2
    10     7     8    1
    11     8     9    1
    12     9    10    1
    13    10    11    1
    14    11    12   ar
    15    11    13   ar
    16    15    16   ar
    17    15    20   ar
    18    16    17   ar
    19    17    18   ar
    20    18    19   ar
    21    19    20   ar
