@<TRIPOS>MOLECULE
28898_ChemDiv_8015-1077
 28 30 0 0 0
SMALL
GASTEIGER
Energy = 0

@<TRIPOS>ATOM
      1 N          -2.5380    1.0460    0.0000 N.am    1  LIG1       -0.2031
      2 C          -2.2250    2.0040    0.0000 C.2     1  LIG1        0.2419
      3 C          -1.2210    2.0040    0.0000 C.3     1  LIG1        0.1581
      4 C          -0.9130    1.0460    0.0000 C.3     1  LIG1        0.2305
      5 C          -1.7250    0.4580    0.0000 C.2     1  LIG1        0.2927
      6 O          -1.7250   -0.5460    0.0000 O.2     1  LIG1       -0.2677
      7 N          -0.0380    0.5500    0.0000 N.4     1  LIG1        0.4511
      8 C           0.8380    1.0460    0.0000 C.3     1  LIG1        0.2073
      9 C           1.7080    0.5500    0.0000 C.3     1  LIG1        0.1313
     10 C           2.5830    1.0460    0.0000 C.3     1  LIG1        0.1450
     11 N           3.4540    0.5500    0.0000 N.4     1  LIG1        0.3774
     12 C           4.0670   -0.0580    0.0000 C.3     1  LIG1        0.1391
     13 C           4.1710   -1.0920    0.0000 C.3     1  LIG1        0.0721
     14 C           5.1420   -1.3630    0.0000 C.3     1  LIG1        0.0917
     15 C           6.0170   -1.8630    0.0000 C.2     1  LIG1        0.2607
     16 O           6.0170   -2.8710    0.0000 O.2     1  LIG1       -0.2717
     17 N           6.8880   -1.3630    0.0000 N.am    1  LIG1       -0.0878
     18 C           4.4710   -0.8130    0.0000 C.3     1  LIG1        0.0721
     19 C           4.4250    0.2790    0.0000 C.3     1  LIG1        0.1391
     20 O          -2.7250    2.8750    0.0000 O.2     1  LIG1       -0.2739
     21 C          -3.4080    0.5500    0.0000 C.ar    1  LIG1        0.0610
     22 C          -3.4080   -0.4580    0.0000 C.ar    1  LIG1        0.0184
     23 C          -4.2750   -0.9580    0.0000 C.ar    1  LIG1        0.0382
     24 C          -5.1500   -0.4580    0.0000 C.ar    1  LIG1        0.1388
     25 C          -5.1500    0.5500    0.0000 C.ar    1  LIG1        0.0382
     26 C          -4.2750    1.0460    0.0000 C.ar    1  LIG1        0.0184
     27 O          -6.0170   -0.9580    0.0000 O.3     1  LIG1       -0.4714
     28 C          -6.8880   -0.4580    0.0000 C.3     1  LIG1        0.2525
@<TRIPOS>BOND
     1     1     2   am
     2     1     5   am
     3     1    21    1
     4     2     3    1
     5     2    20    2
     6     3     4    1
     7     4     5    1
     8     4     7    1
     9     5     6    2
    10     7     8    1
    11     8     9    1
    12     9    10    1
    13    10    11    1
    14    11    12    1
    15    11    19    1
    16    12    13    1
    17    13    14    1
    18    14    15    1
    19    14    18    1
    20    15    16    2
    21    15    17   am
    22    18    19    1
    23    21    22   ar
    24    21    26   ar
    25    22    23   ar
    26    23    24   ar
    27    24    25   ar
    28    24    27    1
    29    25    26   ar
    30    27    28    1
