@<TRIPOS>MOLECULE
28908_ChemDiv_3232-1221
 15 16 0 0 0
SMALL
GASTEIGER
Energy = 0

@<TRIPOS>ATOM
      1 C           0.3710    0.0080    0.0000 C.2     1  LIG1        0.1110
      2 C           0.3710   -1.0000    0.0000 C.2     1  LIG1        0.2771
      3 N           1.2330   -1.4960    0.0000 N.am    1  LIG1       -0.1219
      4 C           2.1000   -1.0000    0.0000 C.2     1  LIG1        0.3530
      5 N           2.1000    0.0080    0.0000 N.am    1  LIG1       -0.1219
      6 C           1.2330    0.5080    0.0000 C.2     1  LIG1        0.2771
      7 O           1.2330    1.5000    0.0000 O.2     1  LIG1       -0.2677
      8 O           2.9630   -1.4960    0.0000 O.2     1  LIG1       -0.2483
      9 O          -0.4960   -1.4960    0.0000 O.2     1  LIG1       -0.2677
     10 C          -0.4960    0.5080    0.0000 C.2     1  LIG1        0.0125
     11 C          -1.3580    0.0210    0.0000 C.ar    1  LIG1        0.0411
     12 C          -1.4920   -1.0000    0.0000 C.ar    1  LIG1        0.1797
     13 O          -2.4630   -1.1580    0.0000 O.2     1  LIG1       -0.4473
     14 C          -2.9670   -0.3170    0.0000 C.ar    1  LIG1        0.1798
     15 C          -2.2670    0.4290    0.0000 C.ar    1  LIG1        0.0438
@<TRIPOS>BOND
     1     1     2    1
     2     1     6    1
     3     1    10    2
     4     2     3   am
     5     2     9    2
     6     3     4   am
     7     4     5   am
     8     4     8    2
     9     5     6   am
    10     6     7    2
    11    10    11    1
    12    11    12   ar
    13    11    15   ar
    14    12    13   ar
    15    13    14   ar
    16    14    15   ar
