@<TRIPOS>MOLECULE
28910_ChemDiv_3235-0089
 38 42 0 0 0
SMALL
GASTEIGER
Energy = 0

@<TRIPOS>ATOM
      1 N           1.0000    2.4250    0.0000 N.am    1  LIG1       -0.2136
      2 C           1.8250    3.0670    0.0000 C.2     1  LIG1        0.2555
      3 C           2.7790    2.6670    0.0000 C.ar    1  LIG1        0.0584
      4 C           2.9170    1.6380    0.0000 C.ar    1  LIG1        0.0584
      5 C           1.5210    1.6170    0.0000 C.2     1  LIG1        0.2555
      6 O           1.0000    1.0130    0.0000 O.2     1  LIG1       -0.2695
      7 C           3.8790    1.2540    0.0000 C.ar    1  LIG1        0.0047
      8 C           4.6960    1.8790    0.0000 C.ar    1  LIG1        0.0001
      9 C           4.5540    2.9080    0.0000 C.ar    1  LIG1        0.0001
     10 C           3.6000    3.3080    0.0000 C.ar    1  LIG1        0.0047
     11 O           1.8580    3.7210    0.0000 O.2     1  LIG1       -0.2695
     12 C           0.0460    2.8250    0.0000 C.3     1  LIG1        0.1883
     13 C          -0.8460    2.1330    0.0000 C.2     1  LIG1        0.2663
     14 N          -1.7420    2.6500    0.0000 N.am    1  LIG1       -0.1776
     15 C          -2.6380    2.1330    0.0000 C.ar    1  LIG1        0.0778
     16 C          -2.6380    1.0880    0.0000 C.ar    1  LIG1        0.0707
     17 C          -1.8130    0.4960    0.0000 C.2     1  LIG1        0.2707
     18 N          -1.9130   -0.5420    0.0000 N.am    1  LIG1       -0.1686
     19 C          -1.0710   -1.1460    0.0000 C.ar    1  LIG1        0.1086
     20 C          -1.1630   -2.0420    0.0000 C.ar    1  LIG1        0.0933
     21 C           0.3920   -2.2000    0.0000 C.ar    1  LIG1       -0.0121
     22 C           0.4830   -1.3000    0.0000 C.ar    1  LIG1        0.0048
     23 S          -0.2460   -0.7670    0.0000 S.2     1  LIG1       -0.0749
     24 C           1.3130   -0.9330    0.0000 C.3     1  LIG1        0.0327
     25 C           2.0380   -1.4540    0.0000 C.3     1  LIG1        0.0055
     26 C           1.9500   -2.3540    0.0000 C.3     1  LIG1        0.0050
     27 C           1.1210   -2.7330    0.0000 C.3     1  LIG1        0.0268
     28 C          -1.9670   -2.7000    0.0000 C.2     1  LIG1        0.3427
     29 O          -1.8000   -3.7170    0.0000 O.2     1  LIG1       -0.2448
     30 O          -2.9330   -2.3290    0.0000 O.3     1  LIG1       -0.4454
     31 C          -3.7330   -2.9750    0.0000 C.3     1  LIG1        0.2089
     32 C          -4.7000   -2.6130    0.0000 C.3     1  LIG1        0.0513
     33 O          -1.1210    0.9250    0.0000 O.2     1  LIG1       -0.2679
     34 C          -3.5420    0.5670    0.0000 C.ar    1  LIG1        0.0059
     35 C          -4.4330    1.0880    0.0000 C.ar    1  LIG1        0.0002
     36 C          -4.4330    2.1330    0.0000 C.ar    1  LIG1        0.0013
     37 C          -3.5420    2.6500    0.0000 C.ar    1  LIG1        0.0167
     38 O          -0.8630    1.4790    0.0000 O.2     1  LIG1       -0.2711
@<TRIPOS>BOND
     1     1     2   am
     2     1     5   am
     3     1    12    1
     4     2     3    1
     5     2    11    2
     6     3     4   ar
     7     3    10   ar
     8     4     5    1
     9     4     7   ar
    10     5     6    2
    11     7     8   ar
    12     8     9   ar
    13     9    10   ar
    14    12    13    1
    15    13    14   am
    16    13    38    2
    17    14    15    1
    18    15    16   ar
    19    15    37   ar
    20    16    17    1
    21    16    34   ar
    22    17    18   am
    23    17    33    2
    24    18    19    1
    25    19    20   ar
    26    19    23   ar
    27    20    21   ar
    28    20    28    1
    29    21    22   ar
    30    21    27    1
    31    22    23   ar
    32    22    24    1
    33    24    25    1
    34    25    26    1
    35    26    27    1
    36    28    29    2
    37    28    30    1
    38    30    31    1
    39    31    32    1
    40    34    35   ar
    41    35    36   ar
    42    36    37   ar
