@<TRIPOS>MOLECULE
28914_ChemDiv_3191-0611
 20 22 0 0 0
SMALL
GASTEIGER
Energy = 0

@<TRIPOS>ATOM
      1 C          -1.2250    0.7330    0.0000 C.ar    1  LIG1        0.2484
      2 N          -1.2250   -0.2630    0.0000 N.ar    1  LIG1       -0.1593
      3 C          -2.0830   -0.7670    0.0000 C.ar    1  LIG1        0.3263
      4 N          -2.9460   -0.2630    0.0000 N.ar    1  LIG1       -0.1411
      5 C          -2.9460    0.7330    0.0000 C.ar    1  LIG1        0.3263
      6 N          -2.0830    1.2380    0.0000 N.ar    1  LIG1       -0.1593
      7 O          -3.8170    1.2380    0.0000 O.3     1  LIG1       -0.4425
      8 C          -3.8170    2.2420    0.0000 C.3     1  LIG1        0.2559
      9 O          -2.0830   -1.7500    0.0000 O.3     1  LIG1       -0.4425
     10 C          -2.9460   -2.2380    0.0000 C.3     1  LIG1        0.2559
     11 N          -0.3380    1.2380    0.0000 N.pl3   1  LIG1       -0.1773
     12 C           0.5290    0.7330    0.0000 C.ar    1  LIG1        0.0768
     13 C           1.3960    1.2380    0.0000 C.ar    1  LIG1        0.0568
     14 C           2.2790    0.7330    0.0000 C.ar    1  LIG1        0.1777
     15 C           2.2790   -0.2630    0.0000 C.ar    1  LIG1        0.1765
     16 O           3.2540   -0.5580    0.0000 O.3     1  LIG1       -0.4346
     17 C           3.8130    0.2500    0.0000 C.3     1  LIG1        0.4294
     18 O           3.2540    1.0290    0.0000 O.3     1  LIG1       -0.4346
     19 C           1.3960   -0.7670    0.0000 C.ar    1  LIG1        0.0415
     20 C           0.5290   -0.2630    0.0000 C.ar    1  LIG1        0.0199
@<TRIPOS>BOND
     1     1     2   ar
     2     1     6   ar
     3     1    11    1
     4     2     3   ar
     5     3     4   ar
     6     3     9    1
     7     4     5   ar
     8     5     6   ar
     9     5     7    1
    10     7     8    1
    11     9    10    1
    12    11    12    1
    13    12    13   ar
    14    12    20   ar
    15    13    14   ar
    16    14    15   ar
    17    14    18    1
    18    15    16    1
    19    15    19   ar
    20    16    17    1
    21    17    18    1
    22    19    20   ar
