@<TRIPOS>MOLECULE
28932_ChemDiv_3243-0469
 23 26 0 0 0
SMALL
GASTEIGER
Energy = 0

@<TRIPOS>ATOM
      1 C          -0.5420   -1.0630    0.0000 C.ar    1  LIG1        0.1616
      2 C          -1.1460   -0.2290    0.0000 C.ar    1  LIG1        0.1167
      3 N          -0.7420    0.6790    0.0000 N.ar    1  LIG1       -0.2406
      4 C           0.2630    0.7750    0.0000 C.ar    1  LIG1        0.1022
      5 C           0.8670   -0.0250    0.0000 C.ar    1  LIG1        0.1037
      6 N           0.4630   -0.9290    0.0000 N.ar    1  LIG1       -0.2251
      7 C           1.8380    0.0670    0.0000 C.ar    1  LIG1        0.0607
      8 C           2.2380    0.9790    0.0000 C.ar    1  LIG1        0.1740
      9 C           1.6750    1.8080    0.0000 C.ar    1  LIG1        0.1740
     10 C           0.6670    1.6830    0.0000 C.ar    1  LIG1        0.0607
     11 O           2.0710    2.7500    0.0000 O.3     1  LIG1       -0.4683
     12 C           1.4710    3.5500    0.0000 C.3     1  LIG1        0.2526
     13 O           3.2170    1.0790    0.0000 O.3     1  LIG1       -0.4683
     14 C           3.8210    0.2750    0.0000 C.3     1  LIG1        0.2526
     15 C          -2.0880   -0.5670    0.0000 C.ar    1  LIG1        0.0364
     16 C          -2.0880   -1.5710    0.0000 C.ar    1  LIG1        0.0626
     17 N          -1.1460   -1.8710    0.0000 N.ar    1  LIG1       -0.3115
     18 C          -0.8420   -2.8130    0.0000 C.3     1  LIG1        0.1076
     19 C          -1.5130   -3.5460    0.0000 C.3     1  LIG1        0.0265
     20 C          -2.9580   -2.0380    0.0000 C.ar    1  LIG1        0.0173
     21 C          -3.8250   -1.5710    0.0000 C.ar    1  LIG1        0.0015
     22 C          -3.8250   -0.5670    0.0000 C.ar    1  LIG1        0.0001
     23 C          -2.9580   -0.0670    0.0000 C.ar    1  LIG1        0.0030
@<TRIPOS>BOND
     1     1     2   ar
     2     1     6   ar
     3     1    17   ar
     4     2     3   ar
     5     2    15   ar
     6     3     4   ar
     7     4     5   ar
     8     4    10   ar
     9     5     6   ar
    10     5     7   ar
    11     7     8   ar
    12     8     9   ar
    13     8    13    1
    14     9    10   ar
    15     9    11    1
    16    11    12    1
    17    13    14    1
    18    15    16   ar
    19    15    23   ar
    20    16    17   ar
    21    16    20   ar
    22    17    18    1
    23    18    19    1
    24    20    21   ar
    25    21    22   ar
    26    22    23   ar
