@<TRIPOS>MOLECULE
28930_ChemDiv_3237-0715
 33 36 0 0 0
SMALL
GASTEIGER
Energy = 0

@<TRIPOS>ATOM
      1 C          -2.9880    0.2710    0.0000 C.ar    1  LIG1        0.1032
      2 C          -3.9580    0.2380    0.0000 C.ar    1  LIG1        0.0317
      3 C          -4.1960   -0.7170    0.0000 C.ar    1  LIG1       -0.0173
      4 C          -3.3630   -1.2790    0.0000 C.ar    1  LIG1        0.0046
      5 S          -2.6210   -0.6210    0.0000 S.2     1  LIG1       -0.0751
      6 C          -3.6290   -2.2210    0.0000 C.3     1  LIG1        0.0330
      7 C          -4.6170   -2.3000    0.0000 C.3     1  LIG1        0.0099
      8 C          -4.9880   -1.3170    0.0000 C.3     1  LIG1        0.0270
      9 C          -4.6330    0.9880    0.0000 C.2     1  LIG1        0.0743
     10 O          -4.2670    1.9420    0.0000 O.co2   1  LIG1       -0.5445
     11 O          -5.5880    0.8580    0.0000 O.co2   1  LIG1       -0.5445
     12 N          -2.4080    1.1420    0.0000 N.am    1  LIG1       -0.1726
     13 C          -1.4080    1.0460    0.0000 C.2     1  LIG1        0.2460
     14 O          -0.9750    0.1170    0.0000 O.2     1  LIG1       -0.2730
     15 C          -0.8210    1.8580    0.0000 C.3     1  LIG1        0.0877
     16 C           0.1420    1.7580    0.0000 C.3     1  LIG1        0.0174
     17 C           1.1540    1.6630    0.0000 C.3     1  LIG1        0.0877
     18 C           1.5580    0.7330    0.0000 C.2     1  LIG1        0.2460
     19 N           2.5460    0.6460    0.0000 N.am    1  LIG1       -0.1726
     20 C           2.9830   -0.2540    0.0000 C.ar    1  LIG1        0.1032
     21 C           3.9790   -0.2830    0.0000 C.ar    1  LIG1        0.0317
     22 C           4.2500   -1.2420    0.0000 C.ar    1  LIG1       -0.0173
     23 C           3.4170   -1.8330    0.0000 C.ar    1  LIG1        0.0046
     24 S           2.6420   -1.2130    0.0000 S.2     1  LIG1       -0.0751
     25 C           3.7250   -2.7830    0.0000 C.3     1  LIG1        0.0330
     26 C           4.7330   -2.7830    0.0000 C.3     1  LIG1        0.0099
     27 C           5.0250   -1.8330    0.0000 C.3     1  LIG1        0.0270
     28 C           4.6000    0.5210    0.0000 C.2     1  LIG1        0.0743
     29 O           4.2500    1.4170    0.0000 O.co2   1  LIG1       -0.5445
     30 O           5.5830    0.3670    0.0000 O.co2   1  LIG1       -0.5445
     31 O           1.0000   -0.0710    0.0000 O.2     1  LIG1       -0.2730
     32 C           0.0420    0.7330    0.0000 C.3     1  LIG1        0.0010
     33 C           0.2250    2.7880    0.0000 C.3     1  LIG1        0.0010
@<TRIPOS>BOND
     1     1     2   ar
     2     1     5   ar
     3     1    12    1
     4     2     3   ar
     5     2     9    1
     6     3     4   ar
     7     3     8    1
     8     4     5   ar
     9     4     6    1
    10     6     7    1
    11     7     8    1
    12     9    10   ar
    13     9    11   ar
    14    12    13   am
    15    13    14    2
    16    13    15    1
    17    15    16    1
    18    16    17    1
    19    16    32    1
    20    16    33    1
    21    17    18    1
    22    18    19   am
    23    18    31    2
    24    19    20    1
    25    20    21   ar
    26    20    24   ar
    27    21    22   ar
    28    21    28    1
    29    22    23   ar
    30    22    27    1
    31    23    24   ar
    32    23    25    1
    33    25    26    1
    34    26    27    1
    35    28    29   ar
    36    28    30   ar
