@<TRIPOS>MOLECULE
28938_ChemDiv_3243-0473
 25 28 0 0 0
SMALL
GASTEIGER
Energy = 0

@<TRIPOS>ATOM
      1 C          -0.5420   -0.2170    0.0000 C.ar    1  LIG1        0.1616
      2 C          -1.1420    0.6250    0.0000 C.ar    1  LIG1        0.1167
      3 N          -0.7420    1.5250    0.0000 N.ar    1  LIG1       -0.2406
      4 C           0.2630    1.6290    0.0000 C.ar    1  LIG1        0.1022
      5 C           0.8670    0.8250    0.0000 C.ar    1  LIG1        0.1037
      6 N           0.4630   -0.0830    0.0000 N.ar    1  LIG1       -0.2251
      7 C           1.8380    0.9250    0.0000 C.ar    1  LIG1        0.0607
      8 C           2.2380    1.8290    0.0000 C.ar    1  LIG1        0.1740
      9 C           1.6710    2.6630    0.0000 C.ar    1  LIG1        0.1740
     10 C           0.6670    2.5290    0.0000 C.ar    1  LIG1        0.0607
     11 O           2.0710    3.6040    0.0000 O.3     1  LIG1       -0.4683
     12 C           1.4670    4.4000    0.0000 C.3     1  LIG1        0.2526
     13 O           3.2170    1.9290    0.0000 O.3     1  LIG1       -0.4683
     14 C           3.8170    1.1250    0.0000 C.3     1  LIG1        0.2526
     15 C          -2.0880    0.2880    0.0000 C.ar    1  LIG1        0.0364
     16 C          -2.0880   -0.7210    0.0000 C.ar    1  LIG1        0.0626
     17 N          -1.1420   -1.0250    0.0000 N.ar    1  LIG1       -0.3115
     18 C          -0.8420   -1.9580    0.0000 C.3     1  LIG1        0.1075
     19 C          -1.5130   -2.6920    0.0000 C.3     1  LIG1        0.0245
     20 C          -1.2080   -3.6670    0.0000 C.3     1  LIG1        0.0020
     21 C          -1.8830   -4.4000    0.0000 C.3     1  LIG1        0.0001
     22 C          -2.9540   -1.1880    0.0000 C.ar    1  LIG1        0.0173
     23 C          -3.8210   -0.7210    0.0000 C.ar    1  LIG1        0.0015
     24 C          -3.8210    0.2880    0.0000 C.ar    1  LIG1        0.0001
     25 C          -2.9540    0.7880    0.0000 C.ar    1  LIG1        0.0030
@<TRIPOS>BOND
     1     1     2   ar
     2     1     6   ar
     3     1    17   ar
     4     2     3   ar
     5     2    15   ar
     6     3     4   ar
     7     4     5   ar
     8     4    10   ar
     9     5     6   ar
    10     5     7   ar
    11     7     8   ar
    12     8     9   ar
    13     8    13    1
    14     9    10   ar
    15     9    11    1
    16    11    12    1
    17    13    14    1
    18    15    16   ar
    19    15    25   ar
    20    16    17   ar
    21    16    22   ar
    22    17    18    1
    23    18    19    1
    24    19    20    1
    25    20    21    1
    26    22    23   ar
    27    23    24   ar
    28    24    25   ar
