@<TRIPOS>MOLECULE
28934_ChemDiv_3243-0470
 24 27 0 0 0
SMALL
GASTEIGER
Energy = 0

@<TRIPOS>ATOM
      1 C          -0.5420   -1.0630    0.0000 C.ar    1  LIG1        0.1615
      2 N          -1.1460   -1.8710    0.0000 N.ar    1  LIG1       -0.3133
      3 C          -2.0880   -1.5710    0.0000 C.ar    1  LIG1        0.0625
      4 C          -2.0880   -0.5670    0.0000 C.ar    1  LIG1        0.0364
      5 C          -1.1460   -0.2290    0.0000 C.ar    1  LIG1        0.1167
      6 N          -0.7420    0.6790    0.0000 N.ar    1  LIG1       -0.2406
      7 C           0.2630    0.7750    0.0000 C.ar    1  LIG1        0.1022
      8 C           0.8670   -0.0250    0.0000 C.ar    1  LIG1        0.1037
      9 N           0.4630   -0.9290    0.0000 N.ar    1  LIG1       -0.2251
     10 C           1.8380    0.0670    0.0000 C.ar    1  LIG1        0.0607
     11 C           2.2420    0.9790    0.0000 C.ar    1  LIG1        0.1740
     12 C           1.6750    1.8080    0.0000 C.ar    1  LIG1        0.1740
     13 C           0.6670    1.6830    0.0000 C.ar    1  LIG1        0.0607
     14 O           2.0710    2.7540    0.0000 O.3     1  LIG1       -0.4683
     15 C           1.4710    3.5540    0.0000 C.3     1  LIG1        0.2526
     16 O           3.2210    1.0790    0.0000 O.3     1  LIG1       -0.4683
     17 C           3.8210    0.2750    0.0000 C.3     1  LIG1        0.2526
     18 C          -2.9580   -0.0670    0.0000 C.ar    1  LIG1        0.0030
     19 C          -3.8250   -0.5670    0.0000 C.ar    1  LIG1        0.0001
     20 C          -3.8250   -1.5710    0.0000 C.ar    1  LIG1        0.0015
     21 C          -2.9580   -2.0380    0.0000 C.ar    1  LIG1        0.0173
     22 C          -0.8420   -2.8170    0.0000 C.3     1  LIG1        0.0870
     23 C          -1.5130   -3.5500    0.0000 C.3     1  LIG1        0.0245
     24 C           0.1290   -3.0130    0.0000 C.3     1  LIG1        0.0245
@<TRIPOS>BOND
     1     1     2   ar
     2     1     5   ar
     3     1     9   ar
     4     2     3   ar
     5     2    22    1
     6     3     4   ar
     7     3    21   ar
     8     4     5   ar
     9     4    18   ar
    10     5     6   ar
    11     6     7   ar
    12     7     8   ar
    13     7    13   ar
    14     8     9   ar
    15     8    10   ar
    16    10    11   ar
    17    11    12   ar
    18    11    16    1
    19    12    13   ar
    20    12    14    1
    21    14    15    1
    22    16    17    1
    23    18    19   ar
    24    19    20   ar
    25    20    21   ar
    26    22    23    1
    27    22    24    1
