@<TRIPOS>MOLECULE
28940_ChemDiv_3337-1441
 26 29 0 0 0
SMALL
GASTEIGER
Energy = 0

@<TRIPOS>ATOM
      1 C          -1.1130   -1.4880    0.0000 C.ar    1  LIG1        0.1615
      2 N          -1.7170   -2.2960    0.0000 N.ar    1  LIG1       -0.3133
      3 C          -2.6540   -1.9920    0.0000 C.ar    1  LIG1        0.0625
      4 C          -2.6540   -0.9880    0.0000 C.ar    1  LIG1        0.0364
      5 C          -1.7170   -0.6880    0.0000 C.ar    1  LIG1        0.1167
      6 N          -1.2790    0.2210    0.0000 N.ar    1  LIG1       -0.2406
      7 C          -0.3040    0.3170    0.0000 C.ar    1  LIG1        0.1022
      8 C           0.2960   -0.4920    0.0000 C.ar    1  LIG1        0.1037
      9 N          -0.1080   -1.3880    0.0000 N.ar    1  LIG1       -0.2251
     10 C           1.2670   -0.3830    0.0000 C.ar    1  LIG1        0.0607
     11 C           1.6750    0.5580    0.0000 C.ar    1  LIG1        0.1738
     12 C           1.1040    1.3630    0.0000 C.ar    1  LIG1        0.1738
     13 C           0.0960    1.2250    0.0000 C.ar    1  LIG1        0.0607
     14 O           1.5080    2.3040    0.0000 O.3     1  LIG1       -0.4724
     15 C           2.2130    3.0080    0.0000 C.3     1  LIG1        0.2057
     16 C           1.9420    3.9790    0.0000 C.3     1  LIG1        0.0512
     17 O           2.6500    0.6880    0.0000 O.3     1  LIG1       -0.4724
     18 C           3.5210    1.1920    0.0000 C.3     1  LIG1        0.2057
     19 C           4.3960    0.6880    0.0000 C.3     1  LIG1        0.0512
     20 C          -3.5250   -0.4920    0.0000 C.ar    1  LIG1        0.0030
     21 C          -4.4000   -0.9880    0.0000 C.ar    1  LIG1        0.0001
     22 C          -4.4000   -1.9920    0.0000 C.ar    1  LIG1        0.0015
     23 C          -3.5250   -2.4920    0.0000 C.ar    1  LIG1        0.0173
     24 C          -1.4130   -3.2290    0.0000 C.3     1  LIG1        0.0870
     25 C          -2.0830   -3.9750    0.0000 C.3     1  LIG1        0.0245
     26 C          -0.4380   -3.4330    0.0000 C.3     1  LIG1        0.0245
@<TRIPOS>BOND
     1     1     2   ar
     2     1     5   ar
     3     1     9   ar
     4     2     3   ar
     5     2    24    1
     6     3     4   ar
     7     3    23   ar
     8     4     5   ar
     9     4    20   ar
    10     5     6   ar
    11     6     7   ar
    12     7     8   ar
    13     7    13   ar
    14     8     9   ar
    15     8    10   ar
    16    10    11   ar
    17    11    12   ar
    18    11    17    1
    19    12    13   ar
    20    12    14    1
    21    14    15    1
    22    15    16    1
    23    17    18    1
    24    18    19    1
    25    20    21   ar
    26    21    22   ar
    27    22    23   ar
    28    24    25    1
    29    24    26    1
