@<TRIPOS>MOLECULE
28944_ChemDiv_4420-0440
 21 24 0 0 0
SMALL
GASTEIGER
Energy = 0

@<TRIPOS>ATOM
      1 C           1.2250   -0.5790    0.0000 C.ar    1  LIG1        0.1617
      2 C           0.6130    0.1880    0.0000 C.ar    1  LIG1        0.1168
      3 C          -0.3130   -0.1880    0.0000 C.ar    1  LIG1        0.0394
      4 C          -0.2630   -1.1580    0.0000 C.ar    1  LIG1        0.0628
      5 N           0.6830   -1.4250    0.0000 N.ar    1  LIG1       -0.3095
      6 C           1.0330   -2.3710    0.0000 C.3     1  LIG1        0.1319
      7 C          -1.1290   -1.6750    0.0000 C.ar    1  LIG1        0.0204
      8 C          -2.0290   -1.2000    0.0000 C.ar    1  LIG1        0.0384
      9 C          -2.0290   -0.2290    0.0000 C.ar    1  LIG1        0.1387
     10 C          -1.1790    0.2830    0.0000 C.ar    1  LIG1        0.0399
     11 O          -2.9420    0.2130    0.0000 O.3     1  LIG1       -0.4755
     12 C          -3.0210    1.2290    0.0000 C.3     1  LIG1        0.2055
     13 C          -3.9380    1.6750    0.0000 C.3     1  LIG1        0.0512
     14 N           0.9830    1.1330    0.0000 N.ar    1  LIG1       -0.2408
     15 C           1.9670    1.2790    0.0000 C.ar    1  LIG1        0.0990
     16 C           2.5920    0.4880    0.0000 C.ar    1  LIG1        0.1005
     17 N           2.2210   -0.4330    0.0000 N.ar    1  LIG1       -0.2252
     18 C           3.5630    0.6330    0.0000 C.ar    1  LIG1        0.0207
     19 C           3.9330    1.5790    0.0000 C.ar    1  LIG1        0.0016
     20 C           3.3130    2.3750    0.0000 C.ar    1  LIG1        0.0016
     21 C           2.3170    2.2040    0.0000 C.ar    1  LIG1        0.0206
@<TRIPOS>BOND
     1     1     2   ar
     2     1     5   ar
     3     1    17   ar
     4     2     3   ar
     5     2    14   ar
     6     3     4   ar
     7     3    10   ar
     8     4     5   ar
     9     4     7   ar
    10     5     6    1
    11     7     8   ar
    12     8     9   ar
    13     9    10   ar
    14     9    11    1
    15    11    12    1
    16    12    13    1
    17    14    15   ar
    18    15    16   ar
    19    15    21   ar
    20    16    17   ar
    21    16    18   ar
    22    18    19   ar
    23    19    20   ar
    24    20    21   ar
