@<TRIPOS>MOLECULE
28942_ChemDiv_4420-0439
 20 23 0 0 0
SMALL
GASTEIGER
Energy = 0

@<TRIPOS>ATOM
      1 C           0.7710   -0.5830    0.0000 C.ar    1  LIG1        0.1617
      2 C           0.1540    0.1920    0.0000 C.ar    1  LIG1        0.1168
      3 C          -0.7710   -0.1880    0.0000 C.ar    1  LIG1        0.0394
      4 C          -0.7210   -1.1500    0.0000 C.ar    1  LIG1        0.0628
      5 N           0.2250   -1.4250    0.0000 N.ar    1  LIG1       -0.3095
      6 C           0.5670   -2.3750    0.0000 C.3     1  LIG1        0.1319
      7 C          -1.5880   -1.6790    0.0000 C.ar    1  LIG1        0.0204
      8 C          -2.4830   -1.2000    0.0000 C.ar    1  LIG1        0.0384
      9 C          -2.4830   -0.2330    0.0000 C.ar    1  LIG1        0.1389
     10 C          -1.6380    0.2830    0.0000 C.ar    1  LIG1        0.0399
     11 O          -3.4080    0.2130    0.0000 O.3     1  LIG1       -0.4714
     12 C          -3.4880    1.2330    0.0000 C.3     1  LIG1        0.2525
     13 N           0.5210    1.1380    0.0000 N.ar    1  LIG1       -0.2408
     14 C           1.5170    1.2830    0.0000 C.ar    1  LIG1        0.0990
     15 C           2.1380    0.4880    0.0000 C.ar    1  LIG1        0.1005
     16 N           1.7580   -0.4290    0.0000 N.ar    1  LIG1       -0.2252
     17 C           3.1040    0.6420    0.0000 C.ar    1  LIG1        0.0207
     18 C           3.4830    1.5880    0.0000 C.ar    1  LIG1        0.0016
     19 C           2.8630    2.3790    0.0000 C.ar    1  LIG1        0.0016
     20 C           1.8670    2.2080    0.0000 C.ar    1  LIG1        0.0206
@<TRIPOS>BOND
     1     1     2   ar
     2     1     5   ar
     3     1    16   ar
     4     2     3   ar
     5     2    13   ar
     6     3     4   ar
     7     3    10   ar
     8     4     5   ar
     9     4     7   ar
    10     5     6    1
    11     7     8   ar
    12     8     9   ar
    13     9    10   ar
    14     9    11    1
    15    11    12    1
    16    13    14   ar
    17    14    15   ar
    18    14    20   ar
    19    15    16   ar
    20    15    17   ar
    21    17    18   ar
    22    18    19   ar
    23    19    20   ar
