@<TRIPOS>MOLECULE
28964_ChemDiv_7426-0573
 22 25 0 0 0
SMALL
GASTEIGER
Energy = 0

@<TRIPOS>ATOM
      1 C          -0.5500   -1.0580    0.0000 C.ar    1  LIG1        0.1617
      2 C          -1.1460   -0.2420    0.0000 C.ar    1  LIG1        0.1167
      3 N          -0.7460    0.6710    0.0000 N.ar    1  LIG1       -0.2406
      4 C           0.2500    0.7750    0.0000 C.ar    1  LIG1        0.1022
      5 C           0.8380   -0.0290    0.0000 C.ar    1  LIG1        0.1037
      6 N           0.4420   -0.9500    0.0000 N.ar    1  LIG1       -0.2251
      7 C           1.8330    0.0750    0.0000 C.ar    1  LIG1        0.0607
      8 C           2.2420    0.9960    0.0000 C.ar    1  LIG1        0.1740
      9 C           1.6380    1.7960    0.0000 C.ar    1  LIG1        0.1740
     10 C           0.6580    1.6920    0.0000 C.ar    1  LIG1        0.0607
     11 O           2.0460    2.7170    0.0000 O.3     1  LIG1       -0.4683
     12 C           3.0290    2.8250    0.0000 C.3     1  LIG1        0.2526
     13 O           3.2250    1.1000    0.0000 O.3     1  LIG1       -0.4683
     14 C           3.8250    0.3000    0.0000 C.3     1  LIG1        0.2526
     15 C          -2.0960   -0.5580    0.0000 C.ar    1  LIG1        0.0364
     16 C          -2.0920   -1.5670    0.0000 C.ar    1  LIG1        0.0626
     17 N          -1.1380   -1.8710    0.0000 N.ar    1  LIG1       -0.3095
     18 C          -0.8210   -2.8210    0.0000 C.3     1  LIG1        0.1319
     19 C          -2.9670   -2.0630    0.0000 C.ar    1  LIG1        0.0173
     20 C          -3.8290   -1.5670    0.0000 C.ar    1  LIG1        0.0015
     21 C          -3.8290   -0.5710    0.0000 C.ar    1  LIG1        0.0001
     22 C          -2.9670   -0.0630    0.0000 C.ar    1  LIG1        0.0030
@<TRIPOS>BOND
     1     1     2   ar
     2     1     6   ar
     3     1    17   ar
     4     2     3   ar
     5     2    15   ar
     6     3     4   ar
     7     4     5   ar
     8     4    10   ar
     9     5     6   ar
    10     5     7   ar
    11     7     8   ar
    12     8     9   ar
    13     8    13    1
    14     9    10   ar
    15     9    11    1
    16    11    12    1
    17    13    14    1
    18    15    16   ar
    19    15    22   ar
    20    16    17   ar
    21    16    19   ar
    22    17    18    1
    23    19    20   ar
    24    20    21   ar
    25    21    22   ar
