@<TRIPOS>MOLECULE
28965_ChemDiv_3046-8913
 27 29 0 0 0
SMALL
GASTEIGER
Energy = 0

@<TRIPOS>ATOM
      1 N           1.2130   -0.3420    0.0000 N.am    1  LIG1       -0.2569
      2 C           0.2920   -0.6500    0.0000 C.ar    1  LIG1        0.0534
      3 C          -0.4540    0.0000    0.0000 C.ar    1  LIG1        0.0307
      4 C          -0.2960    0.9790    0.0000 C.3     1  LIG1        0.1939
      5 C           0.6500    1.3250    0.0000 C.3     1  LIG1        0.0685
      6 C           1.4170    0.6540    0.0000 C.3     1  LIG1        0.0841
      7 C           2.3920    0.9500    0.0000 C.3     1  LIG1        0.0220
      8 O          -1.0330    1.6170    0.0000 O.3     1  LIG1       -0.4476
      9 C          -1.9830    1.3080    0.0000 C.2     1  LIG1        0.3172
     10 O          -2.1830    0.3460    0.0000 O.2     1  LIG1       -0.2501
     11 C          -2.7330    1.9630    0.0000 C.3     1  LIG1        0.1096
     12 C          -3.6790    1.6540    0.0000 C.3     1  LIG1        0.0116
     13 C          -3.8830    0.6920    0.0000 C.3     1  LIG1        0.0006
     14 C          -4.8170    0.3750    0.0000 C.3     1  LIG1        0.0000
     15 C          -1.4130   -0.3250    0.0000 C.ar    1  LIG1       -0.0038
     16 C          -1.6080   -1.2960    0.0000 C.ar    1  LIG1       -0.0220
     17 C          -0.8330   -1.9580    0.0000 C.ar    1  LIG1       -0.0030
     18 C           0.1210   -1.6420    0.0000 C.ar    1  LIG1        0.0144
     19 C          -2.5750   -1.6130    0.0000 C.3     1  LIG1        0.0310
     20 C           1.9630   -0.9790    0.0000 C.2     1  LIG1        0.2527
     21 O           1.7580   -1.9580    0.0000 O.2     1  LIG1       -0.2696
     22 C           2.9130   -0.6630    0.0000 C.ar    1  LIG1        0.0539
     23 C           3.6750   -1.3210    0.0000 C.ar    1  LIG1        0.0045
     24 C           4.6380   -0.9960    0.0000 C.ar    1  LIG1        0.0001
     25 C           4.8130    0.0040    0.0000 C.ar    1  LIG1        0.0000
     26 C           4.0460    0.6540    0.0000 C.ar    1  LIG1        0.0001
     27 C           3.1170    0.3170    0.0000 C.ar    1  LIG1        0.0045
@<TRIPOS>BOND
     1     1     2    1
     2     1     6    1
     3     1    20   am
     4     2     3   ar
     5     2    18   ar
     6     3     4    1
     7     3    15   ar
     8     4     5    1
     9     4     8    1
    10     5     6    1
    11     6     7    1
    12     8     9    1
    13     9    10    2
    14     9    11    1
    15    11    12    1
    16    12    13    1
    17    13    14    1
    18    15    16   ar
    19    16    17   ar
    20    16    19    1
    21    17    18   ar
    22    20    21    2
    23    20    22    1
    24    22    23   ar
    25    22    27   ar
    26    23    24   ar
    27    24    25   ar
    28    25    26   ar
    29    26    27   ar
