@<TRIPOS>MOLECULE
28962_ChemDiv_6927-0989
 21 24 0 0 0
SMALL
GASTEIGER
Energy = 0

@<TRIPOS>ATOM
      1 C           0.8380    0.2380    0.0000 C.ar    1  LIG1        0.1616
      2 C           0.8290    1.2130    0.0000 C.ar    1  LIG1        0.1168
      3 C          -0.8580    1.2130    0.0000 C.ar    1  LIG1        0.0394
      4 C          -0.8500    0.2380    0.0000 C.ar    1  LIG1        0.0628
      5 N          -0.0080   -0.2580    0.0000 N.ar    1  LIG1       -0.3115
      6 C          -0.0080   -1.2250    0.0000 C.3     1  LIG1        0.1076
      7 C          -0.8460   -1.7130    0.0000 C.3     1  LIG1        0.0265
      8 C          -1.6960   -0.2500    0.0000 C.ar    1  LIG1        0.0204
      9 C          -2.5290    0.2380    0.0000 C.ar    1  LIG1        0.0384
     10 C          -2.5290    1.2040    0.0000 C.ar    1  LIG1        0.1389
     11 C          -1.6960    1.6920    0.0000 C.ar    1  LIG1        0.0399
     12 O          -3.3670    1.6920    0.0000 O.3     1  LIG1       -0.4714
     13 C          -4.2000    1.2040    0.0000 C.3     1  LIG1        0.2525
     14 N           1.6630    1.7000    0.0000 N.ar    1  LIG1       -0.2408
     15 C           2.5040    1.2290    0.0000 C.ar    1  LIG1        0.0990
     16 C           2.5130    0.2540    0.0000 C.ar    1  LIG1        0.1005
     17 N           1.6790   -0.2420    0.0000 N.ar    1  LIG1       -0.2252
     18 C           3.3580   -0.2250    0.0000 C.ar    1  LIG1        0.0207
     19 C           4.1960    0.2710    0.0000 C.ar    1  LIG1        0.0016
     20 C           4.1830    1.2460    0.0000 C.ar    1  LIG1        0.0016
     21 C           3.3420    1.7170    0.0000 C.ar    1  LIG1        0.0206
@<TRIPOS>BOND
     1     1     2   ar
     2     1     5   ar
     3     1    17   ar
     4     2     3   ar
     5     2    14   ar
     6     3     4   ar
     7     3    11   ar
     8     4     5   ar
     9     4     8   ar
    10     5     6    1
    11     6     7    1
    12     8     9   ar
    13     9    10   ar
    14    10    11   ar
    15    10    12    1
    16    12    13    1
    17    14    15   ar
    18    15    16   ar
    19    15    21   ar
    20    16    17   ar
    21    16    18   ar
    22    18    19   ar
    23    19    20   ar
    24    20    21   ar
