@<TRIPOS>MOLECULE
28963_ChemDiv_3043-0104
 30 34 0 0 0
SMALL
GASTEIGER
Energy = 0

@<TRIPOS>ATOM
      1 N           2.0250   -0.0830    0.0000 N.am    1  LIG1       -0.2081
      2 C           2.6130    0.7170    0.0000 C.2     1  LIG1        0.2351
      3 C           3.5790    0.4290    0.0000 C.3     1  LIG1        0.0860
      4 C           3.5790   -0.5830    0.0000 C.3     1  LIG1        0.0860
      5 C           2.6130   -0.8830    0.0000 C.2     1  LIG1        0.2351
      6 O           2.3130   -1.8460    0.0000 O.2     1  LIG1       -0.2741
      7 C           4.4670   -1.0830    0.0000 C.3     1  LIG1        0.0091
      8 C           4.7170   -0.1000    0.0000 C.3     1  LIG1        0.0010
      9 C           4.4670    0.9210    0.0000 C.3     1  LIG1        0.0091
     10 C           5.3330    0.4290    0.0000 C.3     1  LIG1        0.0005
     11 C           5.3330   -0.5830    0.0000 C.3     1  LIG1        0.0005
     12 O           2.3130    1.6830    0.0000 O.2     1  LIG1       -0.2741
     13 C           1.0130   -0.0830    0.0000 C.ar    1  LIG1        0.0607
     14 C           0.5130   -0.9460    0.0000 C.ar    1  LIG1        0.0167
     15 C          -0.5000   -0.9460    0.0000 C.ar    1  LIG1        0.0179
     16 C          -1.0000   -0.0790    0.0000 C.ar    1  LIG1        0.0738
     17 N          -1.8750   -0.1540    0.0000 N.am    1  LIG1       -0.1754
     18 C          -2.6080   -0.9000    0.0000 C.2     1  LIG1        0.2690
     19 C          -3.5830   -0.5920    0.0000 C.ar    1  LIG1        0.0565
     20 C          -3.5830    0.4290    0.0000 C.ar    1  LIG1        0.0184
     21 C          -2.7080    0.9330    0.0000 C.2     1  LIG1        0.0730
     22 O          -2.0040    0.9330    0.0000 O.co2   1  LIG1       -0.5446
     23 O          -3.1750    1.8830    0.0000 O.co2   1  LIG1       -0.5446
     24 C          -4.4540    0.9210    0.0000 C.ar    1  LIG1        0.0013
     25 C          -5.3380    0.4290    0.0000 C.ar    1  LIG1        0.0000
     26 C          -5.3380   -0.5920    0.0000 C.ar    1  LIG1        0.0001
     27 C          -4.4540   -1.0960    0.0000 C.ar    1  LIG1        0.0046
     28 O          -2.3000   -1.8790    0.0000 O.2     1  LIG1       -0.2680
     29 C          -0.5000    0.7670    0.0000 C.ar    1  LIG1        0.0179
     30 C           0.5130    0.7920    0.0000 C.ar    1  LIG1        0.0167
@<TRIPOS>BOND
     1     1     2   am
     2     1     5   am
     3     1    13    1
     4     2     3    1
     5     2    12    2
     6     3     4    1
     7     3     9    1
     8     4     5    1
     9     4     7    1
    10     5     6    2
    11     7     8    1
    12     7    11    1
    13     8     9    1
    14     9    10    1
    15    10    11    1
    16    13    14   ar
    17    13    30   ar
    18    14    15   ar
    19    15    16   ar
    20    16    17    1
    21    16    29   ar
    22    17    18   am
    23    18    19    1
    24    18    28    2
    25    19    20   ar
    26    19    27   ar
    27    20    21    1
    28    20    24   ar
    29    21    22   ar
    30    21    23   ar
    31    24    25   ar
    32    25    26   ar
    33    26    27   ar
    34    29    30   ar
