@<TRIPOS>MOLECULE
28973_ChemDiv_3701-0081
 19 21 0 0 0
SMALL
GASTEIGER
Energy = 0

@<TRIPOS>ATOM
      1 C          -2.2210   -2.2920    0.0000 C.ar    1  LIG1        0.1761
      2 C          -1.4290   -2.7290    0.0000 C.ar    1  LIG1        0.1764
      3 O          -1.6380   -3.6000    0.0000 O.3     1  LIG1       -0.4346
      4 C          -2.5000   -3.7000    0.0000 C.3     1  LIG1        0.4294
      5 O          -2.8630   -2.8920    0.0000 O.3     1  LIG1       -0.4346
      6 C          -0.6920   -2.2920    0.0000 C.ar    1  LIG1        0.0399
      7 C          -0.6920   -1.4250    0.0000 C.ar    1  LIG1       -0.0007
      8 C          -1.4290   -0.9750    0.0000 C.ar    1  LIG1       -0.0128
      9 C          -2.2210   -1.4250    0.0000 C.ar    1  LIG1        0.0361
     10 C          -1.4290   -0.0790    0.0000 C.3     1  LIG1        0.0953
     11 C          -0.6920    0.3580    0.0000 C.3     1  LIG1        0.2050
     12 N          -0.6920    1.2790    0.0000 N.4     1  LIG1        0.4436
     13 C           0.1250    1.7330    0.0000 C.3     1  LIG1        0.1434
     14 C           1.0500    0.9920    0.0000 C.3     1  LIG1        0.0625
     15 C           2.2380    1.2250    0.0000 C.3     1  LIG1        0.0061
     16 C           2.8580    2.2960    0.0000 C.3     1  LIG1        0.0002
     17 C           2.2920    3.4460    0.0000 C.3     1  LIG1        0.0002
     18 C           1.1130    3.7040    0.0000 C.3     1  LIG1        0.0061
     19 C           0.1250    2.9710    0.0000 C.3     1  LIG1        0.0625
@<TRIPOS>BOND
     1     1     2   ar
     2     1     5    1
     3     1     9   ar
     4     2     3    1
     5     2     6   ar
     6     3     4    1
     7     4     5    1
     8     6     7   ar
     9     7     8   ar
    10     8     9   ar
    11     8    10    1
    12    10    11    1
    13    11    12    1
    14    12    13    1
    15    13    14    1
    16    13    19    1
    17    14    15    1
    18    15    16    1
    19    16    17    1
    20    17    18    1
    21    18    19    1
