@<TRIPOS>MOLECULE
28975_ChemDiv_3702-1152
 22 26 0 0 0
SMALL
GASTEIGER
Energy = 0

@<TRIPOS>ATOM
      1 C           2.0080    0.4040    0.0000 C.3     1  LIG1        0.0568
      2 C           2.0080   -0.5750    0.0000 C.3     1  LIG1        0.1430
      3 C           2.9420   -0.8790    0.0000 C.3     1  LIG1        0.0568
      4 C           3.8880   -0.5290    0.0000 C.3     1  LIG1        0.0059
      5 C           3.8880    0.3080    0.0000 C.3     1  LIG1        0.0004
      6 C           2.8210    0.6210    0.0000 C.3     1  LIG1        0.0059
      7 C           4.5920    1.0960    0.0000 C.3     1  LIG1        0.0000
      8 C           3.7290    0.7500    0.0000 C.3     1  LIG1        0.0004
      9 C           3.7290   -0.2170    0.0000 C.3     1  LIG1        0.0059
     10 C           2.7290    1.0960    0.0000 C.3     1  LIG1        0.0059
     11 N           1.1630   -1.0790    0.0000 N.4     1  LIG1        0.4435
     12 C           0.3130   -0.5830    0.0000 C.3     1  LIG1        0.2050
     13 C          -0.5420   -1.0790    0.0000 C.3     1  LIG1        0.0953
     14 C          -1.3920   -0.5830    0.0000 C.ar    1  LIG1       -0.0128
     15 C          -2.2500   -1.0790    0.0000 C.ar    1  LIG1        0.0361
     16 C          -3.0920   -0.5830    0.0000 C.ar    1  LIG1        0.1761
     17 C          -3.0920    0.4040    0.0000 C.ar    1  LIG1        0.1764
     18 O          -3.9420    0.8880    0.0000 O.3     1  LIG1       -0.4346
     19 C          -4.5960   -0.1130    0.0000 C.3     1  LIG1        0.4294
     20 O          -3.9420   -1.0920    0.0000 O.3     1  LIG1       -0.4346
     21 C          -2.2500    0.9040    0.0000 C.ar    1  LIG1        0.0399
     22 C          -1.3920    0.4040    0.0000 C.ar    1  LIG1       -0.0007
@<TRIPOS>BOND
     1     1     2    1
     2     1     6    1
     3     1    10    1
     4     2     3    1
     5     2    11    1
     6     3     4    1
     7     3     9    1
     8     4     5    1
     9     5     6    1
    10     5     7    1
    11     7     8    1
    12     8     9    1
    13     8    10    1
    14    11    12    1
    15    12    13    1
    16    13    14    1
    17    14    15   ar
    18    14    22   ar
    19    15    16   ar
    20    16    17   ar
    21    16    20    1
    22    17    18    1
    23    17    21   ar
    24    18    19    1
    25    19    20    1
    26    21    22   ar
