@<TRIPOS>MOLECULE
28971_ChemDiv_3075-0779
 24 26 0 0 0
SMALL
GASTEIGER
Energy = 0

@<TRIPOS>ATOM
      1 C          -1.6420   -2.2210    0.0000 C.3     1  LIG1        0.0728
      2 C          -2.3540   -1.5080    0.0000 C.2     1  LIG1        0.0528
      3 O          -3.3000   -1.7330    0.0000 O.co2   1  LIG1       -0.5491
      4 O          -2.0710   -0.5250    0.0000 O.co2   1  LIG1       -0.5491
      5 C          -0.7000   -1.9670    0.0000 C.3     1  LIG1        0.0948
      6 C          -0.4170   -0.9880    0.0000 C.2     1  LIG1        0.2418
      7 O          -1.1290   -0.2750    0.0000 O.2     1  LIG1       -0.2733
      8 N           0.5540   -0.7330    0.0000 N.am    1  LIG1       -0.2051
      9 C           0.8170    0.2420    0.0000 C.3     1  LIG1        0.1198
     10 C           1.7880    0.4920    0.0000 C.3     1  LIG1        0.0499
     11 C           2.0710    1.4630    0.0000 C.ar    1  LIG1       -0.0172
     12 C           1.3580    2.1750    0.0000 C.ar    1  LIG1        0.0360
     13 C           1.6420    3.1540    0.0000 C.ar    1  LIG1        0.1761
     14 C           2.6080    3.4080    0.0000 C.ar    1  LIG1        0.1764
     15 O           2.6710    4.3790    0.0000 O.3     1  LIG1       -0.4346
     16 C           1.7250    4.7750    0.0000 C.3     1  LIG1        0.4294
     17 O           1.1000    3.9790    0.0000 O.3     1  LIG1       -0.4346
     18 C           3.2960    2.6960    0.0000 C.ar    1  LIG1        0.0399
     19 C           3.0380    1.7500    0.0000 C.ar    1  LIG1       -0.0009
     20 C          -1.8750   -3.1830    0.0000 C.3     1  LIG1        0.1209
     21 O          -1.2130   -3.9000    0.0000 O.3     1  LIG1       -0.3559
     22 C          -1.7130   -4.7750    0.0000 C.3     1  LIG1        0.1421
     23 C          -2.6580   -4.6080    0.0000 C.3     1  LIG1        0.0346
     24 C          -2.8000   -3.6130    0.0000 C.3     1  LIG1        0.0325
@<TRIPOS>BOND
     1     1     2    1
     2     1     5    1
     3     1    20    1
     4     2     3   ar
     5     2     4   ar
     6     5     6    1
     7     6     7    2
     8     6     8   am
     9     8     9    1
    10     9    10    1
    11    10    11    1
    12    11    12   ar
    13    11    19   ar
    14    12    13   ar
    15    13    14   ar
    16    13    17    1
    17    14    15    1
    18    14    18   ar
    19    15    16    1
    20    16    17    1
    21    18    19   ar
    22    20    21    1
    23    20    24    1
    24    21    22    1
    25    22    23    1
    26    23    24    1
