@<TRIPOS>MOLECULE
28976_ChemDiv_3258-0264
 25 28 0 0 0
SMALL
GASTEIGER
Energy = 0

@<TRIPOS>ATOM
      1 N           2.2130   -0.3290    0.0000 N.ar    1  LIG1       -0.0795
      2 N           1.2880   -0.7500    0.0000 N.ar    1  LIG1       -0.1376
      3 C           1.3960   -1.7460    0.0000 C.ar    1  LIG1        0.1009
      4 C           2.3750   -1.9460    0.0000 C.ar    1  LIG1        0.0848
      5 C           2.8750   -1.0790    0.0000 C.ar    1  LIG1        0.2293
      6 C           3.8710   -0.9790    0.0000 C.3     1  LIG1        0.1103
      7 C           0.6540   -2.4130    0.0000 C.3     1  LIG1        0.0560
      8 C           0.4250   -0.2420    0.0000 C.3     1  LIG1        0.2057
      9 C          -0.4380   -0.7500    0.0000 C.3     1  LIG1        0.2027
     10 C          -1.4000   -0.4790    0.0000 C.3     1  LIG1        0.1410
     11 N          -1.4000    0.5170    0.0000 N.ar    1  LIG1       -0.3245
     12 C          -2.2290    0.9830    0.0000 C.ar    1  LIG1        0.0600
     13 C          -2.2290    1.9420    0.0000 C.ar    1  LIG1        0.0172
     14 C          -0.5830    1.9420    0.0000 C.ar    1  LIG1        0.0172
     15 C          -0.5830    0.9830    0.0000 C.ar    1  LIG1        0.0600
     16 C           0.2420    0.5170    0.0000 C.ar    1  LIG1        0.0172
     17 C           1.0790    0.9830    0.0000 C.ar    1  LIG1        0.0015
     18 C           1.0790    1.9420    0.0000 C.ar    1  LIG1        0.0001
     19 C           0.2420    2.4170    0.0000 C.ar    1  LIG1        0.0015
     20 C          -3.0500    2.4170    0.0000 C.ar    1  LIG1        0.0015
     21 C          -3.8750    1.9420    0.0000 C.ar    1  LIG1        0.0001
     22 C          -3.8750    0.9830    0.0000 C.ar    1  LIG1        0.0015
     23 C          -3.0500    0.5170    0.0000 C.ar    1  LIG1        0.0172
     24 O          -0.3000   -1.7460    0.0000 O.3     1  LIG1       -0.2187
     25 C           2.4210    0.6380    0.0000 C.3     1  LIG1        0.4349
@<TRIPOS>BOND
     1     1     2   ar
     2     1     5   ar
     3     1    25    1
     4     2     3   ar
     5     2     8    1
     6     3     4   ar
     7     3     7    1
     8     4     5   ar
     9     5     6    1
    10     8     9    1
    11     9    10    1
    12     9    24    1
    13    10    11    1
    14    11    12   ar
    15    11    15   ar
    16    12    13   ar
    17    12    23   ar
    18    13    14   ar
    19    13    20   ar
    20    14    15   ar
    21    14    19   ar
    22    15    16   ar
    23    16    17   ar
    24    17    18   ar
    25    18    19   ar
    26    20    21   ar
    27    21    22   ar
    28    22    23   ar
