@<TRIPOS>MOLECULE
28987_ChemDiv_3136-1446
 26 29 0 0 0
SMALL
GASTEIGER
Energy = 0

@<TRIPOS>ATOM
      1 N          -1.3420    0.7000    0.0000 N.ar    1  LIG1       -0.2552
      2 C          -0.3540    0.7000    0.0000 C.2     1  LIG1        0.2701
      3 C           0.6040    0.4000    0.0000 C.ar    1  LIG1        0.1101
      4 C           2.2000    0.4000    0.0000 C.ar    1  LIG1        0.1280
      5 N           2.2000   -0.4080    0.0000 N.ar    1  LIG1       -0.0772
      6 O           1.4130   -0.9210    0.0000 O.2     1  LIG1       -0.3576
      7 C           0.6040   -0.4080    0.0000 C.ar    1  LIG1        0.1593
      8 C           0.1000   -1.0290    0.0000 C.3     1  LIG1        0.0755
      9 C           3.0960    0.8580    0.0000 C.ar    1  LIG1        0.0316
     10 C           3.9580    0.2920    0.0000 C.ar    1  LIG1        0.0592
     11 CL          3.9710   -0.6670    0.0000 Cl      1  LIG1       -0.0822
     12 C           4.8580    0.7670    0.0000 C.ar    1  LIG1        0.0114
     13 C           4.9130    1.7920    0.0000 C.ar    1  LIG1        0.0009
     14 C           4.0500    2.3380    0.0000 C.ar    1  LIG1        0.0001
     15 C           3.1380    1.8790    0.0000 C.ar    1  LIG1        0.0024
     16 O           0.0630    1.5960    0.0000 O.2     1  LIG1       -0.2664
     17 C          -2.1420    0.0880    0.0000 C.ar    1  LIG1        0.0856
     18 C          -2.9540    0.6670    0.0000 C.ar    1  LIG1        0.0989
     19 N          -2.6330    1.6130    0.0000 N.ar    1  LIG1       -0.2236
     20 C          -1.6630    1.6380    0.0000 C.ar    1  LIG1        0.1851
     21 C          -3.8670    0.2500    0.0000 C.ar    1  LIG1        0.0161
     22 C          -3.9750   -0.7170    0.0000 C.ar    1  LIG1       -0.0242
     23 C          -3.1540   -1.3330    0.0000 C.ar    1  LIG1       -0.0242
     24 C          -2.2500   -0.9170    0.0000 C.ar    1  LIG1        0.0146
     25 C          -3.2210   -2.3330    0.0000 C.3     1  LIG1        0.0307
     26 C          -4.9170   -1.1380    0.0000 C.3     1  LIG1        0.0307
@<TRIPOS>BOND
     1     1     2   am
     2     1    17   ar
     3     1    20   ar
     4     2     3    1
     5     2    16    2
     6     3     4   ar
     7     3     7   ar
     8     4     5   ar
     9     4     9    1
    10     5     6   ar
    11     6     7   ar
    12     7     8    1
    13     9    10   ar
    14     9    15   ar
    15    10    11    1
    16    10    12   ar
    17    12    13   ar
    18    13    14   ar
    19    14    15   ar
    20    17    18   ar
    21    17    24   ar
    22    18    19   ar
    23    18    21   ar
    24    19    20   ar
    25    21    22   ar
    26    22    23   ar
    27    22    26    1
    28    23    24   ar
    29    23    25    1
