@<TRIPOS>MOLECULE
28995_ChemDiv_3076-0223
 34 37 0 0 0
SMALL
GASTEIGER
Energy = 0

@<TRIPOS>ATOM
      1 C           0.9710   -1.1040    0.0000 C.ar    1  LIG1        0.0865
      2 C           0.3580   -0.3040    0.0000 C.ar    1  LIG1        0.1001
      3 C          -0.5750   -0.6250    0.0000 C.ar    1  LIG1        0.0419
      4 C          -0.5750   -1.6170    0.0000 C.ar    1  LIG1        0.1137
      5 S           0.3880   -1.9380    0.0000 S.2     1  LIG1       -0.0633
      6 N          -1.4460   -2.1040    0.0000 N.ar    1  LIG1       -0.2202
      7 C          -2.3040   -1.6170    0.0000 C.ar    1  LIG1        0.1798
      8 C          -2.3040   -0.6250    0.0000 C.ar    1  LIG1        0.1032
      9 C          -1.4460   -0.0790    0.0000 C.ar    1  LIG1        0.0159
     10 C          -1.4130    0.8880    0.0000 C.ar    1  LIG1        0.0071
     11 C          -0.5460    1.3880    0.0000 C.ar    1  LIG1        0.0403
     12 C          -0.5290    2.3670    0.0000 C.ar    1  LIG1        0.1754
     13 C          -1.3630    2.8880    0.0000 C.ar    1  LIG1        0.2061
     14 C          -2.2500    2.4380    0.0000 C.ar    1  LIG1        0.1754
     15 C          -2.2830    1.4080    0.0000 C.ar    1  LIG1        0.0403
     16 O          -3.0880    2.9670    0.0000 O.3     1  LIG1       -0.4683
     17 C          -3.9630    2.5130    0.0000 C.3     1  LIG1        0.2526
     18 O          -1.3500    3.8960    0.0000 O.3     1  LIG1       -0.4654
     19 C          -2.1830    4.4250    0.0000 C.3     1  LIG1        0.2528
     20 O           0.3500    2.8500    0.0000 O.3     1  LIG1       -0.4683
     21 C           0.3750    3.8330    0.0000 C.3     1  LIG1        0.2526
     22 C          -3.2170   -0.1420    0.0000 C.1     1  LIG1        0.1033
     23 N          -4.0880    0.2920    0.0000 N.1     1  LIG1       -0.1907
     24 N          -3.1880   -2.1040    0.0000 N.pl3   1  LIG1       -0.1065
     25 N           0.6170    0.6500    0.0000 N.pl3   1  LIG1       -0.1274
     26 C           1.9670   -1.0380    0.0000 C.2     1  LIG1        0.2028
     27 C           2.4960   -1.8750    0.0000 C.ar    1  LIG1        0.0396
     28 C           3.5040   -1.8330    0.0000 C.ar    1  LIG1        0.0041
     29 C           4.0420   -2.6710    0.0000 C.ar    1  LIG1        0.0115
     30 C           3.5710   -3.5710    0.0000 C.ar    1  LIG1        0.0577
     31 C           2.5790   -3.6130    0.0000 C.ar    1  LIG1        0.0115
     32 C           2.0290   -2.7750    0.0000 C.ar    1  LIG1        0.0041
     33 CL          4.0830   -4.4250    0.0000 Cl      1  LIG1       -0.0822
     34 O           2.4170   -0.1420    0.0000 O.2     1  LIG1       -0.2860
@<TRIPOS>BOND
     1     1     2   ar
     2     1     5   ar
     3     1    26    1
     4     2     3   ar
     5     2    25    1
     6     3     4   ar
     7     3     9   ar
     8     4     5   ar
     9     4     6   ar
    10     6     7   ar
    11     7     8   ar
    12     7    24    1
    13     8     9   ar
    14     8    22    1
    15     9    10    1
    16    10    11   ar
    17    10    15   ar
    18    11    12   ar
    19    12    13   ar
    20    12    20    1
    21    13    14   ar
    22    13    18    1
    23    14    15   ar
    24    14    16    1
    25    16    17    1
    26    18    19    1
    27    20    21    1
    28    22    23    3
    29    26    27    1
    30    26    34    2
    31    27    28   ar
    32    27    32   ar
    33    28    29   ar
    34    29    30   ar
    35    30    31   ar
    36    30    33    1
    37    31    32   ar
