@<TRIPOS>MOLECULE
28998_ChemDiv_3260-0457
 19 21 0 0 0
SMALL
GASTEIGER
Energy = 0

@<TRIPOS>ATOM
      1 C           0.2290    0.8790    0.0000 C.ar    1  LIG1        0.3319
      2 N          -0.5580    0.4290    0.0000 N.ar    1  LIG1       -0.2758
      3 C          -1.3330    0.8790    0.0000 C.ar    1  LIG1        0.0800
      4 C          -1.3330    1.7710    0.0000 C.ar    1  LIG1        0.0798
      5 N           0.2290    1.7710    0.0000 N.ar    1  LIG1       -0.2779
      6 C           0.2290    2.7830    0.0000 C.3     1  LIG1        0.1351
      7 C          -2.1130    2.2080    0.0000 C.ar    1  LIG1        0.0188
      8 C          -2.9000    1.7710    0.0000 C.ar    1  LIG1        0.0016
      9 C          -2.9000    0.8790    0.0000 C.ar    1  LIG1        0.0016
     10 C          -2.1130    0.4290    0.0000 C.ar    1  LIG1        0.0188
     11 C          -0.5580   -0.8080    0.0000 C.3     1  LIG1        0.1373
     12 C           0.2960   -1.2960    0.0000 C.ar    1  LIG1        0.0006
     13 C           1.1290   -0.7920    0.0000 C.ar    1  LIG1       -0.0015
     14 C           2.0040   -1.2790    0.0000 C.ar    1  LIG1        0.0111
     15 C           2.0210   -2.2670    0.0000 C.ar    1  LIG1        0.0577
     16 CL          2.8960   -2.7130    0.0000 Cl      1  LIG1       -0.0822
     17 C           1.1880   -2.7790    0.0000 C.ar    1  LIG1        0.0111
     18 C           0.3130   -2.2920    0.0000 C.ar    1  LIG1       -0.0015
     19 O           1.4290    0.8630    0.0000 O.2     1  LIG1       -0.2463
@<TRIPOS>BOND
     1     1     2   ar
     2     1     5   ar
     3     1    19    2
     4     2     3   ar
     5     2    11    1
     6     3     4   ar
     7     3    10   ar
     8     4     5   ar
     9     4     7   ar
    10     5     6    1
    11     7     8   ar
    12     8     9   ar
    13     9    10   ar
    14    11    12    1
    15    12    13   ar
    16    12    18   ar
    17    13    14   ar
    18    14    15   ar
    19    15    16    1
    20    15    17   ar
    21    17    18   ar
