@<TRIPOS>MOLECULE
28999_ChemDiv_4296-0826
 34 37 0 0 0
SMALL
GASTEIGER
Energy = 0

@<TRIPOS>ATOM
      1 C           0.3170   -2.1330    0.0000 C.ar    1  LIG1        0.1029
      2 C          -0.2670   -1.3210    0.0000 C.ar    1  LIG1        0.1015
      3 C          -1.2170   -1.6290    0.0000 C.ar    1  LIG1        0.0420
      4 C          -1.2170   -2.6330    0.0000 C.ar    1  LIG1        0.1137
      5 S          -0.2670   -2.9500    0.0000 S.2     1  LIG1       -0.0619
      6 N          -2.0880   -3.1420    0.0000 N.ar    1  LIG1       -0.2202
      7 C          -2.9710   -2.6330    0.0000 C.ar    1  LIG1        0.1798
      8 C          -2.9710   -1.6290    0.0000 C.ar    1  LIG1        0.1032
      9 C          -2.0880   -1.1290    0.0000 C.ar    1  LIG1        0.0158
     10 C          -2.0750   -0.1130    0.0000 C.ar    1  LIG1        0.0041
     11 C          -1.2000    0.3880    0.0000 C.ar    1  LIG1        0.0401
     12 C          -1.1880    1.3920    0.0000 C.ar    1  LIG1        0.1724
     13 C          -2.0750    1.9080    0.0000 C.ar    1  LIG1        0.1724
     14 C          -2.9460    1.4040    0.0000 C.ar    1  LIG1        0.0400
     15 C          -2.9460    0.3880    0.0000 C.ar    1  LIG1        0.0033
     16 O          -2.0880    2.9170    0.0000 O.3     1  LIG1       -0.4684
     17 C          -2.9540    3.4250    0.0000 C.3     1  LIG1        0.2526
     18 O          -0.2880    1.8880    0.0000 O.3     1  LIG1       -0.4684
     19 C           0.5830    1.3630    0.0000 C.3     1  LIG1        0.2526
     20 C          -3.8580   -1.1290    0.0000 C.1     1  LIG1        0.1033
     21 N          -3.8670   -0.1130    0.0000 N.1     1  LIG1       -0.1907
     22 N          -3.8460   -3.1540    0.0000 N.pl3   1  LIG1       -0.1065
     23 N           0.0710   -0.3540    0.0000 N.pl3   1  LIG1       -0.1273
     24 C           1.0540   -2.6630    0.0000 C.2     1  LIG1        0.2764
     25 N           1.8420   -2.6630    0.0000 N.am    1  LIG1       -0.1750
     26 C           2.3380   -1.8040    0.0000 C.ar    1  LIG1        0.0737
     27 C           1.8420   -0.9170    0.0000 C.ar    1  LIG1        0.0163
     28 C           2.3380   -0.0420    0.0000 C.ar    1  LIG1       -0.0029
     29 C           3.3580   -0.0540    0.0000 C.ar    1  LIG1       -0.0221
     30 C           3.8630   -0.9460    0.0000 C.ar    1  LIG1       -0.0029
     31 C           3.3460   -1.8040    0.0000 C.ar    1  LIG1        0.0163
     32 C           3.4250    1.1250    0.0000 C.3     1  LIG1        0.0264
     33 C           2.4170    1.1790    0.0000 C.3     1  LIG1        0.0050
     34 O           0.9330   -3.4210    0.0000 O.2     1  LIG1       -0.2674
@<TRIPOS>BOND
     1     1     2   ar
     2     1     5   ar
     3     1    24    1
     4     2     3   ar
     5     2    23    1
     6     3     4   ar
     7     3     9   ar
     8     4     5   ar
     9     4     6   ar
    10     6     7   ar
    11     7     8   ar
    12     7    22    1
    13     8     9   ar
    14     8    20    1
    15     9    10    1
    16    10    11   ar
    17    10    15   ar
    18    11    12   ar
    19    12    13   ar
    20    12    18    1
    21    13    14   ar
    22    13    16    1
    23    14    15   ar
    24    16    17    1
    25    18    19    1
    26    20    21    3
    27    24    25   am
    28    24    34    2
    29    25    26    1
    30    26    27   ar
    31    26    31   ar
    32    27    28   ar
    33    28    29   ar
    34    29    30   ar
    35    29    32    1
    36    30    31   ar
    37    32    33    1
