@<TRIPOS>MOLECULE
28993_ChemDiv_N081-0781
 27 29 0 0 0
SMALL
GASTEIGER
Energy = 0

@<TRIPOS>ATOM
      1 C          -1.7750    1.7460    0.0000 C.2     1  LIG1        0.0508
      2 C          -2.2710    0.8790    0.0000 C.3     1  LIG1        0.0500
      3 C          -1.7750    0.0130    0.0000 C.3     1  LIG1        0.0927
      4 C          -0.7830    0.0130    0.0000 C.2     1  LIG1        0.2418
      5 O          -0.2880    0.8790    0.0000 O.2     1  LIG1       -0.2733
      6 N          -0.2880   -0.8750    0.0000 N.am    1  LIG1       -0.2051
      7 C           0.7290   -0.8750    0.0000 C.3     1  LIG1        0.1198
      8 C           1.2210   -1.7420    0.0000 C.3     1  LIG1        0.0499
      9 C           2.2380   -1.7420    0.0000 C.ar    1  LIG1       -0.0172
     10 C           2.7330   -0.8750    0.0000 C.ar    1  LIG1        0.0360
     11 C           3.7250   -0.8750    0.0000 C.ar    1  LIG1        0.1761
     12 C           4.2210   -1.7420    0.0000 C.ar    1  LIG1        0.1764
     13 O           5.2000   -1.5080    0.0000 O.3     1  LIG1       -0.4346
     14 C           5.2830   -0.5210    0.0000 C.3     1  LIG1        0.4294
     15 O           4.3420   -0.1210    0.0000 O.3     1  LIG1       -0.4346
     16 C           3.7250   -2.6080    0.0000 C.ar    1  LIG1        0.0399
     17 C           2.7330   -2.6080    0.0000 C.ar    1  LIG1       -0.0009
     18 C          -3.2790    0.8790    0.0000 C.3     1  LIG1        0.0324
     19 C          -3.7750    0.0130    0.0000 C.ar    1  LIG1       -0.0218
     20 C          -3.2960   -0.8540    0.0000 C.ar    1  LIG1       -0.0046
     21 C          -3.7750   -1.7210    0.0000 C.ar    1  LIG1       -0.0046
     22 C          -4.7920   -1.7420    0.0000 C.ar    1  LIG1       -0.0219
     23 C          -5.2750   -0.8630    0.0000 C.ar    1  LIG1       -0.0046
     24 C          -4.7790    0.0000    0.0000 C.ar    1  LIG1       -0.0046
     25 C          -5.2880   -2.5960    0.0000 C.3     1  LIG1        0.0310
     26 O          -2.2920    2.6130    0.0000 O.co2   1  LIG1       -0.5492
     27 O          -0.7830    1.7460    0.0000 O.co2   1  LIG1       -0.5492
@<TRIPOS>BOND
     1     1     2    1
     2     1    26   ar
     3     1    27   ar
     4     2     3    1
     5     2    18    1
     6     3     4    1
     7     4     5    2
     8     4     6   am
     9     6     7    1
    10     7     8    1
    11     8     9    1
    12     9    10   ar
    13     9    17   ar
    14    10    11   ar
    15    11    12   ar
    16    11    15    1
    17    12    13    1
    18    12    16   ar
    19    13    14    1
    20    14    15    1
    21    16    17   ar
    22    18    19    1
    23    19    20   ar
    24    19    24   ar
    25    20    21   ar
    26    21    22   ar
    27    22    23   ar
    28    22    25    1
    29    23    24   ar
