@<TRIPOS>MOLECULE
28997_ChemDiv_4296-0650
 32 35 0 0 0
SMALL
GASTEIGER
Energy = 0

@<TRIPOS>ATOM
      1 C          -0.1580   -2.2040    0.0000 C.ar    1  LIG1        0.1029
      2 C          -0.6960   -1.4000    0.0000 C.ar    1  LIG1        0.1015
      3 C          -1.6330   -1.6920    0.0000 C.ar    1  LIG1        0.0420
      4 C          -1.6330   -2.6790    0.0000 C.ar    1  LIG1        0.1137
      5 S          -0.6960   -2.9710    0.0000 S.2     1  LIG1       -0.0619
      6 N          -2.4830   -3.1670    0.0000 N.ar    1  LIG1       -0.2202
      7 C          -3.3330   -2.6790    0.0000 C.ar    1  LIG1        0.1798
      8 C          -3.3330   -1.6920    0.0000 C.ar    1  LIG1        0.1032
      9 C          -2.4830   -1.1880    0.0000 C.ar    1  LIG1        0.0158
     10 C          -2.4830   -0.2330    0.0000 C.ar    1  LIG1        0.0041
     11 C          -1.6330    0.2630    0.0000 C.ar    1  LIG1        0.0401
     12 C          -1.6330    1.2380    0.0000 C.ar    1  LIG1        0.1724
     13 C          -2.4830    1.7250    0.0000 C.ar    1  LIG1        0.1724
     14 C          -3.3330    1.2380    0.0000 C.ar    1  LIG1        0.0400
     15 C          -3.3330    0.2630    0.0000 C.ar    1  LIG1        0.0033
     16 O          -2.4830    2.7250    0.0000 O.3     1  LIG1       -0.4684
     17 C          -3.3330    3.2130    0.0000 C.3     1  LIG1        0.2526
     18 O          -0.7750    1.7250    0.0000 O.3     1  LIG1       -0.4684
     19 C           0.0750    1.2130    0.0000 C.3     1  LIG1        0.2526
     20 C          -4.2210   -1.1880    0.0000 C.1     1  LIG1        0.1033
     21 N          -4.2210   -0.2130    0.0000 N.1     1  LIG1       -0.1907
     22 N          -4.2210   -3.2080    0.0000 N.pl3   1  LIG1       -0.1065
     23 N          -0.3500   -0.4460    0.0000 N.pl3   1  LIG1       -0.1273
     24 C           0.8830   -2.3080    0.0000 C.2     1  LIG1        0.2764
     25 N           1.4580   -3.1250    0.0000 N.am    1  LIG1       -0.1750
     26 C           2.5670   -2.8290    0.0000 C.ar    1  LIG1        0.0737
     27 C           2.2880   -1.8830    0.0000 C.ar    1  LIG1        0.0166
     28 C           2.9920   -1.1670    0.0000 C.ar    1  LIG1        0.0013
     29 C           3.9630   -1.4250    0.0000 C.ar    1  LIG1        0.0001
     30 C           4.2170   -2.3750    0.0000 C.ar    1  LIG1        0.0013
     31 C           3.5210   -3.0750    0.0000 C.ar    1  LIG1        0.0166
     32 O           1.0670   -1.0830    0.0000 O.2     1  LIG1       -0.2674
@<TRIPOS>BOND
     1     1     2   ar
     2     1     5   ar
     3     1    24    1
     4     2     3   ar
     5     2    23    1
     6     3     4   ar
     7     3     9   ar
     8     4     5   ar
     9     4     6   ar
    10     6     7   ar
    11     7     8   ar
    12     7    22    1
    13     8     9   ar
    14     8    20    1
    15     9    10    1
    16    10    11   ar
    17    10    15   ar
    18    11    12   ar
    19    12    13   ar
    20    12    18    1
    21    13    14   ar
    22    13    16    1
    23    14    15   ar
    24    16    17    1
    25    18    19    1
    26    20    21    3
    27    24    25   am
    28    24    32    2
    29    25    26    1
    30    26    27   ar
    31    26    31   ar
    32    27    28   ar
    33    28    29   ar
    34    29    30   ar
    35    30    31   ar
