@<TRIPOS>MOLECULE
28994_ChemDiv_3258-0344
 26 29 0 0 0
SMALL
GASTEIGER
Energy = 0

@<TRIPOS>ATOM
      1 N          -0.0080   -1.4540    0.0000 N.ar    1  LIG1       -0.2521
      2 N          -0.1080   -2.4420    0.0000 N.ar    1  LIG1       -0.1734
      3 C          -1.0960   -2.6540    0.0000 C.ar    1  LIG1        0.0862
      4 C          -1.5960   -1.7830    0.0000 C.ar    1  LIG1        0.0629
      5 C          -0.9170   -1.0380    0.0000 C.ar    1  LIG1        0.0634
      6 C          -1.1250   -0.0580    0.0000 C.3     1  LIG1        0.0523
      7 BR         -2.5880   -1.6830    0.0000 Br      1  LIG1       -0.0465
      8 C          -1.4960   -3.5630    0.0000 C.3     1  LIG1        0.0545
      9 C           0.8630   -0.9540    0.0000 C.3     1  LIG1        0.1616
     10 C           0.8630    0.0460    0.0000 C.3     1  LIG1        0.1961
     11 C           0.0000    0.5460    0.0000 C.3     1  LIG1        0.1304
     12 N           0.0000    1.5500    0.0000 N.pl3   1  LIG1       -0.2834
     13 C          -0.8710    2.0500    0.0000 C.ar    1  LIG1        0.0577
     14 C          -0.8710    3.0500    0.0000 C.ar    1  LIG1        0.0431
     15 S           0.0000    3.5500    0.0000 S.3     1  LIG1       -0.0844
     16 C           0.8630    3.0500    0.0000 C.ar    1  LIG1        0.0431
     17 C           0.8580    2.0500    0.0000 C.ar    1  LIG1        0.0577
     18 C           1.7130    1.5500    0.0000 C.ar    1  LIG1        0.0153
     19 C           2.5880    2.0380    0.0000 C.ar    1  LIG1        0.0013
     20 C           2.5920    3.0420    0.0000 C.ar    1  LIG1        0.0006
     21 C           1.7250    3.5500    0.0000 C.ar    1  LIG1        0.0077
     22 C          -1.7380    3.5670    0.0000 C.ar    1  LIG1        0.0077
     23 C          -2.5960    3.0500    0.0000 C.ar    1  LIG1        0.0006
     24 C          -2.5960    2.0500    0.0000 C.ar    1  LIG1        0.0013
     25 C          -1.7380    1.5540    0.0000 C.ar    1  LIG1        0.0153
     26 O           1.7250    0.5460    0.0000 O.3     1  LIG1       -0.2191
@<TRIPOS>BOND
     1     1     2   ar
     2     1     5   ar
     3     1     9    1
     4     2     3   ar
     5     3     4   ar
     6     3     8    1
     7     4     5   ar
     8     4     7    1
     9     5     6    1
    10     9    10    1
    11    10    11    1
    12    10    26    1
    13    11    12    1
    14    12    13    1
    15    12    17    1
    16    13    14   ar
    17    13    25   ar
    18    14    15    1
    19    14    22   ar
    20    15    16    1
    21    16    17   ar
    22    16    21   ar
    23    17    18   ar
    24    18    19   ar
    25    19    20   ar
    26    20    21   ar
    27    22    23   ar
    28    23    24   ar
    29    24    25   ar
