@<TRIPOS>MOLECULE
29000_ChemDiv_3270-0032
 24 27 0 0 0
SMALL
GASTEIGER
Energy = 0

@<TRIPOS>ATOM
      1 N          -0.0080   -0.7210    0.0000 N.ar    1  LIG1       -0.1954
      2 C          -0.0080    0.2580    0.0000 C.ar    1  LIG1        0.1668
      3 N           0.8380    0.7380    0.0000 N.ar    1  LIG1       -0.2263
      4 C           1.6830    0.2580    0.0000 C.ar    1  LIG1        0.0858
      5 C           1.6830   -0.7210    0.0000 C.ar    1  LIG1        0.0568
      6 C           0.8380   -1.2130    0.0000 C.ar    1  LIG1        0.1742
      7 N           0.8380   -2.1880    0.0000 N.pl3   1  LIG1       -0.1070
      8 C           2.5290    0.7380    0.0000 C.ar    1  LIG1        0.0178
      9 C           3.3710    0.2580    0.0000 C.ar    1  LIG1        0.0012
     10 C           4.2170    0.7380    0.0000 C.ar    1  LIG1       -0.0042
     11 C           4.2170    1.7170    0.0000 C.ar    1  LIG1       -0.0218
     12 C           3.3710    2.1920    0.0000 C.ar    1  LIG1       -0.0042
     13 C           2.5290    1.7170    0.0000 C.ar    1  LIG1        0.0012
     14 C           5.0580    2.1920    0.0000 C.3     1  LIG1        0.0310
     15 C          -0.8540    0.7540    0.0000 C.ar    1  LIG1        0.0597
     16 C          -1.7000    0.2580    0.0000 C.ar    1  LIG1        0.1044
     17 N          -1.7000   -0.7210    0.0000 N.ar    1  LIG1       -0.1625
     18 C          -2.5460    0.7380    0.0000 C.ar    1  LIG1        0.0194
     19 C          -3.3880    0.2420    0.0000 C.ar    1  LIG1        0.0012
     20 C          -4.2170    0.7380    0.0000 C.ar    1  LIG1       -0.0042
     21 C          -4.2170    1.7170    0.0000 C.ar    1  LIG1       -0.0218
     22 C          -3.3880    2.1880    0.0000 C.ar    1  LIG1       -0.0042
     23 C          -2.5460    1.7170    0.0000 C.ar    1  LIG1        0.0012
     24 C          -5.0630    2.1880    0.0000 C.3     1  LIG1        0.0310
@<TRIPOS>BOND
     1     1     2   ar
     2     1     6   ar
     3     1    17   ar
     4     2     3   ar
     5     2    15   ar
     6     3     4   ar
     7     4     5   ar
     8     4     8    1
     9     5     6   ar
    10     6     7    1
    11     8     9   ar
    12     8    13   ar
    13     9    10   ar
    14    10    11   ar
    15    11    12   ar
    16    11    14    1
    17    12    13   ar
    18    15    16   ar
    19    16    17   ar
    20    16    18    1
    21    18    19   ar
    22    18    23   ar
    23    19    20   ar
    24    20    21   ar
    25    21    22   ar
    26    21    24    1
    27    22    23   ar
