@<TRIPOS>MOLECULE
29003_ChemDiv_5350-1051
 30 34 0 0 0
SMALL
GASTEIGER
Energy = 0

@<TRIPOS>ATOM
      1 C           0.4880    1.8420    0.0000 C.ar    1  LIG1        0.1029
      2 S           0.1790    0.8880    0.0000 S.2     1  LIG1       -0.0620
      3 C          -0.8080    0.9080    0.0000 C.ar    1  LIG1        0.1121
      4 C          -1.1210    1.8580    0.0000 C.ar    1  LIG1        0.0412
      5 C          -0.2920    2.4330    0.0000 C.ar    1  LIG1        0.1015
      6 N          -0.4210    3.4540    0.0000 N.pl3   1  LIG1       -0.1273
      7 C          -2.1080    2.0710    0.0000 C.ar    1  LIG1        0.0049
      8 C          -2.7790    1.3290    0.0000 C.ar    1  LIG1        0.0192
      9 C          -2.4710    0.3920    0.0000 C.ar    1  LIG1        0.0819
     10 N          -1.4960    0.1540    0.0000 N.ar    1  LIG1       -0.2388
     11 C          -3.1420   -0.3670    0.0000 C.ar    1  LIG1        0.0209
     12 C          -2.8330   -1.3210    0.0000 C.ar    1  LIG1        0.0417
     13 C          -3.5290   -2.0500    0.0000 C.ar    1  LIG1        0.1765
     14 C          -4.4790   -1.8420    0.0000 C.ar    1  LIG1        0.1764
     15 O          -4.9830   -2.7250    0.0000 O.3     1  LIG1       -0.4346
     16 C          -4.3460   -3.4500    0.0000 C.3     1  LIG1        0.4294
     17 O          -3.4130   -3.0500    0.0000 O.3     1  LIG1       -0.4346
     18 C          -4.7880   -0.9040    0.0000 C.ar    1  LIG1        0.0402
     19 C          -4.1170   -0.1540    0.0000 C.ar    1  LIG1        0.0048
     20 C           1.4750    1.8420    0.0000 C.2     1  LIG1        0.2764
     21 N           1.9670    0.9750    0.0000 N.am    1  LIG1       -0.1753
     22 C           2.9580    0.9580    0.0000 C.ar    1  LIG1        0.0694
     23 C           3.4540    1.8250    0.0000 C.ar    1  LIG1       -0.0065
     24 C           4.4670    1.8250    0.0000 C.ar    1  LIG1       -0.0033
     25 C           4.9580    0.9580    0.0000 C.ar    1  LIG1       -0.0045
     26 C           4.4670    0.0920    0.0000 C.ar    1  LIG1       -0.0206
     27 C           3.4670    0.0920    0.0000 C.ar    1  LIG1        0.0120
     28 C           4.9790   -0.7710    0.0000 C.3     1  LIG1        0.0311
     29 C           2.9460    2.6920    0.0000 C.3     1  LIG1        0.0324
     30 O           1.9750    2.6920    0.0000 O.2     1  LIG1       -0.2674
@<TRIPOS>BOND
     1     1     2   ar
     2     1     5   ar
     3     1    20    1
     4     2     3   ar
     5     3     4   ar
     6     3    10   ar
     7     4     5   ar
     8     4     7   ar
     9     5     6    1
    10     7     8   ar
    11     8     9   ar
    12     9    10   ar
    13     9    11    1
    14    11    12   ar
    15    11    19   ar
    16    12    13   ar
    17    13    14   ar
    18    13    17    1
    19    14    15    1
    20    14    18   ar
    21    15    16    1
    22    16    17    1
    23    18    19   ar
    24    20    21   am
    25    20    30    2
    26    21    22    1
    27    22    23   ar
    28    22    27   ar
    29    23    24   ar
    30    23    29    1
    31    24    25   ar
    32    25    26   ar
    33    26    27   ar
    34    26    28    1
