@<TRIPOS>MOLECULE
29001_ChemDiv_5350-0032
 29 32 0 0 0
SMALL
GASTEIGER
Energy = 0

@<TRIPOS>ATOM
      1 C           0.3630    1.8000    0.0000 C.ar    1  LIG1        0.1029
      2 S           0.0630    0.8500    0.0000 S.2     1  LIG1       -0.0619
      3 C          -0.9170    0.8710    0.0000 C.ar    1  LIG1        0.1137
      4 C          -1.2250    1.8170    0.0000 C.ar    1  LIG1        0.0420
      5 C          -0.4040    2.3750    0.0000 C.ar    1  LIG1        0.1015
      6 N          -0.3580    3.3960    0.0000 N.pl3   1  LIG1       -0.1273
      7 C          -2.1920    2.0290    0.0000 C.ar    1  LIG1        0.0166
      8 C          -2.8830    1.2960    0.0000 C.ar    1  LIG1        0.1032
      9 C          -2.5540    0.3540    0.0000 C.ar    1  LIG1        0.1798
     10 N          -1.5880    0.1170    0.0000 N.ar    1  LIG1       -0.2202
     11 N          -3.2210   -0.4170    0.0000 N.pl3   1  LIG1       -0.1065
     12 C          -3.8750    1.5210    0.0000 C.1     1  LIG1        0.1033
     13 N          -4.8710    1.7080    0.0000 N.1     1  LIG1       -0.1907
     14 C           1.3540    1.8000    0.0000 C.2     1  LIG1        0.2765
     15 N           1.8750    0.9460    0.0000 N.am    1  LIG1       -0.1719
     16 C           2.8670    0.9630    0.0000 C.ar    1  LIG1        0.1081
     17 C           3.3790    0.0880    0.0000 C.ar    1  LIG1        0.1605
     18 O           2.8580   -0.7830    0.0000 O.3     1  LIG1       -0.4522
     19 C           3.3500   -1.6540    0.0000 C.ar    1  LIG1        0.1454
     20 C           2.8580   -2.5170    0.0000 C.ar    1  LIG1        0.0375
     21 C           3.3790   -3.3920    0.0000 C.ar    1  LIG1        0.0031
     22 C           4.3580   -3.3920    0.0000 C.ar    1  LIG1        0.0002
     23 C           4.8670   -2.5170    0.0000 C.ar    1  LIG1        0.0031
     24 C           4.3750   -1.6540    0.0000 C.ar    1  LIG1        0.0375
     25 C           4.3750    0.0880    0.0000 C.ar    1  LIG1        0.0388
     26 C           4.8670    0.9630    0.0000 C.ar    1  LIG1        0.0032
     27 C           4.3750    1.8170    0.0000 C.ar    1  LIG1        0.0015
     28 C           3.3790    1.8170    0.0000 C.ar    1  LIG1        0.0197
     29 O           1.8630    2.6540    0.0000 O.2     1  LIG1       -0.2674
@<TRIPOS>BOND
     1     1     2   ar
     2     1     5   ar
     3     1    14    1
     4     2     3   ar
     5     3     4   ar
     6     3    10   ar
     7     4     5   ar
     8     4     7   ar
     9     5     6    1
    10     7     8   ar
    11     8     9   ar
    12     8    12    1
    13     9    10   ar
    14     9    11    1
    15    12    13    3
    16    14    15   am
    17    14    29    2
    18    15    16    1
    19    16    17   ar
    20    16    28   ar
    21    17    18    1
    22    17    25   ar
    23    18    19    1
    24    19    20   ar
    25    19    24   ar
    26    20    21   ar
    27    21    22   ar
    28    22    23   ar
    29    23    24   ar
    30    25    26   ar
    31    26    27   ar
    32    27    28   ar
