@<TRIPOS>MOLECULE
29007_ChemDiv_8009-4759
 28 31 0 0 0
SMALL
GASTEIGER
Energy = 0

@<TRIPOS>ATOM
      1 C           0.3330    0.3080    0.0000 C.ar    1  LIG1        0.0865
      2 C          -0.5500    0.7540    0.0000 C.ar    1  LIG1        0.1001
      3 C          -1.2170   -0.0170    0.0000 C.ar    1  LIG1        0.0419
      4 C          -0.7000   -0.8790    0.0000 C.ar    1  LIG1        0.1137
      5 S           0.2710   -0.6500    0.0000 S.2     1  LIG1       -0.0633
      6 N          -1.1880   -1.6920    0.0000 N.ar    1  LIG1       -0.2202
      7 C          -2.2040   -1.7630    0.0000 C.ar    1  LIG1        0.1798
      8 C          -2.7420   -0.8500    0.0000 C.ar    1  LIG1        0.1032
      9 C          -2.2040   -0.0040    0.0000 C.ar    1  LIG1        0.0157
     10 C          -2.6710    0.8630    0.0000 C.ar    1  LIG1        0.0008
     11 C          -3.6830    0.9000    0.0000 C.ar    1  LIG1        0.0000
     12 C          -4.1540    1.7830    0.0000 C.ar    1  LIG1        0.0000
     13 C          -3.6170    2.6290    0.0000 C.ar    1  LIG1        0.0000
     14 C          -2.6250    2.6040    0.0000 C.ar    1  LIG1        0.0000
     15 C          -2.1460    1.7040    0.0000 C.ar    1  LIG1        0.0000
     16 C          -3.7330   -0.7920    0.0000 C.1     1  LIG1        0.1033
     17 N          -4.7250   -0.7380    0.0000 N.1     1  LIG1       -0.1907
     18 N          -2.6380   -2.6250    0.0000 N.pl3   1  LIG1       -0.1065
     19 N          -0.7790    1.7710    0.0000 N.pl3   1  LIG1       -0.1274
     20 C           1.2170    0.8210    0.0000 C.2     1  LIG1        0.2028
     21 C           2.0830    0.3330    0.0000 C.ar    1  LIG1        0.0396
     22 C           2.9710    0.8630    0.0000 C.ar    1  LIG1        0.0041
     23 C           3.8420    0.3750    0.0000 C.ar    1  LIG1        0.0115
     24 C           3.8500   -0.6290    0.0000 C.ar    1  LIG1        0.0577
     25 C           2.9830   -1.1290    0.0000 C.ar    1  LIG1        0.0115
     26 C           2.1040   -0.6500    0.0000 C.ar    1  LIG1        0.0041
     27 CL          4.7210   -1.1170    0.0000 Cl      1  LIG1       -0.0822
     28 O           1.1920    1.8040    0.0000 O.2     1  LIG1       -0.2860
@<TRIPOS>BOND
     1     1     2   ar
     2     1     5   ar
     3     1    20    1
     4     2     3   ar
     5     2    19    1
     6     3     4   ar
     7     3     9   ar
     8     4     5   ar
     9     4     6   ar
    10     6     7   ar
    11     7     8   ar
    12     7    18    1
    13     8     9   ar
    14     8    16    1
    15     9    10    1
    16    10    11   ar
    17    10    15   ar
    18    11    12   ar
    19    12    13   ar
    20    13    14   ar
    21    14    15   ar
    22    16    17    3
    23    20    21    1
    24    20    28    2
    25    21    22   ar
    26    21    26   ar
    27    22    23   ar
    28    23    24   ar
    29    24    25   ar
    30    24    27    1
    31    25    26   ar
