@<TRIPOS>MOLECULE
29005_ChemDiv_8004-9537
 25 28 0 0 0
SMALL
GASTEIGER
Energy = 0

@<TRIPOS>ATOM
      1 C           2.0130   -1.1880    0.0000 C.ar    1  LIG1        0.0616
      2 C           2.0130   -0.2500    0.0000 C.ar    1  LIG1        0.0981
      3 C           0.3630   -0.2500    0.0000 C.ar    1  LIG1        0.0411
      4 C           0.3630   -1.1880    0.0000 C.ar    1  LIG1        0.1120
      5 S           1.1960   -1.6500    0.0000 S.2     1  LIG1       -0.0655
      6 N          -0.4420   -1.6500    0.0000 N.ar    1  LIG1       -0.2388
      7 C          -1.2540   -1.1880    0.0000 C.ar    1  LIG1        0.0818
      8 C          -1.2540   -0.2500    0.0000 C.ar    1  LIG1        0.0192
      9 C          -0.4420    0.2040    0.0000 C.ar    1  LIG1        0.0048
     10 C          -0.4290    1.1710    0.0000 C.ar    1  LIG1        0.0002
     11 C          -1.3210    1.6540    0.0000 C.ar    1  LIG1        0.0000
     12 C          -1.3210    2.6710    0.0000 C.ar    1  LIG1        0.0000
     13 C          -0.4290    3.1920    0.0000 C.ar    1  LIG1        0.0000
     14 C           0.4080    2.6710    0.0000 C.ar    1  LIG1        0.0000
     15 C           0.4080    1.6540    0.0000 C.ar    1  LIG1        0.0000
     16 C          -2.0330   -1.6790    0.0000 C.ar    1  LIG1        0.0177
     17 C          -2.8880   -1.1880    0.0000 C.ar    1  LIG1        0.0015
     18 C          -3.7670   -1.6790    0.0000 C.ar    1  LIG1        0.0000
     19 C          -3.7670   -2.6880    0.0000 C.ar    1  LIG1        0.0000
     20 C          -2.8880   -3.1880    0.0000 C.ar    1  LIG1        0.0000
     21 C          -2.0330   -2.6880    0.0000 C.ar    1  LIG1        0.0015
     22 N           2.8670    0.2630    0.0000 N.pl3   1  LIG1       -0.1274
     23 C           2.8750   -1.6830    0.0000 C.2     1  LIG1        0.0802
     24 O           3.7630   -1.1880    0.0000 O.co2   1  LIG1       -0.5440
     25 O           2.8670   -2.6670    0.0000 O.co2   1  LIG1       -0.5440
@<TRIPOS>BOND
     1     1     2   ar
     2     1     5   ar
     3     1    23    1
     4     2     3   ar
     5     2    22    1
     6     3     4   ar
     7     3     9   ar
     8     4     5   ar
     9     4     6   ar
    10     6     7   ar
    11     7     8   ar
    12     7    16    1
    13     8     9   ar
    14     9    10    1
    15    10    11   ar
    16    10    15   ar
    17    11    12   ar
    18    12    13   ar
    19    13    14   ar
    20    14    15   ar
    21    16    17   ar
    22    16    21   ar
    23    17    18   ar
    24    18    19   ar
    25    19    20   ar
    26    20    21   ar
    27    23    24   ar
    28    23    25   ar
