@<TRIPOS>MOLECULE
29017_ChemDiv_3161-0481
 31 36 0 0 0
SMALL
GASTEIGER
Energy = 0

@<TRIPOS>ATOM
      1 C          -0.7540    1.6750    0.0000 C.ar    1  LIG1        0.0727
      2 C          -0.4420    0.7170    0.0000 C.ar    1  LIG1        0.1008
      3 N           0.5420    0.5170    0.0000 N.pl3   1  LIG1       -0.2067
      4 C           1.2130    1.2670    0.0000 C.3     1  LIG1        0.2117
      5 C           2.1880    1.0500    0.0000 C.ar    1  LIG1        0.0364
      6 C           2.6040    0.1380    0.0000 C.ar    1  LIG1        0.0752
      7 N           3.5880    0.2500    0.0000 N.ar    1  LIG1       -0.3220
      8 C           3.8040    1.2250    0.0000 C.ar    1  LIG1        0.0600
      9 C           2.9380    1.7210    0.0000 C.ar    1  LIG1        0.0165
     10 C           2.9380    2.7040    0.0000 C.ar    1  LIG1        0.0013
     11 C           3.8040    3.2130    0.0000 C.ar    1  LIG1        0.0001
     12 C           4.6750    2.7040    0.0000 C.ar    1  LIG1        0.0015
     13 C           4.6750    1.7210    0.0000 C.ar    1  LIG1        0.0172
     14 C           4.2580   -0.5000    0.0000 C.3     1  LIG1        0.1328
     15 C           3.9670   -1.4670    0.0000 C.ar    1  LIG1        0.0004
     16 C           2.9710   -1.6670    0.0000 C.ar    1  LIG1       -0.0024
     17 C           2.6710   -2.6250    0.0000 C.ar    1  LIG1       -0.0003
     18 C           3.3380   -3.3580    0.0000 C.ar    1  LIG1       -0.0000
     19 C           4.3080   -3.1580    0.0000 C.ar    1  LIG1       -0.0003
     20 C           4.6380   -2.2000    0.0000 C.ar    1  LIG1       -0.0024
     21 N           0.9000    2.2210    0.0000 N.am    1  LIG1       -0.1770
     22 C          -0.0880    2.4080    0.0000 C.2     1  LIG1        0.2680
     23 O          -0.3920    3.3630    0.0000 O.2     1  LIG1       -0.2683
     24 S          -1.2420    0.1380    0.0000 S.2     1  LIG1       -0.0696
     25 C          -2.0630    0.7170    0.0000 C.ar    1  LIG1        0.0615
     26 C          -1.7540    1.6750    0.0000 C.ar    1  LIG1       -0.0024
     27 C          -2.4250    2.4080    0.0000 C.3     1  LIG1        0.0896
     28 C          -3.4000    2.2210    0.0000 C.3     1  LIG1        0.1441
     29 N          -3.7170    1.2670    0.0000 N.4     1  LIG1        0.3861
     30 C          -3.0420    0.5170    0.0000 C.3     1  LIG1        0.1727
     31 C          -4.6790    1.0500    0.0000 C.3     1  LIG1        0.2028
@<TRIPOS>BOND
     1     1     2   ar
     2     1    22    1
     3     1    26   ar
     4     2     3    1
     5     2    24   ar
     6     3     4    1
     7     4     5    1
     8     4    21    1
     9     5     6   ar
    10     5     9   ar
    11     6     7   ar
    12     7     8   ar
    13     7    14    1
    14     8     9   ar
    15     8    13   ar
    16     9    10   ar
    17    10    11   ar
    18    11    12   ar
    19    12    13   ar
    20    14    15    1
    21    15    16   ar
    22    15    20   ar
    23    16    17   ar
    24    17    18   ar
    25    18    19   ar
    26    19    20   ar
    27    21    22   am
    28    22    23    2
    29    24    25   ar
    30    25    26   ar
    31    25    30    1
    32    26    27    1
    33    27    28    1
    34    28    29    1
    35    29    30    1
    36    29    31    1
