@<TRIPOS>MOLECULE
29026_ChemDiv_K906-0635
 29 32 0 0 0
SMALL
GASTEIGER
Energy = 0

@<TRIPOS>ATOM
      1 N          -0.2500    3.2540    0.0000 N.am    1  LIG1       -0.2206
      2 C          -1.1580    2.8460    0.0000 C.2     1  LIG1        0.2321
      3 C          -1.8420    3.6000    0.0000 C.3     1  LIG1        0.0900
      4 C          -1.3380    4.4710    0.0000 C.3     1  LIG1        0.0900
      5 C          -0.3460    4.2500    0.0000 C.2     1  LIG1        0.2321
      6 O           0.4080    4.9250    0.0000 O.2     1  LIG1       -0.2744
      7 C          -1.8420    5.3460    0.0000 C.3     1  LIG1        0.0308
      8 C          -2.8500    5.3460    0.0000 C.2     1  LIG1       -0.0305
      9 C          -3.3580    4.4710    0.0000 C.2     1  LIG1       -0.0305
     10 C          -2.8500    3.6000    0.0000 C.3     1  LIG1        0.0308
     11 C          -2.8380    4.4000    0.0000 C.3     1  LIG1        0.0052
     12 C          -1.8500    4.4000    0.0000 C.3     1  LIG1        0.0052
     13 O          -1.3420    1.8500    0.0000 O.2     1  LIG1       -0.2744
     14 C           0.6210    2.7420    0.0000 C.3     1  LIG1        0.1873
     15 C           0.6040    1.7210    0.0000 C.2     1  LIG1        0.2621
     16 O          -0.2710    1.2330    0.0000 O.2     1  LIG1       -0.2715
     17 N           1.4710    1.2170    0.0000 N.am    1  LIG1       -0.2036
     18 C           1.4710    0.2040    0.0000 C.3     1  LIG1        0.1199
     19 C           2.3460   -0.2920    0.0000 C.3     1  LIG1        0.0498
     20 C           2.3460   -1.3130    0.0000 C.ar    1  LIG1       -0.0203
     21 C           1.4630   -1.8170    0.0000 C.ar    1  LIG1       -0.0028
     22 C           1.4630   -2.8250    0.0000 C.ar    1  LIG1        0.0197
     23 C           2.3460   -3.3250    0.0000 C.ar    1  LIG1        0.1250
     24 S           2.3460   -4.3380    0.0000 S.O2    1  LIG1        0.0935
     25 O           3.3540   -4.3290    0.0000 O.2     1  LIG1       -0.1503
     26 O           1.3420   -4.3500    0.0000 O.2     1  LIG1       -0.1503
     27 N           2.3580   -5.3460    0.0000 N.3     1  LIG1        0.0392
     28 C           3.2040   -2.8250    0.0000 C.ar    1  LIG1        0.0197
     29 C           3.2040   -1.8170    0.0000 C.ar    1  LIG1       -0.0028
@<TRIPOS>BOND
     1     1     2   am
     2     1     5   am
     3     1    14    1
     4     2     3    1
     5     2    13    2
     6     3     4    1
     7     3    10    1
     8     4     5    1
     9     4     7    1
    10     5     6    2
    11     7     8    1
    12     7    12    1
    13     8     9    2
    14     9    10    1
    15    10    11    1
    16    11    12    1
    17    14    15    1
    18    15    16    2
    19    15    17   am
    20    17    18    1
    21    18    19    1
    22    19    20    1
    23    20    21   ar
    24    20    29   ar
    25    21    22   ar
    26    22    23   ar
    27    23    24    1
    28    23    28   ar
    29    24    25    2
    30    24    26    2
    31    24    27    1
    32    28    29   ar
