@<TRIPOS>MOLECULE
29029_ChemDiv_3076-0354
 22 24 0 0 0
SMALL
GASTEIGER
Energy = 0

@<TRIPOS>ATOM
      1 N          -0.6130   -0.6920    0.0000 N.am    1  LIG1       -0.2031
      2 C           0.3710   -0.8460    0.0000 C.2     1  LIG1        0.2419
      3 C           0.8170    0.0580    0.0000 C.3     1  LIG1        0.1581
      4 C           0.1000    0.7460    0.0000 C.3     1  LIG1        0.2302
      5 C          -0.7880    0.2790    0.0000 C.2     1  LIG1        0.2927
      6 O          -1.6830    0.7250    0.0000 O.2     1  LIG1       -0.2677
      7 N           0.2330    1.7330    0.0000 N.4     1  LIG1        0.4461
      8 C           1.1670    2.1290    0.0000 C.3     1  LIG1        0.1439
      9 C           1.9000    1.3920    0.0000 C.3     1  LIG1        0.0625
     10 C           2.7710    1.4000    0.0000 C.3     1  LIG1        0.0061
     11 C           3.3710    2.2290    0.0000 C.3     1  LIG1        0.0002
     12 C           3.0380    3.2290    0.0000 C.3     1  LIG1        0.0002
     13 C           2.0170    3.5960    0.0000 C.3     1  LIG1        0.0061
     14 C           1.1670    3.0000    0.0000 C.3     1  LIG1        0.0625
     15 O           0.8380   -1.7420    0.0000 O.2     1  LIG1       -0.2739
     16 C          -1.3040   -1.4290    0.0000 C.ar    1  LIG1        0.0608
     17 C          -1.0330   -2.3920    0.0000 C.ar    1  LIG1        0.0150
     18 C          -1.7210   -3.0960    0.0000 C.ar    1  LIG1       -0.0030
     19 C          -2.7000   -2.8750    0.0000 C.ar    1  LIG1       -0.0218
     20 C          -2.9830   -1.8960    0.0000 C.ar    1  LIG1       -0.0030
     21 C          -2.2830   -1.1880    0.0000 C.ar    1  LIG1        0.0150
     22 C          -3.3750   -3.5920    0.0000 C.3     1  LIG1        0.0310
@<TRIPOS>BOND
     1     1     2   am
     2     1     5   am
     3     1    16    1
     4     2     3    1
     5     2    15    2
     6     3     4    1
     7     4     5    1
     8     4     7    1
     9     5     6    2
    10     7     8    1
    11     8     9    1
    12     8    14    1
    13     9    10    1
    14    10    11    1
    15    11    12    1
    16    12    13    1
    17    13    14    1
    18    16    17   ar
    19    16    21   ar
    20    17    18   ar
    21    18    19   ar
    22    19    20   ar
    23    19    22    1
    24    20    21   ar
