@<TRIPOS>MOLECULE
29021_ChemDiv_3171-0181
 18 20 0 0 0
SMALL
GASTEIGER
Energy = 0

@<TRIPOS>ATOM
      1 C           1.4830    0.5750    0.0000 C.ar    1  LIG1        0.1238
      2 C           1.1040   -0.3630    0.0000 C.ar    1  LIG1        0.0897
      3 N           0.1000   -0.5000    0.0000 N.am    1  LIG1       -0.1673
      4 C          -0.5080   -1.1790    0.0000 C.2     1  LIG1        0.3655
      5 C          -1.4710   -0.8630    0.0000 C.ar    1  LIG1        0.5075
      6 N          -2.2880   -1.4500    0.0000 N.ar    1  LIG1        0.1976
      7 C          -3.1000   -0.8630    0.0000 C.ar    1  LIG1        0.7665
      8 N          -2.8000    0.0920    0.0000 N.ar    1  LIG1        0.3158
      9 N          -1.7790    0.0920    0.0000 N.ar    1  LIG1        0.1649
     10 O          -0.3080   -2.1670    0.0000 O.2     1  LIG1       -0.2591
     11 C           1.7290   -1.1420    0.0000 C.ar    1  LIG1       -0.0049
     12 C           2.7250   -0.9960    0.0000 C.ar    1  LIG1       -0.0013
     13 C           3.0960   -0.0630    0.0000 C.ar    1  LIG1        0.0211
     14 C           2.4670    0.7250    0.0000 C.ar    1  LIG1        0.1101
     15 N           2.6290    1.6960    0.0000 N.ar    1  LIG1       -0.1901
     16 S           1.7420    2.1710    0.0000 S.2     1  LIG1        0.1166
     17 N           1.0330    1.4670    0.0000 N.ar    1  LIG1       -0.1888
     18 C           1.3670   -2.0830    0.0000 C.3     1  LIG1        0.0324
@<TRIPOS>BOND
     1     1     2   ar
     2     1    14   ar
     3     1    17   ar
     4     2     3    1
     5     2    11   ar
     6     3     4   am
     7     4     5    1
     8     4    10    2
     9     5     6   ar
    10     5     9   ar
    11     6     7   ar
    12     7     8   ar
    13     8     9   ar
    14    11    12   ar
    15    11    18    1
    16    12    13   ar
    17    13    14   ar
    18    14    15   ar
    19    15    16   ar
    20    16    17   ar
