@<TRIPOS>MOLECULE
29023_ChemDiv_3553-2130
 26 28 0 0 0
SMALL
GASTEIGER
Energy = 0

@<TRIPOS>ATOM
      1 C           2.6580    0.7540    0.0000 C.ar    1  LIG1        0.1241
      2 C           1.7920    1.2630    0.0000 C.ar    1  LIG1        0.0934
      3 N           0.9250    0.7540    0.0000 N.am    1  LIG1       -0.1738
      4 C           0.0630    1.2630    0.0000 C.2     1  LIG1        0.2692
      5 C          -0.8040    0.7540    0.0000 C.ar    1  LIG1        0.0614
      6 C          -1.6710    1.2630    0.0000 C.ar    1  LIG1        0.0417
      7 C          -2.5330    0.7540    0.0000 C.ar    1  LIG1        0.1417
      8 C          -2.5330   -0.2460    0.0000 C.ar    1  LIG1        0.0737
      9 C          -1.6710   -0.7330    0.0000 C.ar    1  LIG1        0.1417
     10 C          -0.8040   -0.2460    0.0000 C.ar    1  LIG1        0.0417
     11 O          -1.6710   -1.7330    0.0000 O.3     1  LIG1       -0.4754
     12 C          -2.5330   -2.2420    0.0000 C.3     1  LIG1        0.2054
     13 C          -2.5330   -3.2420    0.0000 C.3     1  LIG1        0.0473
     14 C          -3.4000   -3.7290    0.0000 C.3     1  LIG1        0.0040
     15 O          -3.4000    1.2630    0.0000 O.3     1  LIG1       -0.4754
     16 C          -3.4000    2.2630    0.0000 C.3     1  LIG1        0.2054
     17 C          -4.2670    2.7500    0.0000 C.3     1  LIG1        0.0473
     18 C          -4.2670    3.7330    0.0000 C.3     1  LIG1        0.0040
     19 O           0.0630    2.2630    0.0000 O.2     1  LIG1       -0.2680
     20 C           1.7920    2.2630    0.0000 C.ar    1  LIG1        0.0183
     21 C           2.6580    2.7790    0.0000 C.ar    1  LIG1        0.0030
     22 C           3.5210    2.2630    0.0000 C.ar    1  LIG1        0.0214
     23 C           3.5210    1.2630    0.0000 C.ar    1  LIG1        0.1101
     24 N           4.2630    0.6000    0.0000 N.ar    1  LIG1       -0.1901
     25 S           3.8540   -0.3290    0.0000 S.2     1  LIG1        0.1166
     26 N           2.8580   -0.2170    0.0000 N.ar    1  LIG1       -0.1888
@<TRIPOS>BOND
     1     1     2   ar
     2     1    23   ar
     3     1    26   ar
     4     2     3    1
     5     2    20   ar
     6     3     4   am
     7     4     5    1
     8     4    19    2
     9     5     6   ar
    10     5    10   ar
    11     6     7   ar
    12     7     8   ar
    13     7    15    1
    14     8     9   ar
    15     9    10   ar
    16     9    11    1
    17    11    12    1
    18    12    13    1
    19    13    14    1
    20    15    16    1
    21    16    17    1
    22    17    18    1
    23    20    21   ar
    24    21    22   ar
    25    22    23   ar
    26    23    24   ar
    27    24    25   ar
    28    25    26   ar
