@<TRIPOS>MOLECULE
29027_ChemDiv_8010-1192
 27 29 0 0 0
SMALL
GASTEIGER
Energy = 0

@<TRIPOS>ATOM
      1 C          -0.5750   -1.4000    0.0000 C.ar    1  LIG1        0.0421
      2 C           0.3250   -1.1080    0.0000 C.ar    1  LIG1        0.1033
      3 C           0.9170   -1.8500    0.0000 C.ar    1  LIG1        0.1232
      4 S           0.3500   -2.6630    0.0000 S.2     1  LIG1       -0.0601
      5 C          -0.5750   -2.3790    0.0000 C.ar    1  LIG1        0.1138
      6 N          -1.4210   -2.8710    0.0000 N.ar    1  LIG1       -0.2202
      7 C          -2.2630   -2.3790    0.0000 C.ar    1  LIG1        0.1798
      8 C          -2.2630   -1.4000    0.0000 C.ar    1  LIG1        0.1032
      9 C          -1.4210   -0.9080    0.0000 C.ar    1  LIG1        0.0158
     10 C          -1.4210    0.0500    0.0000 C.ar    1  LIG1        0.0041
     11 C          -2.2500    0.5330    0.0000 C.ar    1  LIG1        0.0401
     12 C          -2.2630    1.4960    0.0000 C.ar    1  LIG1        0.1724
     13 C          -1.4210    1.9920    0.0000 C.ar    1  LIG1        0.1724
     14 C          -0.5790    1.5170    0.0000 C.ar    1  LIG1        0.0400
     15 C          -0.5790    0.5420    0.0000 C.ar    1  LIG1        0.0033
     16 O          -1.4380    2.8380    0.0000 O.3     1  LIG1       -0.4684
     17 C          -0.2500    2.9790    0.0000 C.3     1  LIG1        0.2526
     18 O          -3.0710    2.0960    0.0000 O.3     1  LIG1       -0.4684
     19 C          -3.9580    1.2580    0.0000 C.3     1  LIG1        0.2526
     20 C          -3.1000   -0.9170    0.0000 C.1     1  LIG1        0.1033
     21 N          -3.9250   -0.4500    0.0000 N.1     1  LIG1       -0.1907
     22 N          -3.2130   -2.9750    0.0000 N.pl3   1  LIG1       -0.1065
     23 C           1.9880   -2.0040    0.0000 C.2     1  LIG1        0.3488
     24 O           2.2420   -2.7460    0.0000 O.2     1  LIG1       -0.2443
     25 O           2.8750   -1.1710    0.0000 O.3     1  LIG1       -0.4410
     26 C           3.9540   -1.4080    0.0000 C.3     1  LIG1        0.2560
     27 N           0.9880   -0.3330    0.0000 N.pl3   1  LIG1       -0.1272
@<TRIPOS>BOND
     1     1     2   ar
     2     1     5   ar
     3     1     9   ar
     4     2     3   ar
     5     2    27    1
     6     3     4   ar
     7     3    23    1
     8     4     5   ar
     9     5     6   ar
    10     6     7   ar
    11     7     8   ar
    12     7    22    1
    13     8     9   ar
    14     8    20    1
    15     9    10    1
    16    10    11   ar
    17    10    15   ar
    18    11    12   ar
    19    12    13   ar
    20    12    18    1
    21    13    14   ar
    22    13    16    1
    23    14    15   ar
    24    16    17    1
    25    18    19    1
    26    20    21    3
    27    23    24    2
    28    23    25    1
    29    25    26    1
