@<TRIPOS>MOLECULE
29022_ChemDiv_3204-0074
 24 27 0 0 0
SMALL
GASTEIGER
Energy = 0

@<TRIPOS>ATOM
      1 C           0.8460   -1.4540    0.0000 C.ar    1  LIG1        0.1105
      2 C           0.8460   -2.4250    0.0000 C.ar    1  LIG1        0.3485
      3 O          -0.0170   -2.9330    0.0000 O.2     1  LIG1       -0.4210
      4 C          -0.8750   -2.4420    0.0000 C.ar    1  LIG1        0.1487
      5 C          -0.8750   -1.4380    0.0000 C.ar    1  LIG1        0.0347
      6 C          -0.0170   -0.9460    0.0000 C.ar    1  LIG1        0.0092
      7 C          -0.0170    0.0630    0.0000 C.ar    1  LIG1       -0.0082
      8 C           0.8460    0.5670    0.0000 C.ar    1  LIG1        0.0565
      9 N           1.7330    0.0630    0.0000 N.ar    1  LIG1       -0.2320
     10 C           1.7330   -0.9460    0.0000 C.ar    1  LIG1        0.1756
     11 N           2.6000   -1.4540    0.0000 N.pl3   1  LIG1       -0.1070
     12 C           0.8460    1.5790    0.0000 C.3     1  LIG1        0.0455
     13 C          -0.0170    2.0630    0.0000 C.3     1  LIG1        0.0066
     14 C          -0.8880    1.5790    0.0000 C.3     1  LIG1        0.0048
     15 C          -0.8880    0.5670    0.0000 C.3     1  LIG1        0.0276
     16 C          -1.7330    2.0790    0.0000 C.3     1  LIG1        0.0003
     17 C          -2.5830    2.5830    0.0000 C.3     1  LIG1        0.0000
     18 C          -2.2460    1.2170    0.0000 C.3     1  LIG1        0.0000
     19 C          -1.2210    2.9380    0.0000 C.3     1  LIG1        0.0000
     20 C          -1.7330   -0.9460    0.0000 C.ar    1  LIG1        0.0030
     21 C          -2.6040   -1.4540    0.0000 C.ar    1  LIG1        0.0002
     22 C          -2.6040   -2.4250    0.0000 C.ar    1  LIG1        0.0031
     23 C          -1.7330   -2.9330    0.0000 C.ar    1  LIG1        0.0376
     24 O           1.7460   -2.9130    0.0000 O.2     1  LIG1       -0.2444
@<TRIPOS>BOND
     1     1     2   ar
     2     1     6   ar
     3     1    10   ar
     4     2     3   ar
     5     2    24    2
     6     3     4   ar
     7     4     5   ar
     8     4    23   ar
     9     5     6   ar
    10     5    20   ar
    11     6     7   ar
    12     7     8   ar
    13     7    15    1
    14     8     9   ar
    15     8    12    1
    16     9    10   ar
    17    10    11    1
    18    12    13    1
    19    13    14    1
    20    14    15    1
    21    14    16    1
    22    16    17    1
    23    16    18    1
    24    16    19    1
    25    20    21   ar
    26    21    22   ar
    27    22    23   ar
