@<TRIPOS>MOLECULE
29036_ChemDiv_8008-7924
 30 34 0 0 0
SMALL
GASTEIGER
Energy = 0

@<TRIPOS>ATOM
      1 C          -0.7170   -0.0130    0.0000 C.3     1  LIG1        0.0789
      2 C          -0.4630   -1.2040    0.0000 C.3     1  LIG1        0.0521
      3 C          -1.7000   -1.8040    0.0000 C.ar    1  LIG1       -0.0216
      4 C          -1.7170   -2.7420    0.0000 C.ar    1  LIG1       -0.0221
      5 C          -0.5500   -2.2670    0.0000 C.3     1  LIG1        0.0444
      6 C           0.4960   -2.7960    0.0000 C.ar    1  LIG1       -0.0221
      7 C           0.4960   -1.8540    0.0000 C.ar    1  LIG1       -0.0216
      8 C           1.3210   -1.3920    0.0000 C.ar    1  LIG1       -0.0042
      9 C           2.1380   -1.8670    0.0000 C.ar    1  LIG1       -0.0003
     10 C           2.1210   -2.8040    0.0000 C.ar    1  LIG1       -0.0003
     11 C           1.2960   -3.2670    0.0000 C.ar    1  LIG1       -0.0043
     12 C          -1.1210   -0.4880    0.0000 C.3     1  LIG1        0.0180
     13 C          -2.5420   -3.2080    0.0000 C.ar    1  LIG1       -0.0043
     14 C          -3.3420   -2.7250    0.0000 C.ar    1  LIG1       -0.0003
     15 C          -3.3330   -1.7920    0.0000 C.ar    1  LIG1       -0.0003
     16 C          -2.5170   -1.3290    0.0000 C.ar    1  LIG1       -0.0042
     17 C           0.1000    0.4630    0.0000 C.2     1  LIG1        0.2454
     18 N           0.9080   -0.0130    0.0000 N.am    1  LIG1       -0.1760
     19 C           1.7080    0.4630    0.0000 C.ar    1  LIG1        0.1102
     20 C           1.7080    1.4000    0.0000 C.ar    1  LIG1        0.0566
     21 C           2.5250    1.8750    0.0000 C.ar    1  LIG1        0.1402
     22 C           3.3380    1.4000    0.0000 C.ar    1  LIG1        0.0401
     23 C           3.3380    0.4630    0.0000 C.ar    1  LIG1        0.0414
     24 C           2.5250   -0.0130    0.0000 C.ar    1  LIG1        0.1541
     25 O           2.5250   -0.9420    0.0000 O.3     1  LIG1       -0.4701
     26 C           3.3210   -1.4170    0.0000 C.3     1  LIG1        0.2525
     27 O           2.5130    2.8130    0.0000 O.3     1  LIG1       -0.4714
     28 C           3.3210    3.2710    0.0000 C.3     1  LIG1        0.2525
     29 O           0.1000    1.3830    0.0000 O.2     1  LIG1       -0.2730
     30 C          -1.5330    0.4460    0.0000 C.3     1  LIG1        0.0098
@<TRIPOS>BOND
     1     1     2    1
     2     1    12    1
     3     1    17    1
     4     1    30    1
     5     2     3    1
     6     2     7    1
     7     3     4   ar
     8     3    16   ar
     9     4     5    1
    10     4    13   ar
    11     5     6    1
    12     5    12    1
    13     6     7   ar
    14     6    11   ar
    15     7     8   ar
    16     8     9   ar
    17     9    10   ar
    18    10    11   ar
    19    13    14   ar
    20    14    15   ar
    21    15    16   ar
    22    17    18   am
    23    17    29    2
    24    18    19    1
    25    19    20   ar
    26    19    24   ar
    27    20    21   ar
    28    21    22   ar
    29    21    27    1
    30    22    23   ar
    31    23    24   ar
    32    24    25    1
    33    25    26    1
    34    27    28    1
