@<TRIPOS>MOLECULE
29030_ChemDiv_3271-0452
 30 34 0 0 0
SMALL
GASTEIGER
Energy = 0

@<TRIPOS>ATOM
      1 C          -1.2500    0.0170    0.0000 C.3     1  LIG1        0.0789
      2 C          -1.8210   -1.1580    0.0000 C.3     1  LIG1        0.0521
      3 C          -0.2960   -1.8460    0.0000 C.ar    1  LIG1       -0.0216
      4 C          -0.2960   -2.7630    0.0000 C.ar    1  LIG1       -0.0221
      5 C          -1.4040   -1.9670    0.0000 C.3     1  LIG1        0.0444
      6 C          -2.7170   -2.6080    0.0000 C.ar    1  LIG1       -0.0221
      7 C          -2.7040   -1.6920    0.0000 C.ar    1  LIG1       -0.0216
      8 C          -3.4960   -1.2330    0.0000 C.ar    1  LIG1       -0.0042
      9 C          -4.2750   -1.6880    0.0000 C.ar    1  LIG1       -0.0003
     10 C          -4.2920   -2.6040    0.0000 C.ar    1  LIG1       -0.0003
     11 C          -3.5130   -3.0790    0.0000 C.ar    1  LIG1       -0.0043
     12 C          -0.6000   -0.6710    0.0000 C.3     1  LIG1        0.0180
     13 C           0.5000   -3.2210    0.0000 C.ar    1  LIG1       -0.0043
     14 C           1.2960   -2.7710    0.0000 C.ar    1  LIG1       -0.0003
     15 C           1.3080   -1.8540    0.0000 C.ar    1  LIG1       -0.0003
     16 C           0.5170   -1.3830    0.0000 C.ar    1  LIG1       -0.0042
     17 C          -0.4580    0.4750    0.0000 C.2     1  LIG1        0.2453
     18 N           0.3330    0.0210    0.0000 N.am    1  LIG1       -0.1792
     19 C           1.1250    0.4750    0.0000 C.ar    1  LIG1        0.0734
     20 C           1.1250    1.3920    0.0000 C.ar    1  LIG1        0.0168
     21 C           1.9210    1.8500    0.0000 C.ar    1  LIG1        0.0078
     22 C           2.7130    1.4080    0.0000 C.ar    1  LIG1        0.0757
     23 C           3.4920    1.8710    0.0000 C.2     1  LIG1        0.3413
     24 O           4.2880    1.4210    0.0000 O.2     1  LIG1       -0.2449
     25 O           3.4830    2.7670    0.0000 O.3     1  LIG1       -0.4413
     26 C           4.2420    3.2250    0.0000 C.3     1  LIG1        0.2560
     27 C           2.7130    0.4920    0.0000 C.ar    1  LIG1        0.0078
     28 C           1.9210    0.0210    0.0000 C.ar    1  LIG1        0.0168
     29 O          -0.4580    1.3920    0.0000 O.2     1  LIG1       -0.2730
     30 C          -1.9080    0.6750    0.0000 C.3     1  LIG1        0.0098
@<TRIPOS>BOND
     1     1     2    1
     2     1    12    1
     3     1    17    1
     4     1    30    1
     5     2     3    1
     6     2     7    1
     7     3     4   ar
     8     3    16   ar
     9     4     5    1
    10     4    13   ar
    11     5     6    1
    12     5    12    1
    13     6     7   ar
    14     6    11   ar
    15     7     8   ar
    16     8     9   ar
    17     9    10   ar
    18    10    11   ar
    19    13    14   ar
    20    14    15   ar
    21    15    16   ar
    22    17    18   am
    23    17    29    2
    24    18    19    1
    25    19    20   ar
    26    19    28   ar
    27    20    21   ar
    28    21    22   ar
    29    22    23    1
    30    22    27   ar
    31    23    24    2
    32    23    25    1
    33    25    26    1
    34    27    28   ar
