@<TRIPOS>MOLECULE
29032_ChemDiv_3849-0047
 29 33 0 0 0
SMALL
GASTEIGER
Energy = 0

@<TRIPOS>ATOM
      1 C          -1.8000   -0.8670    0.0000 C.3     1  LIG1        0.0526
      2 C          -1.8000    0.6000    0.0000 C.3     1  LIG1        0.0872
      3 C          -1.0420    1.2500    0.0000 C.2     1  LIG1        0.2457
      4 N          -0.2420    0.8000    0.0000 N.am    1  LIG1       -0.1792
      5 C           0.5630    1.2500    0.0000 C.ar    1  LIG1        0.0734
      6 C           0.7920    2.1580    0.0000 C.ar    1  LIG1        0.0168
      7 C           1.6960    2.4040    0.0000 C.ar    1  LIG1        0.0078
      8 C           2.3500    1.7460    0.0000 C.ar    1  LIG1        0.0757
      9 C           3.2420    1.9880    0.0000 C.2     1  LIG1        0.3413
     10 O           3.4880    2.8710    0.0000 O.2     1  LIG1       -0.2449
     11 O           3.8710    1.3290    0.0000 O.3     1  LIG1       -0.4413
     12 C           4.7580    1.5380    0.0000 C.3     1  LIG1        0.2560
     13 C           2.1210    0.8460    0.0000 C.ar    1  LIG1        0.0078
     14 C           1.2210    0.6000    0.0000 C.ar    1  LIG1        0.0168
     15 O          -1.0290    2.1790    0.0000 O.2     1  LIG1       -0.2730
     16 C          -2.4830   -0.2500    0.0000 C.3     1  LIG1        0.0185
     17 C          -2.1080   -1.8330    0.0000 C.3     1  LIG1        0.0445
     18 C          -1.1420   -2.3960    0.0000 C.ar    1  LIG1       -0.0221
     19 C          -1.1250   -1.4670    0.0000 C.ar    1  LIG1       -0.0216
     20 C          -0.3250   -1.0040    0.0000 C.ar    1  LIG1       -0.0042
     21 C           0.4790   -1.4830    0.0000 C.ar    1  LIG1       -0.0003
     22 C           0.4790   -2.4080    0.0000 C.ar    1  LIG1       -0.0003
     23 C          -0.3380   -2.8670    0.0000 C.ar    1  LIG1       -0.0043
     24 C          -3.1580   -2.3330    0.0000 C.ar    1  LIG1       -0.0221
     25 C          -3.1420   -1.4000    0.0000 C.ar    1  LIG1       -0.0216
     26 C          -3.9420   -0.9290    0.0000 C.ar    1  LIG1       -0.0042
     27 C          -4.7630   -1.3880    0.0000 C.ar    1  LIG1       -0.0003
     28 C          -4.7630   -2.3290    0.0000 C.ar    1  LIG1       -0.0003
     29 C          -3.9630   -2.7960    0.0000 C.ar    1  LIG1       -0.0043
@<TRIPOS>BOND
     1     1     2    1
     2     1    19    1
     3     1    25    1
     4     2     3    1
     5     2    16    1
     6     3     4   am
     7     3    15    2
     8     4     5    1
     9     5     6   ar
    10     5    14   ar
    11     6     7   ar
    12     7     8   ar
    13     8     9    1
    14     8    13   ar
    15     9    10    2
    16     9    11    1
    17    11    12    1
    18    13    14   ar
    19    16    17    1
    20    17    18    1
    21    17    24    1
    22    18    19   ar
    23    18    23   ar
    24    19    20   ar
    25    20    21   ar
    26    21    22   ar
    27    22    23   ar
    28    24    25   ar
    29    24    29   ar
    30    25    26   ar
    31    26    27   ar
    32    27    28   ar
    33    28    29   ar
