@<TRIPOS>MOLECULE
29035_ChemDiv_3078-2329
 26 30 0 0 0
SMALL
GASTEIGER
Energy = 0

@<TRIPOS>ATOM
      1 N          -0.0170   -0.0960    0.0000 N.ar    1  LIG1       -0.2783
      2 C           0.8000    0.3710    0.0000 C.ar    1  LIG1        0.1130
      3 C           1.6170   -0.0960    0.0000 C.ar    1  LIG1        0.0049
      4 C           1.6170   -1.0290    0.0000 C.ar    1  LIG1       -0.0109
      5 C           0.8000   -1.5000    0.0000 C.ar    1  LIG1        0.0986
      6 C          -0.0170   -1.0290    0.0000 C.ar    1  LIG1        0.1579
      7 N          -0.8170   -1.5000    0.0000 N.ar    1  LIG1       -0.2258
      8 C          -1.6380   -1.0290    0.0000 C.ar    1  LIG1        0.0990
      9 C          -1.6380   -0.0960    0.0000 C.ar    1  LIG1        0.0841
     10 C          -2.4380    0.3710    0.0000 C.ar    1  LIG1        0.0191
     11 C          -3.2500   -0.0960    0.0000 C.ar    1  LIG1        0.0016
     12 C          -3.2500   -1.0290    0.0000 C.ar    1  LIG1        0.0016
     13 C          -2.4380   -1.5000    0.0000 C.ar    1  LIG1        0.0206
     14 C           0.8000   -2.4290    0.0000 C.1     1  LIG1        0.1031
     15 N           0.8000   -3.3630    0.0000 N.1     1  LIG1       -0.1907
     16 C           2.4290   -1.5000    0.0000 C.3     1  LIG1        0.0273
     17 C           3.2460   -1.0290    0.0000 C.3     1  LIG1        0.0095
     18 C           3.2460   -0.0960    0.0000 C.3     1  LIG1        0.0292
     19 N           0.8000    1.3710    0.0000 N.pl3   1  LIG1       -0.2895
     20 C          -0.0670    1.8630    0.0000 C.3     1  LIG1        0.1216
     21 C          -0.0670    2.8790    0.0000 C.3     1  LIG1        0.1350
     22 O           0.7830    3.3670    0.0000 O.3     1  LIG1       -0.3552
     23 C           1.6670    2.8790    0.0000 C.3     1  LIG1        0.1350
     24 C           1.6670    1.8790    0.0000 C.3     1  LIG1        0.1216
     25 C           2.5170    3.3670    0.0000 C.3     1  LIG1        0.0339
     26 C          -0.9330    3.3630    0.0000 C.3     1  LIG1        0.0339
@<TRIPOS>BOND
     1     1     2   ar
     2     1     6   ar
     3     1     9   ar
     4     2     3   ar
     5     2    19    1
     6     3     4   ar
     7     3    18    1
     8     4     5   ar
     9     4    16    1
    10     5     6   ar
    11     5    14    1
    12     6     7   ar
    13     7     8   ar
    14     8     9   ar
    15     8    13   ar
    16     9    10   ar
    17    10    11   ar
    18    11    12   ar
    19    12    13   ar
    20    14    15    3
    21    16    17    1
    22    17    18    1
    23    19    20    1
    24    19    24    1
    25    20    21    1
    26    21    22    1
    27    21    26    1
    28    22    23    1
    29    23    24    1
    30    23    25    1
