@<TRIPOS>MOLECULE
29034_ChemDiv_3849-0407
 29 33 0 0 0
SMALL
GASTEIGER
Energy = 0

@<TRIPOS>ATOM
      1 C          -1.3250   -1.5880    0.0000 C.3     1  LIG1        0.0530
      2 C          -0.9250    0.2540    0.0000 C.3     1  LIG1        0.0924
      3 C          -1.4380    0.7960    0.0000 C.3     1  LIG1        0.0539
      4 C          -1.6080   -0.5420    0.0000 C.3     1  LIG1        0.0496
      5 C          -0.6000   -1.0750    0.0000 C.ar    1  LIG1       -0.0217
      6 C          -0.6040   -2.0380    0.0000 C.ar    1  LIG1       -0.0216
      7 C           0.2290   -2.5290    0.0000 C.ar    1  LIG1       -0.0042
      8 C           1.0670   -2.0540    0.0000 C.ar    1  LIG1       -0.0003
      9 C           1.0670   -1.0920    0.0000 C.ar    1  LIG1       -0.0003
     10 C           0.2330   -0.6080    0.0000 C.ar    1  LIG1       -0.0042
     11 C          -2.3790   -0.9750    0.0000 C.ar    1  LIG1       -0.0217
     12 C          -2.3790   -1.9380    0.0000 C.ar    1  LIG1       -0.0216
     13 C          -3.2290   -2.4080    0.0000 C.ar    1  LIG1       -0.0042
     14 C          -4.0630   -1.9250    0.0000 C.ar    1  LIG1       -0.0003
     15 C          -4.0460   -0.9670    0.0000 C.ar    1  LIG1       -0.0003
     16 C          -3.2130   -0.4790    0.0000 C.ar    1  LIG1       -0.0042
     17 C          -1.2080    1.6790    0.0000 C.2     1  LIG1        0.0511
     18 O          -1.9290    2.3210    0.0000 O.co2   1  LIG1       -0.5491
     19 O          -0.3290    2.1630    0.0000 O.co2   1  LIG1       -0.5491
     20 C          -0.0080    0.5080    0.0000 C.2     1  LIG1        0.2461
     21 N           0.2330    1.4460    0.0000 N.am    1  LIG1       -0.1792
     22 C           1.1710    1.7000    0.0000 C.ar    1  LIG1        0.0733
     23 C           1.6420    0.8670    0.0000 C.ar    1  LIG1        0.0163
     24 C           2.6210    0.8670    0.0000 C.ar    1  LIG1       -0.0029
     25 C           3.0960    1.7000    0.0000 C.ar    1  LIG1       -0.0218
     26 C           2.6040    2.5330    0.0000 C.ar    1  LIG1       -0.0029
     27 C           1.6420    2.5330    0.0000 C.ar    1  LIG1        0.0163
     28 C           4.0580    1.7000    0.0000 C.3     1  LIG1        0.0310
     29 O           0.6750   -0.1630    0.0000 O.2     1  LIG1       -0.2730
@<TRIPOS>BOND
     1     1     2    1
     2     1     6    1
     3     1    12    1
     4     2     3    1
     5     2    20    1
     6     3     4    1
     7     3    17    1
     8     4     5    1
     9     4    11    1
    10     5     6   ar
    11     5    10   ar
    12     6     7   ar
    13     7     8   ar
    14     8     9   ar
    15     9    10   ar
    16    11    12   ar
    17    11    16   ar
    18    12    13   ar
    19    13    14   ar
    20    14    15   ar
    21    15    16   ar
    22    17    18   ar
    23    17    19   ar
    24    20    21   am
    25    20    29    2
    26    21    22    1
    27    22    23   ar
    28    22    27   ar
    29    23    24   ar
    30    24    25   ar
    31    25    26   ar
    32    25    28    1
    33    26    27   ar
