@<TRIPOS>MOLECULE
29043_ChemDiv_8017-3662
 20 22 0 0 0
SMALL
GASTEIGER
Energy = 0

@<TRIPOS>ATOM
      1 C           1.9790   -0.5790    0.0000 C.ar    1  LIG1        0.1241
      2 C           1.1040   -1.0420    0.0000 C.ar    1  LIG1        0.0934
      3 N           0.2540   -0.5130    0.0000 N.am    1  LIG1       -0.1738
      4 C          -0.6960   -0.2170    0.0000 C.2     1  LIG1        0.2698
      5 C          -1.4170    0.4750    0.0000 C.ar    1  LIG1        0.0659
      6 C          -2.3920    0.1960    0.0000 C.ar    1  LIG1        0.0618
      7 C          -3.1170    0.9000    0.0000 C.ar    1  LIG1        0.0073
      8 C          -2.8670    1.8710    0.0000 C.ar    1  LIG1       -0.0210
      9 C          -1.9040    2.1500    0.0000 C.ar    1  LIG1       -0.0041
     10 C          -1.1790    1.4460    0.0000 C.ar    1  LIG1        0.0051
     11 C          -3.5920    2.5710    0.0000 C.3     1  LIG1        0.0311
     12 CL         -2.6330   -0.7790    0.0000 Cl      1  LIG1       -0.0821
     13 O          -1.2040   -1.0880    0.0000 O.2     1  LIG1       -0.2680
     14 C           1.0670   -2.0380    0.0000 C.ar    1  LIG1        0.0183
     15 C           1.9130   -2.5670    0.0000 C.ar    1  LIG1        0.0030
     16 C           2.7920   -2.1000    0.0000 C.ar    1  LIG1        0.0214
     17 C           2.8290   -1.1000    0.0000 C.ar    1  LIG1        0.1101
     18 N           3.5880   -0.4630    0.0000 N.ar    1  LIG1       -0.1901
     19 S           3.2130    0.4630    0.0000 S.2     1  LIG1        0.1166
     20 N           2.2170    0.3830    0.0000 N.ar    1  LIG1       -0.1888
@<TRIPOS>BOND
     1     1     2   ar
     2     1    17   ar
     3     1    20   ar
     4     2     3    1
     5     2    14   ar
     6     3     4   am
     7     4     5    1
     8     4    13    2
     9     5     6   ar
    10     5    10   ar
    11     6     7   ar
    12     6    12    1
    13     7     8   ar
    14     8     9   ar
    15     8    11    1
    16     9    10   ar
    17    14    15   ar
    18    15    16   ar
    19    16    17   ar
    20    17    18   ar
    21    18    19   ar
    22    19    20   ar
