@<TRIPOS>MOLECULE
29041_ChemDiv_7833-1652
 18 20 0 0 0
SMALL
GASTEIGER
Energy = 0

@<TRIPOS>ATOM
      1 C          -1.7580    0.5290    0.0000 C.ar    1  LIG1        0.1238
      2 C          -1.2880   -0.3540    0.0000 C.ar    1  LIG1        0.0895
      3 N          -0.2920   -0.3830    0.0000 N.am    1  LIG1       -0.1716
      4 C           0.6880   -0.1580    0.0000 C.2     1  LIG1        0.3037
      5 C           1.6630   -0.4000    0.0000 C.ar    1  LIG1        0.2005
      6 O           2.4330    0.2420    0.0000 O.2     1  LIG1       -0.4457
      7 C           3.2830   -0.2880    0.0000 C.ar    1  LIG1        0.1798
      8 C           3.0420   -1.2630    0.0000 C.ar    1  LIG1        0.0440
      9 C           2.0420   -1.3380    0.0000 C.ar    1  LIG1        0.0455
     10 O           0.6960    0.8420    0.0000 O.2     1  LIG1       -0.2646
     11 C          -1.8080   -1.1960    0.0000 C.ar    1  LIG1       -0.0049
     12 C          -2.8080   -1.1540    0.0000 C.ar    1  LIG1       -0.0013
     13 C          -3.2880   -0.2790    0.0000 C.ar    1  LIG1        0.0211
     14 C          -2.7460    0.5710    0.0000 C.ar    1  LIG1        0.1101
     15 N          -3.0290    1.5210    0.0000 N.ar    1  LIG1       -0.1901
     16 S          -2.2000    2.0830    0.0000 S.2     1  LIG1        0.1166
     17 N          -1.4170    1.4670    0.0000 N.ar    1  LIG1       -0.1888
     18 C          -1.3380   -2.0790    0.0000 C.3     1  LIG1        0.0324
@<TRIPOS>BOND
     1     1     2   ar
     2     1    14   ar
     3     1    17   ar
     4     2     3    1
     5     2    11   ar
     6     3     4   am
     7     4     5    1
     8     4    10    2
     9     5     6   ar
    10     5     9   ar
    11     6     7   ar
    12     7     8   ar
    13     8     9   ar
    14    11    12   ar
    15    11    18    1
    16    12    13   ar
    17    13    14   ar
    18    14    15   ar
    19    15    16   ar
    20    16    17   ar
