@<TRIPOS>MOLECULE
29045_ChemDiv_8017-4413
 20 22 0 0 0
SMALL
GASTEIGER
Energy = 0

@<TRIPOS>ATOM
      1 C           2.2290   -0.5790    0.0000 C.ar    1  LIG1        0.1241
      2 C           1.3420   -1.0420    0.0000 C.ar    1  LIG1        0.0934
      3 N           0.5040   -0.5080    0.0000 N.am    1  LIG1       -0.1738
      4 C          -0.4580   -0.2210    0.0000 C.2     1  LIG1        0.2690
      5 C          -1.1710    0.4830    0.0000 C.ar    1  LIG1        0.0562
      6 C          -2.1460    0.1960    0.0000 C.ar    1  LIG1        0.0157
      7 C          -2.8710    0.8960    0.0000 C.ar    1  LIG1        0.0538
      8 C          -2.6330    1.8710    0.0000 C.ar    1  LIG1       -0.0113
      9 C          -1.6630    2.1580    0.0000 C.ar    1  LIG1       -0.0033
     10 C          -0.9330    1.4580    0.0000 C.ar    1  LIG1        0.0043
     11 C          -3.3500    2.5710    0.0000 C.3     1  LIG1        0.0319
     12 CL         -3.8330    0.6210    0.0000 Cl      1  LIG1       -0.0826
     13 O          -0.9630   -1.0830    0.0000 O.2     1  LIG1       -0.2680
     14 C           1.3130   -2.0330    0.0000 C.ar    1  LIG1        0.0183
     15 C           2.1540   -2.5670    0.0000 C.ar    1  LIG1        0.0030
     16 C           3.0380   -2.0960    0.0000 C.ar    1  LIG1        0.0214
     17 C           3.0750   -1.0960    0.0000 C.ar    1  LIG1        0.1101
     18 N           3.8290   -0.4580    0.0000 N.ar    1  LIG1       -0.1901
     19 S           3.4540    0.4630    0.0000 S.2     1  LIG1        0.1166
     20 N           2.4670    0.3880    0.0000 N.ar    1  LIG1       -0.1888
@<TRIPOS>BOND
     1     1     2   ar
     2     1    17   ar
     3     1    20   ar
     4     2     3    1
     5     2    14   ar
     6     3     4   am
     7     4     5    1
     8     4    13    2
     9     5     6   ar
    10     5    10   ar
    11     6     7   ar
    12     7     8   ar
    13     7    12    1
    14     8     9   ar
    15     8    11    1
    16     9    10   ar
    17    14    15   ar
    18    15    16   ar
    19    16    17   ar
    20    17    18   ar
    21    18    19   ar
    22    19    20   ar
