@<TRIPOS>MOLECULE
29049_ChemDiv_8017-4422
 22 24 0 0 0
SMALL
GASTEIGER
Energy = 0

@<TRIPOS>ATOM
      1 C           2.7380    1.0500    0.0000 C.ar    1  LIG1        0.1241
      2 C           2.6920    0.0580    0.0000 C.ar    1  LIG1        0.0934
      3 N           1.8170   -0.4130    0.0000 N.am    1  LIG1       -0.1738
      4 C           1.0880   -1.0920    0.0000 C.2     1  LIG1        0.2690
      5 C           0.1250   -1.3750    0.0000 C.ar    1  LIG1        0.0556
      6 C          -0.5960   -0.6790    0.0000 C.ar    1  LIG1        0.0077
      7 C          -1.5580   -0.9540    0.0000 C.ar    1  LIG1        0.0370
      8 C          -1.8080   -1.9290    0.0000 C.ar    1  LIG1        0.1384
      9 O          -2.7790   -2.2040    0.0000 O.3     1  LIG1       -0.4792
     10 C          -3.4960   -1.5040    0.0000 C.3     1  LIG1        0.1661
     11 C          -3.2460   -0.5290    0.0000 C.3     1  LIG1        0.0472
     12 C          -4.4670   -1.7790    0.0000 C.3     1  LIG1        0.0472
     13 C          -1.0920   -2.6290    0.0000 C.ar    1  LIG1        0.0370
     14 C          -0.1170   -2.3540    0.0000 C.ar    1  LIG1        0.0077
     15 O           1.5790   -1.9670    0.0000 O.2     1  LIG1       -0.2680
     16 C           3.5420   -0.4670    0.0000 C.ar    1  LIG1        0.0183
     17 C           4.4250   -0.0040    0.0000 C.ar    1  LIG1        0.0030
     18 C           4.4630    0.9880    0.0000 C.ar    1  LIG1        0.0214
     19 C           3.6170    1.5210    0.0000 C.ar    1  LIG1        0.1101
     20 N           3.4380    2.4960    0.0000 N.ar    1  LIG1       -0.1901
     21 S           2.4460    2.6330    0.0000 S.2     1  LIG1        0.1166
     22 N           2.0170    1.7460    0.0000 N.ar    1  LIG1       -0.1888
@<TRIPOS>BOND
     1     1     2   ar
     2     1    19   ar
     3     1    22   ar
     4     2     3    1
     5     2    16   ar
     6     3     4   am
     7     4     5    1
     8     4    15    2
     9     5     6   ar
    10     5    14   ar
    11     6     7   ar
    12     7     8   ar
    13     8     9    1
    14     8    13   ar
    15     9    10    1
    16    10    11    1
    17    10    12    1
    18    13    14   ar
    19    16    17   ar
    20    17    18   ar
    21    18    19   ar
    22    19    20   ar
    23    20    21   ar
    24    21    22   ar
