@<TRIPOS>MOLECULE
29040_ChemDiv_3271-0385
 23 26 0 0 0
SMALL
GASTEIGER
Energy = 0

@<TRIPOS>ATOM
      1 C          -1.4170   -0.1920    0.0000 C.3     1  LIG1        0.0464
      2 C          -0.4170   -0.1920    0.0000 C.3     1  LIG1        0.0867
      3 C          -0.9290   -1.0540    0.0000 C.3     1  LIG1        0.0184
      4 C           0.2920   -0.9080    0.0000 C.2     1  LIG1        0.2474
      5 N           1.1420   -0.4040    0.0000 N.am    1  LIG1       -0.1543
      6 C           2.0080   -0.8750    0.0000 C.ar    1  LIG1        0.1858
      7 N           2.8380   -0.3420    0.0000 N.ar    1  LIG1       -0.2209
      8 C           3.6130   -0.9750    0.0000 C.ar    1  LIG1        0.1079
      9 C           3.2540   -1.8960    0.0000 C.ar    1  LIG1        0.0588
     10 S           2.2580   -1.8460    0.0000 S.2     1  LIG1       -0.0491
     11 O           0.2920   -1.8960    0.0000 O.2     1  LIG1       -0.2729
     12 C          -1.9290   -1.0540    0.0000 C.ar    1  LIG1       -0.0186
     13 C          -2.9040   -0.7880    0.0000 C.ar    1  LIG1       -0.0040
     14 C          -3.6170   -1.4960    0.0000 C.ar    1  LIG1       -0.0003
     15 C          -3.3540   -2.4750    0.0000 C.ar    1  LIG1       -0.0000
     16 C          -2.3960   -2.7250    0.0000 C.ar    1  LIG1       -0.0003
     17 C          -1.6790   -2.0290    0.0000 C.ar    1  LIG1       -0.0040
     18 C          -1.6830    0.7750    0.0000 C.ar    1  LIG1       -0.0186
     19 C          -2.6630    1.0420    0.0000 C.ar    1  LIG1       -0.0040
     20 C          -2.9130    2.0170    0.0000 C.ar    1  LIG1       -0.0003
     21 C          -2.1960    2.7290    0.0000 C.ar    1  LIG1       -0.0000
     22 C          -1.2330    2.4630    0.0000 C.ar    1  LIG1       -0.0003
     23 C          -0.9790    1.4830    0.0000 C.ar    1  LIG1       -0.0040
@<TRIPOS>BOND
     1     1     2    1
     2     1     3    1
     3     1    12    1
     4     1    18    1
     5     2     3    1
     6     2     4    1
     7     4     5   am
     8     4    11    2
     9     5     6    1
    10     6     7   ar
    11     6    10   ar
    12     7     8   ar
    13     8     9   ar
    14     9    10   ar
    15    12    13   ar
    16    12    17   ar
    17    13    14   ar
    18    14    15   ar
    19    15    16   ar
    20    16    17   ar
    21    18    19   ar
    22    18    23   ar
    23    19    20   ar
    24    20    21   ar
    25    21    22   ar
    26    22    23   ar
