@<TRIPOS>MOLECULE
29047_ChemDiv_8017-4418
 19 21 0 0 0
SMALL
GASTEIGER
Energy = 0

@<TRIPOS>ATOM
      1 C          -1.9830   -0.2540    0.0000 C.ar    1  LIG1        0.1241
      2 C          -1.4540    0.5790    0.0000 C.ar    1  LIG1        0.0934
      3 N          -0.4540    0.5460    0.0000 N.am    1  LIG1       -0.1738
      4 C           0.5170    0.7710    0.0000 C.2     1  LIG1        0.2691
      5 C           1.4880    0.5290    0.0000 C.ar    1  LIG1        0.0576
      6 C           1.7670   -0.4290    0.0000 C.ar    1  LIG1        0.0342
      7 C           2.7380   -0.6750    0.0000 C.ar    1  LIG1        0.1403
      8 F           3.0170   -1.6420    0.0000 F       1  LIG1       -0.2042
      9 C           3.4420    0.0460    0.0000 C.ar    1  LIG1        0.0296
     10 C           3.1670    1.0080    0.0000 C.ar    1  LIG1        0.0025
     11 C           2.1880    1.2540    0.0000 C.ar    1  LIG1        0.0047
     12 O           0.5170    1.7790    0.0000 O.2     1  LIG1       -0.2680
     13 C          -1.9210    1.4580    0.0000 C.ar    1  LIG1        0.0183
     14 C          -2.9210    1.4920    0.0000 C.ar    1  LIG1        0.0030
     15 C          -3.4460    0.6540    0.0000 C.ar    1  LIG1        0.0214
     16 C          -2.9790   -0.2290    0.0000 C.ar    1  LIG1        0.1101
     17 N          -3.3170   -1.1630    0.0000 N.ar    1  LIG1       -0.1901
     18 S          -2.5290   -1.7750    0.0000 S.2     1  LIG1        0.1166
     19 N          -1.7040   -1.2170    0.0000 N.ar    1  LIG1       -0.1888
@<TRIPOS>BOND
     1     1     2   ar
     2     1    16   ar
     3     1    19   ar
     4     2     3    1
     5     2    13   ar
     6     3     4   am
     7     4     5    1
     8     4    12    2
     9     5     6   ar
    10     5    11   ar
    11     6     7   ar
    12     7     8    1
    13     7     9   ar
    14     9    10   ar
    15    10    11   ar
    16    13    14   ar
    17    14    15   ar
    18    15    16   ar
    19    16    17   ar
    20    17    18   ar
    21    18    19   ar
