@<TRIPOS>MOLECULE
29051_ChemDiv_8017-6432
 21 23 0 0 0
SMALL
GASTEIGER
Energy = 0

@<TRIPOS>ATOM
      1 C           2.1960    0.8500    0.0000 C.ar    1  LIG1        0.1241
      2 C           1.6670    0.0080    0.0000 C.ar    1  LIG1        0.0934
      3 N           0.6670    0.0460    0.0000 N.am    1  LIG1       -0.1738
      4 C          -0.3080   -0.1830    0.0000 C.2     1  LIG1        0.2720
      5 C          -1.2830    0.0580    0.0000 C.ar    1  LIG1        0.0889
      6 C          -1.9830   -0.6710    0.0000 C.ar    1  LIG1        0.1391
      7 C          -2.9580   -0.4290    0.0000 C.ar    1  LIG1        0.0123
      8 C          -3.2330    0.5460    0.0000 C.ar    1  LIG1       -0.0013
      9 C          -2.5330    1.2630    0.0000 C.ar    1  LIG1        0.0000
     10 C          -1.5580    1.0210    0.0000 C.ar    1  LIG1        0.0076
     11 C          -3.6580   -1.1460    0.0000 C.3     1  LIG1        0.0342
     12 O          -1.7080   -1.6330    0.0000 O.3     1  LIG1       -0.4716
     13 C          -2.4080   -2.3580    0.0000 C.3     1  LIG1        0.2525
     14 O          -0.3130   -1.1830    0.0000 O.2     1  LIG1       -0.2679
     15 C           2.1290   -0.8710    0.0000 C.ar    1  LIG1        0.0183
     16 C           3.1290   -0.9080    0.0000 C.ar    1  LIG1        0.0030
     17 C           3.6540   -0.0670    0.0000 C.ar    1  LIG1        0.0214
     18 C           3.1920    0.8210    0.0000 C.ar    1  LIG1        0.1101
     19 N           3.5290    1.7580    0.0000 N.ar    1  LIG1       -0.1901
     20 S           2.7420    2.3630    0.0000 S.2     1  LIG1        0.1166
     21 N           1.9170    1.8080    0.0000 N.ar    1  LIG1       -0.1888
@<TRIPOS>BOND
     1     1     2   ar
     2     1    18   ar
     3     1    21   ar
     4     2     3    1
     5     2    15   ar
     6     3     4   am
     7     4     5    1
     8     4    14    2
     9     5     6   ar
    10     5    10   ar
    11     6     7   ar
    12     6    12    1
    13     7     8   ar
    14     7    11    1
    15     8     9   ar
    16     9    10   ar
    17    12    13    1
    18    15    16   ar
    19    16    17   ar
    20    17    18   ar
    21    18    19   ar
    22    19    20   ar
    23    20    21   ar
