@<TRIPOS>MOLECULE
29053_ChemDiv_8017-8393
 20 22 0 0 0
SMALL
GASTEIGER
Energy = 0

@<TRIPOS>ATOM
      1 C           2.2960   -1.5040    0.0000 C.ar    1  LIG1        0.1090
      2 C           2.9920   -0.7790    0.0000 C.ar    1  LIG1        0.1088
      3 N           3.8960   -1.2040    0.0000 N.ar    1  LIG1       -0.1901
      4 S           3.7540   -2.2000    0.0000 S.2     1  LIG1        0.1165
      5 N           2.7790   -2.3880    0.0000 N.ar    1  LIG1       -0.1901
      6 C           2.7170    0.1790    0.0000 C.ar    1  LIG1        0.0215
      7 C           1.7420    0.4170    0.0000 C.ar    1  LIG1        0.0062
      8 C           1.0460   -0.3080    0.0000 C.ar    1  LIG1        0.0570
      9 C           1.3210   -1.2670    0.0000 C.ar    1  LIG1        0.0259
     10 C           0.0710   -0.0670    0.0000 C.2     1  LIG1        0.2690
     11 N          -0.9000   -0.2830    0.0000 N.am    1  LIG1       -0.1753
     12 C          -1.8960   -0.2580    0.0000 C.ar    1  LIG1        0.0767
     13 C          -2.3630    0.6290    0.0000 C.ar    1  LIG1        0.0535
     14 C          -3.3580    0.6670    0.0000 C.ar    1  LIG1        0.1400
     15 O          -3.8380    1.5420    0.0000 O.3     1  LIG1       -0.4714
     16 C          -3.3080    2.3920    0.0000 C.3     1  LIG1        0.2525
     17 C          -3.9000   -0.1830    0.0000 C.ar    1  LIG1        0.0370
     18 C          -3.4250   -1.0580    0.0000 C.ar    1  LIG1        0.0044
     19 C          -2.4250   -1.0960    0.0000 C.ar    1  LIG1        0.0168
     20 O           0.0830    0.9330    0.0000 O.2     1  LIG1       -0.2680
@<TRIPOS>BOND
     1     1     2   ar
     2     1     5   ar
     3     1     9   ar
     4     2     3   ar
     5     2     6   ar
     6     3     4   ar
     7     4     5   ar
     8     6     7   ar
     9     7     8   ar
    10     8     9   ar
    11     8    10    1
    12    10    11   am
    13    10    20    2
    14    11    12    1
    15    12    13   ar
    16    12    19   ar
    17    13    14   ar
    18    14    15    1
    19    14    17   ar
    20    15    16    1
    21    17    18   ar
    22    18    19   ar
