@<TRIPOS>MOLECULE
29058_ChemDiv_5604-0094
 18 18 0 0 0
SMALL
GASTEIGER
Energy = 0

@<TRIPOS>ATOM
      1 C           2.2170    1.1630    0.0000 C.ar    1  LIG1        0.1858
      2 N           1.3710    0.6630    0.0000 N.am    1  LIG1       -0.1543
      3 C           0.4580    1.1630    0.0000 C.2     1  LIG1        0.2473
      4 O           0.4580    2.1460    0.0000 O.2     1  LIG1       -0.2729
      5 C          -0.3880    0.6630    0.0000 C.3     1  LIG1        0.0876
      6 C          -1.2290    1.1630    0.0000 C.3     1  LIG1        0.0152
      7 C          -2.1460    0.6630    0.0000 C.3     1  LIG1        0.0370
      8 C          -2.9880    1.1630    0.0000 C.2     1  LIG1        0.0500
      9 O          -2.9880    2.1460    0.0000 O.co2   1  LIG1       -0.5492
     10 O          -3.8330    0.6630    0.0000 O.co2   1  LIG1       -0.5492
     11 C          -2.1460   -0.3830    0.0000 C.3     1  LIG1        0.0055
     12 C          -2.9880   -0.8750    0.0000 C.3     1  LIG1        0.0004
     13 C          -2.9880   -1.8630    0.0000 C.3     1  LIG1        0.0000
     14 C          -3.8330   -2.3540    0.0000 C.3     1  LIG1        0.0000
     15 N           2.2880    2.1460    0.0000 N.ar    1  LIG1       -0.2209
     16 C           3.2710    2.3580    0.0000 C.ar    1  LIG1        0.1079
     17 C           3.8290    1.4420    0.0000 C.ar    1  LIG1        0.0588
     18 S           3.1290    0.7420    0.0000 S.2     1  LIG1       -0.0491
@<TRIPOS>BOND
     1     1     2    1
     2     1    15   ar
     3     1    18   ar
     4     2     3   am
     5     3     4    2
     6     3     5    1
     7     5     6    1
     8     6     7    1
     9     7     8    1
    10     7    11    1
    11     8     9   ar
    12     8    10   ar
    13    11    12    1
    14    12    13    1
    15    13    14    1
    16    15    16   ar
    17    16    17   ar
    18    17    18   ar
