@<TRIPOS>MOLECULE
29062_ChemDiv_K808-7981
 20 21 0 0 0
SMALL
GASTEIGER
Energy = 0

@<TRIPOS>ATOM
      1 C          -2.3500   -1.2170    0.0000 C.ar    1  LIG1        0.1855
      2 N          -2.7250   -2.1170    0.0000 N.ar    1  LIG1       -0.2269
      3 C          -3.7250   -2.0830    0.0000 C.ar    1  LIG1        0.0679
      4 C          -3.9750   -1.0670    0.0000 C.ar    1  LIG1        0.0529
      5 S          -3.1210   -0.5750    0.0000 S.2     1  LIG1       -0.0495
      6 C          -4.3130   -2.8920    0.0000 C.3     1  LIG1        0.0527
      7 N          -1.3880   -0.9920    0.0000 N.am    1  LIG1       -0.1543
      8 C          -0.4460   -0.6750    0.0000 C.2     1  LIG1        0.2473
      9 O           0.3130   -1.3250    0.0000 O.2     1  LIG1       -0.2729
     10 C          -0.2460    0.2960    0.0000 C.3     1  LIG1        0.0877
     11 C           0.7080    0.6170    0.0000 C.3     1  LIG1        0.0177
     12 C           0.9080    1.6040    0.0000 C.3     1  LIG1        0.0697
     13 C           1.8630    1.9210    0.0000 C.2     1  LIG1        0.1730
     14 O           2.0580    2.8960    0.0000 O.2     1  LIG1       -0.2913
     15 C           2.6080    1.2540    0.0000 C.ar    1  LIG1        0.0347
     16 C           3.5500    1.5710    0.0000 C.ar    1  LIG1        0.0028
     17 C           4.3080    0.9040    0.0000 C.ar    1  LIG1        0.0001
     18 C           4.1080   -0.0670    0.0000 C.ar    1  LIG1        0.0000
     19 C           3.1540   -0.3880    0.0000 C.ar    1  LIG1        0.0001
     20 C           2.4040    0.2790    0.0000 C.ar    1  LIG1        0.0028
@<TRIPOS>BOND
     1     1     2   ar
     2     1     5   ar
     3     1     7    1
     4     2     3   ar
     5     3     4   ar
     6     3     6    1
     7     4     5   ar
     8     7     8   am
     9     8     9    2
    10     8    10    1
    11    10    11    1
    12    11    12    1
    13    12    13    1
    14    13    14    2
    15    13    15    1
    16    15    16   ar
    17    15    20   ar
    18    16    17   ar
    19    17    18   ar
    20    18    19   ar
    21    19    20   ar
