@<TRIPOS>MOLECULE
29063_ChemDiv_6583-0278
 20 23 0 0 0
SMALL
GASTEIGER
Energy = 0

@<TRIPOS>ATOM
      1 N           0.6500    1.4170    0.0000 N.3     1  LIG1       -0.2265
      2 C           0.1920    0.5540    0.0000 C.3     1  LIG1        0.1758
      3 N          -0.9460    1.0920    0.0000 N.4     1  LIG1        0.3880
      4 C          -0.9380    2.0880    0.0000 C.3     1  LIG1        0.1416
      5 C          -0.2420    2.7830    0.0000 C.3     1  LIG1        0.0669
      6 C           0.5880    2.3920    0.0000 C.3     1  LIG1        0.0832
      7 C          -1.1880    2.5210    0.0000 C.3     1  LIG1        0.0142
      8 C          -1.1790    1.5380    0.0000 C.3     1  LIG1        0.0669
      9 C          -0.1330    1.1460    0.0000 C.3     1  LIG1        0.0832
     10 C          -1.7880    0.6210    0.0000 C.3     1  LIG1        0.1416
     11 C          -2.1710    1.5380    0.0000 C.3     1  LIG1        0.0073
     12 C          -0.2580    3.7670    0.0000 C.3     1  LIG1        0.0073
     13 C           0.6830   -0.3080    0.0000 C.ar    1  LIG1        0.0452
     14 C           1.6670   -0.3080    0.0000 C.ar    1  LIG1        0.0024
     15 C           2.1670   -1.1750    0.0000 C.ar    1  LIG1       -0.0043
     16 C           1.6670   -2.0330    0.0000 C.ar    1  LIG1       -0.0222
     17 C           0.6750   -2.0290    0.0000 C.ar    1  LIG1       -0.0043
     18 C           0.1830   -1.1670    0.0000 C.ar    1  LIG1        0.0024
     19 C           2.1670   -2.9000    0.0000 C.3     1  LIG1        0.0264
     20 C           1.6670   -3.7630    0.0000 C.3     1  LIG1        0.0050
@<TRIPOS>BOND
     1     1     2    1
     2     1     6    1
     3     1     9    1
     4     2     3    1
     5     2    13    1
     6     3     4    1
     7     3    10    1
     8     4     5    1
     9     5     6    1
    10     5     7    1
    11     5    12    1
    12     7     8    1
    13     8     9    1
    14     8    10    1
    15     8    11    1
    16    13    14   ar
    17    13    18   ar
    18    14    15   ar
    19    15    16   ar
    20    16    17   ar
    21    16    19    1
    22    17    18   ar
    23    19    20    1
