@<TRIPOS>MOLECULE
29060_ChemDiv_6903-0004
 20 22 0 0 0
SMALL
GASTEIGER
Energy = 0

@<TRIPOS>ATOM
      1 N           0.1380   -1.6630    0.0000 N.am    1  LIG1       -0.1868
      2 C          -0.4540   -2.4710    0.0000 C.2     1  LIG1        0.2371
      3 C          -1.3920   -2.1750    0.0000 C.3     1  LIG1        0.0955
      4 C          -1.3960   -1.1710    0.0000 C.3     1  LIG1        0.0909
      5 C          -0.4540   -0.8580    0.0000 C.2     1  LIG1        0.2369
      6 O          -0.1420    0.1080    0.0000 O.2     1  LIG1       -0.2741
      7 C          -2.1460   -0.4960    0.0000 C.3     1  LIG1        0.0359
      8 C          -1.9380    0.4880    0.0000 C.ar    1  LIG1       -0.0217
      9 C          -2.6790    1.1500    0.0000 C.ar    1  LIG1       -0.0046
     10 C          -2.4790    2.1250    0.0000 C.ar    1  LIG1       -0.0046
     11 C          -1.5290    2.4420    0.0000 C.ar    1  LIG1       -0.0219
     12 C          -0.7880    1.7750    0.0000 C.ar    1  LIG1       -0.0046
     13 C          -0.9960    0.7920    0.0000 C.ar    1  LIG1       -0.0046
     14 C          -1.3290    3.4330    0.0000 C.3     1  LIG1        0.0310
     15 O          -0.1500   -3.4290    0.0000 O.2     1  LIG1       -0.2741
     16 C           1.1330   -1.6630    0.0000 C.ar    1  LIG1        0.1748
     17 N           1.7250   -0.8580    0.0000 N.ar    1  LIG1       -0.2218
     18 C           2.6750   -1.1630    0.0000 C.ar    1  LIG1        0.1079
     19 C           2.6750   -2.1580    0.0000 C.ar    1  LIG1        0.0588
     20 S           1.7250   -2.4710    0.0000 S.2     1  LIG1       -0.0502
@<TRIPOS>BOND
     1     1     2   am
     2     1     5   am
     3     1    16    1
     4     2     3    1
     5     2    15    2
     6     3     4    1
     7     4     5    1
     8     4     7    1
     9     5     6    2
    10     7     8    1
    11     8     9   ar
    12     8    13   ar
    13     9    10   ar
    14    10    11   ar
    15    11    12   ar
    16    11    14    1
    17    12    13   ar
    18    16    17   ar
    19    16    20   ar
    20    17    18   ar
    21    18    19   ar
    22    19    20   ar
