@<TRIPOS>MOLECULE
29068_ChemDiv_3272-1284
 26 29 0 0 0
SMALL
GASTEIGER
Energy = 0

@<TRIPOS>ATOM
      1 C           2.1580   -0.2540    0.0000 C.2     1  LIG1        0.2647
      2 N           3.0250    0.2580    0.0000 N.am    1  LIG1       -0.2034
      3 C           3.9130   -0.2540    0.0000 C.3     1  LIG1        0.0956
      4 C           4.7670    0.2580    0.0000 C.3     1  LIG1        0.0217
      5 C           5.6330   -0.2290    0.0000 C.3     1  LIG1        0.0018
      6 C           5.6330   -1.2380    0.0000 C.3     1  LIG1        0.0001
      7 C           4.7670   -1.7460    0.0000 C.3     1  LIG1        0.0018
      8 C           3.9130   -1.2460    0.0000 C.3     1  LIG1        0.0217
      9 C           1.3040    0.2420    0.0000 C.ar    1  LIG1        0.0550
     10 C           0.4290   -0.2540    0.0000 C.ar    1  LIG1        0.0044
     11 C          -0.4330    0.2420    0.0000 C.ar    1  LIG1        0.0016
     12 C          -0.4330    1.2420    0.0000 C.ar    1  LIG1        0.0344
     13 C          -1.3040    1.7330    0.0000 C.3     1  LIG1        0.1667
     14 N          -2.1670    1.2420    0.0000 N.4     1  LIG1        0.3844
     15 C          -3.0420    1.7290    0.0000 C.3     1  LIG1        0.1663
     16 C          -3.9080    1.2290    0.0000 C.ar    1  LIG1        0.0306
     17 C          -3.9080    0.2170    0.0000 C.ar    1  LIG1       -0.0147
     18 C          -3.0290   -0.2750    0.0000 C.3     1  LIG1        0.0889
     19 C          -2.1670    0.2330    0.0000 C.3     1  LIG1        0.1443
     20 C          -4.7630   -0.2880    0.0000 C.ar    1  LIG1       -0.0042
     21 C          -5.6380    0.2130    0.0000 C.ar    1  LIG1       -0.0003
     22 C          -5.6380    1.2130    0.0000 C.ar    1  LIG1       -0.0001
     23 C          -4.7750    1.7130    0.0000 C.ar    1  LIG1        0.0011
     24 C           0.4170    1.7500    0.0000 C.ar    1  LIG1        0.0016
     25 C           1.2880    1.2500    0.0000 C.ar    1  LIG1        0.0044
     26 O           2.1580   -1.2460    0.0000 O.2     1  LIG1       -0.2684
@<TRIPOS>BOND
     1     1     2   am
     2     1     9    1
     3     1    26    2
     4     2     3    1
     5     3     4    1
     6     3     8    1
     7     4     5    1
     8     5     6    1
     9     6     7    1
    10     7     8    1
    11     9    10   ar
    12     9    25   ar
    13    10    11   ar
    14    11    12   ar
    15    12    13    1
    16    12    24   ar
    17    13    14    1
    18    14    15    1
    19    14    19    1
    20    15    16    1
    21    16    17   ar
    22    16    23   ar
    23    17    18    1
    24    17    20   ar
    25    18    19    1
    26    20    21   ar
    27    21    22   ar
    28    22    23   ar
    29    24    25   ar
