@<TRIPOS>MOLECULE
29079_ChemDiv_3174-1505
 32 36 0 0 0
SMALL
GASTEIGER
Energy = 0

@<TRIPOS>ATOM
      1 C          -0.8000    0.1540    0.0000 C.2     1  LIG1        0.0736
      2 C          -1.8000   -0.0330    0.0000 C.2     1  LIG1        0.2729
      3 N          -2.2880    0.8210    0.0000 N.am    1  LIG1       -0.1552
      4 N          -1.6040    1.5580    0.0000 N.2     1  LIG1       -0.1755
      5 C          -0.6960    1.1380    0.0000 C.2     1  LIG1        0.0818
      6 C           0.1830    1.6250    0.0000 C.3     1  LIG1        0.0539
      7 C          -3.2750    0.9380    0.0000 C.ar    1  LIG1        0.0771
      8 C          -3.8750    0.1540    0.0000 C.ar    1  LIG1        0.0169
      9 C          -4.8750    0.2580    0.0000 C.ar    1  LIG1        0.0025
     10 C          -5.2580    1.1790    0.0000 C.ar    1  LIG1        0.0141
     11 C          -6.2420    1.2880    0.0000 C.2     1  LIG1        0.0729
     12 O          -6.8420    0.4880    0.0000 O.co2   1  LIG1       -0.5446
     13 O          -6.6420    2.2080    0.0000 O.co2   1  LIG1       -0.5446
     14 C          -4.6750    1.9790    0.0000 C.ar    1  LIG1        0.0025
     15 C          -3.6750    1.8630    0.0000 C.ar    1  LIG1        0.0169
     16 O          -2.2040   -0.9460    0.0000 O.2     1  LIG1       -0.2678
     17 C          -0.0670   -0.5330    0.0000 C.2     1  LIG1        0.0433
     18 C           0.8750   -0.2330    0.0000 C.ar    1  LIG1        0.1456
     19 O           1.6790   -0.8290    0.0000 O.2     1  LIG1       -0.4535
     20 C           2.5130   -0.2500    0.0000 C.ar    1  LIG1        0.1453
     21 C           2.2080    0.7040    0.0000 C.ar    1  LIG1        0.0406
     22 C           1.2040    0.7040    0.0000 C.ar    1  LIG1        0.0406
     23 C           3.4630   -0.5670    0.0000 C.ar    1  LIG1        0.0344
     24 C           4.2130    0.1040    0.0000 C.ar    1  LIG1        0.0026
     25 C           5.1540   -0.2250    0.0000 C.ar    1  LIG1        0.0276
     26 C           5.3540   -1.2130    0.0000 C.ar    1  LIG1        0.0752
     27 C           6.3540   -1.3330    0.0000 C.2     1  LIG1        0.3413
     28 O           6.7580   -0.4080    0.0000 O.3     1  LIG1       -0.4404
     29 C           6.0250    0.2420    0.0000 C.3     1  LIG1        0.2356
     30 O           6.8420   -2.2040    0.0000 O.2     1  LIG1       -0.2449
     31 C           4.6130   -1.8790    0.0000 C.ar    1  LIG1        0.0063
     32 C           3.6500   -1.5460    0.0000 C.ar    1  LIG1        0.0032
@<TRIPOS>BOND
     1     1     2    1
     2     1     5    1
     3     1    17    2
     4     2     3   am
     5     2    16    2
     6     3     4    1
     7     3     7    1
     8     4     5    2
     9     5     6    1
    10     7     8   ar
    11     7    15   ar
    12     8     9   ar
    13     9    10   ar
    14    10    11    1
    15    10    14   ar
    16    11    12   ar
    17    11    13   ar
    18    14    15   ar
    19    17    18    1
    20    18    19   ar
    21    18    22   ar
    22    19    20   ar
    23    20    21   ar
    24    20    23    1
    25    21    22   ar
    26    23    24   ar
    27    23    32   ar
    28    24    25   ar
    29    25    26   ar
    30    25    29    1
    31    26    27    1
    32    26    31   ar
    33    27    28    1
    34    27    30    2
    35    28    29    1
    36    31    32   ar
