@<TRIPOS>MOLECULE
29070_ChemDiv_5954-5107
 26 28 0 0 0
SMALL
GASTEIGER
Energy = 0

@<TRIPOS>ATOM
      1 N          -3.4790    1.0130    0.0000 N.4     1  LIG1        0.3844
      2 C          -4.3500    1.5040    0.0000 C.3     1  LIG1        0.1663
      3 C          -5.2170    1.0130    0.0000 C.ar    1  LIG1        0.0306
      4 C          -5.2170    0.0040    0.0000 C.ar    1  LIG1       -0.0147
      5 C          -4.3500   -0.4960    0.0000 C.3     1  LIG1        0.0889
      6 C          -3.4790    0.0040    0.0000 C.3     1  LIG1        0.1443
      7 C          -6.0630   -0.4960    0.0000 C.ar    1  LIG1       -0.0042
      8 C          -6.9250    0.0170    0.0000 C.ar    1  LIG1       -0.0003
      9 C          -6.9250    1.0130    0.0000 C.ar    1  LIG1       -0.0001
     10 C          -6.0630    1.5040    0.0000 C.ar    1  LIG1        0.0011
     11 C          -2.6170    1.5040    0.0000 C.3     1  LIG1        0.1667
     12 C          -1.7630    1.0130    0.0000 C.ar    1  LIG1        0.0344
     13 C          -1.7630   -0.0130    0.0000 C.ar    1  LIG1        0.0016
     14 C          -0.8750   -0.5000    0.0000 C.ar    1  LIG1        0.0044
     15 C          -0.0130    0.0040    0.0000 C.ar    1  LIG1        0.0550
     16 C           0.8420   -0.4960    0.0000 C.2     1  LIG1        0.2648
     17 O           0.8420   -1.5000    0.0000 O.2     1  LIG1       -0.2684
     18 N           1.7040    0.0040    0.0000 N.am    1  LIG1       -0.2016
     19 C           2.5920   -0.5000    0.0000 C.3     1  LIG1        0.1181
     20 C           3.4460   -0.0130    0.0000 C.3     1  LIG1        0.0555
     21 C           4.3080   -0.5000    0.0000 C.3     1  LIG1        0.1440
     22 O           5.1960   -0.0130    0.0000 O.3     1  LIG1       -0.3537
     23 C           6.0500   -0.4960    0.0000 C.3     1  LIG1        0.1422
     24 C           6.9250    0.0040    0.0000 C.3     1  LIG1        0.0346
     25 C          -0.0130    1.0130    0.0000 C.ar    1  LIG1        0.0044
     26 C          -0.8830    1.5040    0.0000 C.ar    1  LIG1        0.0016
@<TRIPOS>BOND
     1     1     2    1
     2     1     6    1
     3     1    11    1
     4     2     3    1
     5     3     4   ar
     6     3    10   ar
     7     4     5    1
     8     4     7   ar
     9     5     6    1
    10     7     8   ar
    11     8     9   ar
    12     9    10   ar
    13    11    12    1
    14    12    13   ar
    15    12    26   ar
    16    13    14   ar
    17    14    15   ar
    18    15    16    1
    19    15    25   ar
    20    16    17    2
    21    16    18   am
    22    18    19    1
    23    19    20    1
    24    20    21    1
    25    21    22    1
    26    22    23    1
    27    23    24    1
    28    25    26   ar
