@<TRIPOS>MOLECULE
29072_ChemDiv_8015-3202
 13 14 0 0 0
SMALL
GASTEIGER
Energy = 0

@<TRIPOS>ATOM
      1 C           0.4580   -0.7580    0.0000 C.2     1  LIG1        0.2644
      2 N           1.3420   -0.2460    0.0000 N.am    1  LIG1       -0.2047
      3 C           1.3420    0.7500    0.0000 C.3     1  LIG1        0.0831
      4 C           0.4580    1.2500    0.0000 C.3     1  LIG1        0.0465
      5 C          -0.4000    0.7500    0.0000 C.ar    1  LIG1       -0.0161
      6 C          -0.4000   -0.2580    0.0000 C.ar    1  LIG1        0.0511
      7 C          -1.2710   -0.7580    0.0000 C.ar    1  LIG1        0.0042
      8 C          -2.1460   -0.2460    0.0000 C.ar    1  LIG1        0.0001
      9 C          -2.1460    0.7500    0.0000 C.ar    1  LIG1       -0.0003
     10 C          -1.2710    1.2500    0.0000 C.ar    1  LIG1       -0.0041
     11 C           2.1420    0.2580    0.0000 C.3     1  LIG1        0.0221
     12 C           1.3420    1.7630    0.0000 C.3     1  LIG1        0.0221
     13 O           0.4580   -1.7580    0.0000 O.2     1  LIG1       -0.2684
@<TRIPOS>BOND
     1     1     2   am
     2     1     6    1
     3     1    13    2
     4     2     3    1
     5     3     4    1
     6     3    11    1
     7     3    12    1
     8     4     5    1
     9     5     6   ar
    10     5    10   ar
    11     6     7   ar
    12     7     8   ar
    13     8     9   ar
    14     9    10   ar
