@<TRIPOS>MOLECULE
29085_ChemDiv_4410-3608
 33 37 0 0 0
SMALL
GASTEIGER
Energy = 0

@<TRIPOS>ATOM
      1 C          -0.3630    0.7710    0.0000 C.2     1  LIG1        0.0736
      2 C          -1.3290    0.5500    0.0000 C.2     1  LIG1        0.2729
      3 N          -1.8540    1.4210    0.0000 N.am    1  LIG1       -0.1552
      4 N          -1.1880    2.1580    0.0000 N.2     1  LIG1       -0.1755
      5 C          -0.2580    1.7580    0.0000 C.2     1  LIG1        0.0818
      6 C           0.6040    2.2670    0.0000 C.3     1  LIG1        0.0539
      7 C          -2.8330    1.5000    0.0000 C.ar    1  LIG1        0.0771
      8 C          -3.4080    0.7080    0.0000 C.ar    1  LIG1        0.0182
      9 C          -4.3920    0.7920    0.0000 C.ar    1  LIG1        0.0213
     10 C          -4.8000    1.6960    0.0000 C.ar    1  LIG1        0.1251
     11 S          -5.7960    1.7960    0.0000 S.O2    1  LIG1        0.0935
     12 O          -6.1420    0.8750    0.0000 O.2     1  LIG1       -0.1503
     13 O          -5.4380    2.7330    0.0000 O.2     1  LIG1       -0.1503
     14 N          -6.7290    2.1580    0.0000 N.3     1  LIG1        0.0392
     15 C          -4.2250    2.5210    0.0000 C.ar    1  LIG1        0.0213
     16 C          -3.2420    2.4080    0.0000 C.ar    1  LIG1        0.0182
     17 O          -1.7460   -0.3750    0.0000 O.2     1  LIG1       -0.2678
     18 C           0.3830    0.1040    0.0000 C.2     1  LIG1        0.0433
     19 C           1.3040    0.4080    0.0000 C.ar    1  LIG1        0.1456
     20 O           2.0750   -0.1500    0.0000 O.2     1  LIG1       -0.4535
     21 C           2.8630    0.4080    0.0000 C.ar    1  LIG1        0.1453
     22 C           3.7830    0.1040    0.0000 C.ar    1  LIG1        0.0348
     23 C           3.9880   -0.8580    0.0000 C.ar    1  LIG1        0.0093
     24 C           4.8960   -1.1460    0.0000 C.ar    1  LIG1        0.0753
     25 C           5.0830   -2.0880    0.0000 C.2     1  LIG1        0.3413
     26 O           6.0040   -2.3880    0.0000 O.3     1  LIG1       -0.4404
     27 C           6.7290   -1.7420    0.0000 C.3     1  LIG1        0.2356
     28 C           5.6210   -0.5000    0.0000 C.ar    1  LIG1        0.0275
     29 C           5.4000    0.4540    0.0000 C.ar    1  LIG1       -0.0004
     30 C           4.4920    0.7420    0.0000 C.ar    1  LIG1        0.0028
     31 O           4.3580   -2.7290    0.0000 O.2     1  LIG1       -0.2449
     32 C           2.5580    1.3130    0.0000 C.ar    1  LIG1        0.0406
     33 C           1.5920    1.3130    0.0000 C.ar    1  LIG1        0.0406
@<TRIPOS>BOND
     1     1     2    1
     2     1     5    1
     3     1    18    2
     4     2     3   am
     5     2    17    2
     6     3     4    1
     7     3     7    1
     8     4     5    2
     9     5     6    1
    10     7     8   ar
    11     7    16   ar
    12     8     9   ar
    13     9    10   ar
    14    10    11    1
    15    10    15   ar
    16    11    12    2
    17    11    13    2
    18    11    14    1
    19    15    16   ar
    20    18    19    1
    21    19    20   ar
    22    19    33   ar
    23    20    21   ar
    24    21    22    1
    25    21    32   ar
    26    22    23   ar
    27    22    30   ar
    28    23    24   ar
    29    24    25    1
    30    24    28   ar
    31    25    26    1
    32    25    31    2
    33    26    27    1
    34    27    28    1
    35    28    29   ar
    36    29    30   ar
    37    32    33   ar
