@<TRIPOS>MOLECULE
29081_ChemDiv_3697-0124
 32 36 0 0 0
SMALL
GASTEIGER
Energy = 0

@<TRIPOS>ATOM
      1 C          -2.2210    2.0290    0.0000 C.2     1  LIG1        0.0736
      2 C          -1.8170    1.1210    0.0000 C.2     1  LIG1        0.2729
      3 N          -2.5580    0.4540    0.0000 N.am    1  LIG1       -0.1552
      4 N          -3.4170    0.9540    0.0000 N.2     1  LIG1       -0.1755
      5 C          -3.2000    1.9380    0.0000 C.2     1  LIG1        0.0818
      6 C          -3.8830    2.6750    0.0000 C.3     1  LIG1        0.0539
      7 C          -2.4500   -0.5460    0.0000 C.ar    1  LIG1        0.0771
      8 C          -3.2420   -1.1290    0.0000 C.ar    1  LIG1        0.0180
      9 C          -3.1330   -2.1290    0.0000 C.ar    1  LIG1        0.0153
     10 C          -3.9500   -2.7130    0.0000 C.2     1  LIG1        0.0729
     11 O          -3.8420   -3.7080    0.0000 O.co2   1  LIG1       -0.5446
     12 O          -4.8500   -2.3080    0.0000 O.co2   1  LIG1       -0.5446
     13 C          -2.2380   -2.5290    0.0000 C.ar    1  LIG1        0.0012
     14 C          -1.4210   -1.9460    0.0000 C.ar    1  LIG1        0.0014
     15 C          -1.5330   -0.9460    0.0000 C.ar    1  LIG1        0.0168
     16 O          -0.8210    0.9210    0.0000 O.2     1  LIG1       -0.2678
     17 C          -1.7170    2.8960    0.0000 C.2     1  LIG1        0.0433
     18 C          -0.7170    2.9130    0.0000 C.ar    1  LIG1        0.1456
     19 O          -0.1330    2.0960    0.0000 O.2     1  LIG1       -0.4535
     20 C           0.8170    2.4040    0.0000 C.ar    1  LIG1        0.1453
     21 C           0.8170    3.4250    0.0000 C.ar    1  LIG1        0.0406
     22 C          -0.1330    3.7130    0.0000 C.ar    1  LIG1        0.0406
     23 C           1.6290    1.8290    0.0000 C.ar    1  LIG1        0.0344
     24 C           2.5380    2.2460    0.0000 C.ar    1  LIG1        0.0026
     25 C           3.3630    1.6540    0.0000 C.ar    1  LIG1        0.0276
     26 C           3.2540    0.6710    0.0000 C.ar    1  LIG1        0.0752
     27 C           4.1790    0.2710    0.0000 C.2     1  LIG1        0.3413
     28 O           4.8500    1.0040    0.0000 O.3     1  LIG1       -0.4404
     29 C           4.3380    1.8710    0.0000 C.3     1  LIG1        0.2356
     30 O           4.3880   -0.7130    0.0000 O.2     1  LIG1       -0.2449
     31 C           2.3540    0.2460    0.0000 C.ar    1  LIG1        0.0063
     32 C           1.5330    0.8290    0.0000 C.ar    1  LIG1        0.0032
@<TRIPOS>BOND
     1     1     2    1
     2     1     5    1
     3     1    17    2
     4     2     3   am
     5     2    16    2
     6     3     4    1
     7     3     7    1
     8     4     5    2
     9     5     6    1
    10     7     8   ar
    11     7    15   ar
    12     8     9   ar
    13     9    10    1
    14     9    13   ar
    15    10    11   ar
    16    10    12   ar
    17    13    14   ar
    18    14    15   ar
    19    17    18    1
    20    18    19   ar
    21    18    22   ar
    22    19    20   ar
    23    20    21   ar
    24    20    23    1
    25    21    22   ar
    26    23    24   ar
    27    23    32   ar
    28    24    25   ar
    29    25    26   ar
    30    25    29    1
    31    26    27    1
    32    26    31   ar
    33    27    28    1
    34    27    30    2
    35    28    29    1
    36    31    32   ar
