@<TRIPOS>MOLECULE
29094_ChemDiv_3706-1179
 32 35 0 0 0
SMALL
GASTEIGER
Energy = 0

@<TRIPOS>ATOM
      1 S          -1.7420   -1.2420    0.0000 S.O2    1  LIG1        0.0771
      2 N          -1.7290   -0.2420    0.0000 N.pl3   1  LIG1       -0.1783
      3 C          -0.8540    0.2580    0.0000 C.3     1  LIG1        0.2006
      4 C           0.0130   -0.2420    0.0000 C.2     1  LIG1        0.2480
      5 N           0.8750    0.2710    0.0000 N.am    1  LIG1       -0.2737
      6 C           1.7380   -0.2290    0.0000 C.3     1  LIG1        0.1199
      7 C           2.5960    0.2790    0.0000 C.ar    1  LIG1       -0.0062
      8 C           2.6130    1.2880    0.0000 C.ar    1  LIG1       -0.0228
      9 C           1.7250    1.7540    0.0000 C.3     1  LIG1        0.0476
     10 C           0.8630    1.2630    0.0000 C.3     1  LIG1        0.0984
     11 C           3.4580    1.7710    0.0000 C.ar    1  LIG1       -0.0045
     12 C           4.3130    1.2880    0.0000 C.ar    1  LIG1       -0.0003
     13 C           4.3290    0.2790    0.0000 C.ar    1  LIG1       -0.0003
     14 C           3.4670   -0.2130    0.0000 C.ar    1  LIG1       -0.0029
     15 O           0.0080   -1.2420    0.0000 O.2     1  LIG1       -0.2729
     16 C          -2.5960    0.2580    0.0000 C.ar    1  LIG1        0.1032
     17 C          -2.5960    1.2630    0.0000 C.ar    1  LIG1        0.1533
     18 O          -1.7290    1.7540    0.0000 O.3     1  LIG1       -0.4742
     19 C          -1.7290    2.7580    0.0000 C.3     1  LIG1        0.2056
     20 C          -0.8540    3.2460    0.0000 C.3     1  LIG1        0.0512
     21 C          -3.4710    1.7710    0.0000 C.ar    1  LIG1        0.0382
     22 C          -4.3170    1.2630    0.0000 C.ar    1  LIG1        0.0032
     23 C          -4.3170    0.2580    0.0000 C.ar    1  LIG1        0.0015
     24 C          -3.4710   -0.2290    0.0000 C.ar    1  LIG1        0.0192
     25 O          -0.7170   -1.2420    0.0000 O.2     1  LIG1       -0.1497
     26 O          -1.0210   -1.9630    0.0000 O.2     1  LIG1       -0.1497
     27 C          -2.5960   -1.7420    0.0000 C.ar    1  LIG1        0.1254
     28 C          -2.5960   -2.7500    0.0000 C.ar    1  LIG1        0.0202
     29 C          -3.4830   -3.2420    0.0000 C.ar    1  LIG1        0.0014
     30 C          -4.3330   -2.7500    0.0000 C.ar    1  LIG1        0.0001
     31 C          -4.3330   -1.7250    0.0000 C.ar    1  LIG1        0.0014
     32 C          -3.4710   -1.2420    0.0000 C.ar    1  LIG1        0.0202
@<TRIPOS>BOND
     1     1     2    1
     2     1    25    2
     3     1    26    2
     4     1    27    1
     5     2     3    1
     6     2    16    1
     7     3     4    1
     8     4     5   am
     9     4    15    2
    10     5     6    1
    11     5    10    1
    12     6     7    1
    13     7     8   ar
    14     7    14   ar
    15     8     9    1
    16     8    11   ar
    17     9    10    1
    18    11    12   ar
    19    12    13   ar
    20    13    14   ar
    21    16    17   ar
    22    16    24   ar
    23    17    18    1
    24    17    21   ar
    25    18    19    1
    26    19    20    1
    27    21    22   ar
    28    22    23   ar
    29    23    24   ar
    30    27    28   ar
    31    27    32   ar
    32    28    29   ar
    33    29    30   ar
    34    30    31   ar
    35    31    32   ar
