@<TRIPOS>MOLECULE
29096_ChemDiv_3788-1905
 35 38 0 0 0
SMALL
GASTEIGER
Energy = 0

@<TRIPOS>ATOM
      1 S          -1.7500   -1.2670    0.0000 S.O2    1  LIG1        0.0770
      2 N          -1.7500   -0.2830    0.0000 N.pl3   1  LIG1       -0.1813
      3 C          -0.8880    0.2250    0.0000 C.3     1  LIG1        0.2005
      4 C          -0.0210   -0.2830    0.0000 C.2     1  LIG1        0.2478
      5 N           0.8460    0.2250    0.0000 N.am    1  LIG1       -0.2746
      6 C           0.8380    1.2250    0.0000 C.3     1  LIG1        0.1149
      7 C           1.7040    1.7330    0.0000 C.3     1  LIG1        0.1124
      8 N           2.5880    1.2250    0.0000 N.pl3   1  LIG1       -0.3017
      9 C           3.4380    1.7330    0.0000 C.ar    1  LIG1        0.0824
     10 C           4.3210    1.2250    0.0000 C.ar    1  LIG1        0.1519
     11 O           4.3210    0.2250    0.0000 O.3     1  LIG1       -0.4702
     12 C           5.1880   -0.2960    0.0000 C.3     1  LIG1        0.2525
     13 C           5.1880    1.7330    0.0000 C.ar    1  LIG1        0.0382
     14 C           5.1880    2.7170    0.0000 C.ar    1  LIG1        0.0032
     15 C           4.3210    3.2420    0.0000 C.ar    1  LIG1        0.0015
     16 C           3.4380    2.7330    0.0000 C.ar    1  LIG1        0.0176
     17 C           2.5880    0.2250    0.0000 C.3     1  LIG1        0.1124
     18 C           1.7040   -0.2830    0.0000 C.3     1  LIG1        0.1149
     19 O          -0.0210   -1.2670    0.0000 O.2     1  LIG1       -0.2729
     20 C          -2.5960    0.2250    0.0000 C.ar    1  LIG1        0.0694
     21 C          -3.4580   -0.2960    0.0000 C.ar    1  LIG1        0.0167
     22 C          -4.3420    0.2250    0.0000 C.ar    1  LIG1        0.0080
     23 C          -4.3420    1.2130    0.0000 C.ar    1  LIG1        0.0346
     24 C          -3.4580    1.7170    0.0000 C.ar    1  LIG1        0.0080
     25 C          -2.5960    1.2130    0.0000 C.ar    1  LIG1        0.0167
     26 BR         -5.1920    1.7170    0.0000 Br      1  LIG1       -0.0490
     27 C          -2.5960   -1.7630    0.0000 C.ar    1  LIG1        0.1254
     28 C          -2.6130   -2.7540    0.0000 C.ar    1  LIG1        0.0199
     29 C          -3.4830   -3.2380    0.0000 C.ar    1  LIG1       -0.0029
     30 C          -4.3420   -2.7290    0.0000 C.ar    1  LIG1       -0.0218
     31 C          -4.3250   -1.7420    0.0000 C.ar    1  LIG1       -0.0029
     32 C          -3.4580   -1.2460    0.0000 C.ar    1  LIG1        0.0199
     33 C          -5.1920   -3.2130    0.0000 C.3     1  LIG1        0.0310
     34 O          -0.7420   -1.2670    0.0000 O.2     1  LIG1       -0.1497
     35 O          -1.0290   -1.9830    0.0000 O.2     1  LIG1       -0.1497
@<TRIPOS>BOND
     1     1     2    1
     2     1    27    1
     3     1    34    2
     4     1    35    2
     5     2     3    1
     6     2    20    1
     7     3     4    1
     8     4     5   am
     9     4    19    2
    10     5     6    1
    11     5    18    1
    12     6     7    1
    13     7     8    1
    14     8     9    1
    15     8    17    1
    16     9    10   ar
    17     9    16   ar
    18    10    11    1
    19    10    13   ar
    20    11    12    1
    21    13    14   ar
    22    14    15   ar
    23    15    16   ar
    24    17    18    1
    25    20    21   ar
    26    20    25   ar
    27    21    22   ar
    28    22    23   ar
    29    23    24   ar
    30    23    26    1
    31    24    25   ar
    32    27    28   ar
    33    27    32   ar
    34    28    29   ar
    35    29    30   ar
    36    30    31   ar
    37    30    33    1
    38    31    32   ar
