@<TRIPOS>MOLECULE
29100_ChemDiv_3277-0213
 27 31 0 0 0
SMALL
GASTEIGER
Energy = 0

@<TRIPOS>ATOM
      1 C          -0.0710   -0.5170    0.0000 C.ar    1  LIG1        0.2128
      2 N          -0.9750   -0.1170    0.0000 N.ar    1  LIG1       -0.1953
      3 C          -1.6460   -0.8540    0.0000 C.ar    1  LIG1        0.1708
      4 C          -1.1540   -1.7210    0.0000 C.ar    1  LIG1        0.1540
      5 N          -0.1750   -1.5210    0.0000 N.ar    1  LIG1       -0.2851
      6 C           0.7330   -1.9210    0.0000 C.3     1  LIG1        0.1949
      7 C           1.4000   -1.1880    0.0000 C.2     1  LIG1        0.2584
      8 N           0.9130   -0.3170    0.0000 N.am    1  LIG1       -0.2064
      9 C           1.3170    0.6000    0.0000 C.ar    1  LIG1        0.0641
     10 C           2.3130    0.7080    0.0000 C.ar    1  LIG1        0.0553
     11 C           2.7210    1.6210    0.0000 C.ar    1  LIG1        0.1736
     12 C           2.1380    2.4380    0.0000 C.ar    1  LIG1        0.1725
     13 O           2.5540    3.3420    0.0000 O.3     1  LIG1       -0.4684
     14 C           3.5380    3.4460    0.0000 C.3     1  LIG1        0.2526
     15 C           4.1420    2.6380    0.0000 C.3     1  LIG1        0.2526
     16 O           3.7250    1.7080    0.0000 O.3     1  LIG1       -0.4683
     17 C           1.1330    2.3250    0.0000 C.ar    1  LIG1        0.0413
     18 C           0.7330    1.4210    0.0000 C.ar    1  LIG1        0.0186
     19 O           2.4040   -1.3000    0.0000 O.2     1  LIG1       -0.2720
     20 C          -1.6540   -2.5920    0.0000 C.ar    1  LIG1        0.2832
     21 N          -2.6460   -2.5920    0.0000 N.ar    1  LIG1       -0.2454
     22 C          -3.1580   -1.7040    0.0000 C.ar    1  LIG1        0.3350
     23 N          -2.6460   -0.8540    0.0000 N.ar    1  LIG1       -0.2628
     24 C          -3.1420    0.0170    0.0000 C.3     1  LIG1        0.1366
     25 O          -4.1460   -1.7210    0.0000 O.2     1  LIG1       -0.2461
     26 C          -3.1670   -3.4420    0.0000 C.3     1  LIG1        0.1383
     27 O          -1.1630   -3.4420    0.0000 O.2     1  LIG1       -0.2652
@<TRIPOS>BOND
     1     1     2   ar
     2     1     5   ar
     3     1     8    1
     4     2     3   ar
     5     3     4   ar
     6     3    23   ar
     7     4     5   ar
     8     4    20   ar
     9     5     6    1
    10     6     7    1
    11     7     8   am
    12     7    19    2
    13     8     9    1
    14     9    10   ar
    15     9    18   ar
    16    10    11   ar
    17    11    12   ar
    18    11    16    1
    19    12    13    1
    20    12    17   ar
    21    13    14    1
    22    14    15    1
    23    15    16    1
    24    17    18   ar
    25    20    21   ar
    26    20    27    2
    27    21    22   ar
    28    21    26    1
    29    22    23   ar
    30    22    25    2
    31    23    24    1
