@<TRIPOS>MOLECULE
29126_ChemDiv_5069-0082
 15 16 0 0 0
SMALL
GASTEIGER
Energy = 0

@<TRIPOS>ATOM
      1 C           0.4170    0.7460    0.0000 C.ar    1  LIG1        0.1150
      2 N           1.2830    0.2580    0.0000 N.ar    1  LIG1       -0.1656
      3 N           1.2830   -0.7420    0.0000 N.ar    1  LIG1       -0.2146
      4 C           0.4290   -1.2540    0.0000 C.ar    1  LIG1        0.2764
      5 C          -0.4380   -0.7580    0.0000 C.ar    1  LIG1        0.0591
      6 C          -0.4380    0.2420    0.0000 C.ar    1  LIG1        0.0251
      7 C          -1.3210    0.7460    0.0000 C.ar    1  LIG1        0.0017
      8 C          -2.1710    0.2420    0.0000 C.ar    1  LIG1        0.0001
      9 C          -2.1710   -0.7580    0.0000 C.ar    1  LIG1        0.0002
     10 C          -1.3210   -1.2710    0.0000 C.ar    1  LIG1        0.0048
     11 O           0.4290   -2.2540    0.0000 O.2     1  LIG1       -0.2655
     12 C           2.1670   -1.2420    0.0000 C.3     1  LIG1        0.1571
     13 C           0.4170    1.7460    0.0000 C.2     1  LIG1        0.0922
     14 O          -0.4540    2.2420    0.0000 O.co2   1  LIG1       -0.5430
     15 O           1.2670    2.2580    0.0000 O.co2   1  LIG1       -0.5430
@<TRIPOS>BOND
     1     1     2   ar
     2     1     6   ar
     3     1    13    1
     4     2     3   ar
     5     3     4   ar
     6     3    12    1
     7     4     5   ar
     8     4    11    2
     9     5     6   ar
    10     5    10   ar
    11     6     7   ar
    12     7     8   ar
    13     8     9   ar
    14     9    10   ar
    15    13    14   ar
    16    13    15   ar
