@<TRIPOS>MOLECULE
29124_ChemDiv_3281-0548
 18 19 0 0 0
SMALL
GASTEIGER
Energy = 0

@<TRIPOS>ATOM
      1 N           0.4210   -0.5000    0.0000 N.ar    1  LIG1       -0.1488
      2 C          -0.4330   -0.0130    0.0000 C.ar    1  LIG1        0.0900
      3 C          -1.2920   -0.5000    0.0000 C.ar    1  LIG1        0.0205
      4 C          -1.2920   -1.5210    0.0000 C.ar    1  LIG1        0.0605
      5 C          -0.4330   -2.0250    0.0000 C.ar    1  LIG1        0.2967
      6 N           0.4210   -1.5210    0.0000 N.ar    1  LIG1       -0.1058
      7 O          -0.4330   -3.0250    0.0000 O.2     1  LIG1       -0.2636
      8 C          -2.1500   -2.0250    0.0000 C.ar    1  LIG1        0.0049
      9 C          -3.0080   -1.5210    0.0000 C.ar    1  LIG1        0.0002
     10 C          -3.0080   -0.5000    0.0000 C.ar    1  LIG1        0.0000
     11 C          -2.1500   -0.0130    0.0000 C.ar    1  LIG1        0.0014
     12 C          -0.4330    1.0000    0.0000 C.3     1  LIG1        0.1342
     13 C           0.4210    1.4880    0.0000 C.2     1  LIG1        0.2476
     14 O           0.4210    2.5040    0.0000 O.2     1  LIG1       -0.2729
     15 N           1.2880    1.0000    0.0000 N.am    1  LIG1       -0.2023
     16 C           2.1290    1.4880    0.0000 C.3     1  LIG1        0.1506
     17 C           2.1290    2.5040    0.0000 C.3     1  LIG1        0.2054
     18 O           3.0040    3.0290    0.0000 O.3     1  LIG1       -0.2184
@<TRIPOS>BOND
     1     1     2   ar
     2     1     6   ar
     3     2     3   ar
     4     2    12    1
     5     3     4   ar
     6     3    11   ar
     7     4     5   ar
     8     4     8   ar
     9     5     6   ar
    10     5     7    2
    11     8     9   ar
    12     9    10   ar
    13    10    11   ar
    14    12    13    1
    15    13    14    2
    16    13    15   am
    17    15    16    1
    18    16    17    1
    19    17    18    1
