@<TRIPOS>MOLECULE
29128_ChemDiv_8015-6484
 16 17 0 0 0
SMALL
GASTEIGER
Energy = 0

@<TRIPOS>ATOM
      1 C          -0.0040    0.7460    0.0000 C.ar    1  LIG1        0.1578
      2 N           0.8630    0.2540    0.0000 N.ar    1  LIG1       -0.1403
      3 N           0.8630   -0.7420    0.0000 N.ar    1  LIG1       -0.1054
      4 C          -0.0040   -1.2500    0.0000 C.ar    1  LIG1        0.2967
      5 C          -0.8670   -0.7420    0.0000 C.ar    1  LIG1        0.0610
      6 C          -0.8670    0.2540    0.0000 C.ar    1  LIG1        0.0286
      7 C          -1.7330    0.7460    0.0000 C.ar    1  LIG1        0.0019
      8 C          -2.5960    0.2540    0.0000 C.ar    1  LIG1        0.0001
      9 C          -2.5960   -0.7420    0.0000 C.ar    1  LIG1        0.0002
     10 C          -1.7330   -1.2500    0.0000 C.ar    1  LIG1        0.0049
     11 O          -0.0040   -2.2500    0.0000 O.2     1  LIG1       -0.2636
     12 C          -0.0040    1.7540    0.0000 C.2     1  LIG1        0.2843
     13 O          -0.8670    2.2540    0.0000 O.2     1  LIG1       -0.2666
     14 N           0.8630    2.2540    0.0000 N.am    1  LIG1       -0.2003
     15 C           1.7290    1.7540    0.0000 C.3     1  LIG1        0.1156
     16 C           2.5920    2.2540    0.0000 C.3     1  LIG1        0.0253
@<TRIPOS>BOND
     1     1     2   ar
     2     1     6   ar
     3     1    12    1
     4     2     3   ar
     5     3     4   ar
     6     4     5   ar
     7     4    11    2
     8     5     6   ar
     9     5    10   ar
    10     6     7   ar
    11     7     8   ar
    12     8     9   ar
    13     9    10   ar
    14    12    13    2
    15    12    14   am
    16    14    15    1
    17    15    16    1
