@<TRIPOS>MOLECULE
29134_ChemDiv_8016-9959
 24 26 0 0 0
SMALL
GASTEIGER
Energy = 0

@<TRIPOS>ATOM
      1 C           1.7170   -0.7540    0.0000 C.ar    1  LIG1        0.1559
      2 N           2.5920   -1.2580    0.0000 N.ar    1  LIG1       -0.1621
      3 N           2.5920   -2.2710    0.0000 N.ar    1  LIG1       -0.2145
      4 C           1.7170   -2.7710    0.0000 C.ar    1  LIG1        0.2764
      5 C           0.8500   -2.2670    0.0000 C.ar    1  LIG1        0.0592
      6 C           0.8540   -1.2580    0.0000 C.ar    1  LIG1        0.0285
      7 C          -0.0130   -0.7670    0.0000 C.ar    1  LIG1        0.0019
      8 C          -0.8750   -1.2670    0.0000 C.ar    1  LIG1        0.0001
      9 C          -0.8750   -2.2670    0.0000 C.ar    1  LIG1        0.0002
     10 C          -0.0080   -2.7670    0.0000 C.ar    1  LIG1        0.0048
     11 O           1.7040   -3.7580    0.0000 O.2     1  LIG1       -0.2655
     12 C           3.4540   -2.7710    0.0000 C.3     1  LIG1        0.1571
     13 C           1.7170    0.2460    0.0000 C.2     1  LIG1        0.2843
     14 O           2.5790    0.7460    0.0000 O.2     1  LIG1       -0.2666
     15 N           0.8540    0.7460    0.0000 N.am    1  LIG1       -0.1963
     16 C           0.8630    1.7540    0.0000 C.3     1  LIG1        0.1627
     17 C          -0.0080    2.2460    0.0000 C.3     1  LIG1        0.2287
     18 O          -0.8750    1.7540    0.0000 O.3     1  LIG1       -0.4735
     19 C          -1.7380    2.2630    0.0000 C.ar    1  LIG1        0.1386
     20 C          -1.7330    3.2630    0.0000 C.ar    1  LIG1        0.0369
     21 C          -2.5880    3.7630    0.0000 C.ar    1  LIG1        0.0031
     22 C          -3.4580    3.2670    0.0000 C.ar    1  LIG1        0.0002
     23 C          -3.4580    2.2670    0.0000 C.ar    1  LIG1        0.0031
     24 C          -2.6000    1.7670    0.0000 C.ar    1  LIG1        0.0369
@<TRIPOS>BOND
     1     1     2   ar
     2     1     6   ar
     3     1    13    1
     4     2     3   ar
     5     3     4   ar
     6     3    12    1
     7     4     5   ar
     8     4    11    2
     9     5     6   ar
    10     5    10   ar
    11     6     7   ar
    12     7     8   ar
    13     8     9   ar
    14     9    10   ar
    15    13    14    2
    16    13    15   am
    17    15    16    1
    18    16    17    1
    19    17    18    1
    20    18    19    1
    21    19    20   ar
    22    19    24   ar
    23    20    21   ar
    24    21    22   ar
    25    22    23   ar
    26    23    24   ar
