@<TRIPOS>MOLECULE
29130_ChemDiv_8015-7468
 18 20 0 0 0
SMALL
GASTEIGER
Energy = 0

@<TRIPOS>ATOM
      1 C          -0.0670    0.7540    0.0000 C.ar    1  LIG1        0.1559
      2 N           0.7920    0.2540    0.0000 N.ar    1  LIG1       -0.1621
      3 N           0.7920   -0.7420    0.0000 N.ar    1  LIG1       -0.2145
      4 C          -0.0670   -1.2420    0.0000 C.ar    1  LIG1        0.2764
      5 C          -0.9290   -0.7420    0.0000 C.ar    1  LIG1        0.0592
      6 C          -0.9290    0.2540    0.0000 C.ar    1  LIG1        0.0285
      7 C          -1.7960    0.7540    0.0000 C.ar    1  LIG1        0.0019
      8 C          -2.6670    0.2540    0.0000 C.ar    1  LIG1        0.0001
      9 C          -2.6670   -0.7420    0.0000 C.ar    1  LIG1        0.0002
     10 C          -1.7960   -1.2420    0.0000 C.ar    1  LIG1        0.0048
     11 O          -0.0670   -2.2500    0.0000 O.2     1  LIG1       -0.2655
     12 C           1.6630   -1.2420    0.0000 C.3     1  LIG1        0.1571
     13 C          -0.0670    1.7540    0.0000 C.2     1  LIG1        0.2842
     14 N           0.7920    2.2540    0.0000 N.am    1  LIG1       -0.2021
     15 C           1.6630    1.7540    0.0000 C.3     1  LIG1        0.0958
     16 C           2.6630    1.7540    0.0000 C.3     1  LIG1        0.0234
     17 C           2.1630    0.8830    0.0000 C.3     1  LIG1        0.0234
     18 O          -0.9290    2.2540    0.0000 O.2     1  LIG1       -0.2666
@<TRIPOS>BOND
     1     1     2   ar
     2     1     6   ar
     3     1    13    1
     4     2     3   ar
     5     3     4   ar
     6     3    12    1
     7     4     5   ar
     8     4    11    2
     9     5     6   ar
    10     5    10   ar
    11     6     7   ar
    12     7     8   ar
    13     8     9   ar
    14     9    10   ar
    15    13    14   am
    16    13    18    2
    17    14    15    1
    18    15    16    1
    19    15    17    1
    20    16    17    1
