@<TRIPOS>MOLECULE
29135_ChemDiv_3089-0834
 15 16 0 0 0
SMALL
GASTEIGER
Energy = 0

@<TRIPOS>ATOM
      1 C           1.3080    0.5000    0.0000 C.ar    1  LIG1        0.1259
      2 C           1.3080   -0.5080    0.0000 C.ar    1  LIG1        0.2885
      3 N           0.4500   -1.0040    0.0000 N.ar    1  LIG1       -0.2118
      4 C          -0.4250   -0.5080    0.0000 C.ar    1  LIG1        0.0630
      5 C          -0.4250    0.5000    0.0000 C.ar    1  LIG1        0.0218
      6 C           0.4500    1.0000    0.0000 C.ar    1  LIG1        0.0145
      7 C          -1.2880    1.0000    0.0000 C.3     1  LIG1        0.1696
      8 O          -2.1670    0.4880    0.0000 O.3     1  LIG1       -0.3533
      9 C          -2.1580   -0.5080    0.0000 C.3     1  LIG1        0.0989
     10 C          -1.2880   -1.0040    0.0000 C.3     1  LIG1        0.0728
     11 C          -3.0290   -0.0290    0.0000 C.3     1  LIG1        0.0300
     12 C          -2.1580   -1.5000    0.0000 C.3     1  LIG1        0.0300
     13 O           2.1790   -1.0040    0.0000 O.2     1  LIG1       -0.2645
     14 C           2.1710    1.0040    0.0000 C.1     1  LIG1        0.1053
     15 N           3.0250    1.5040    0.0000 N.1     1  LIG1       -0.1907
@<TRIPOS>BOND
     1     1     2   ar
     2     1     6   ar
     3     1    14    1
     4     2     3   ar
     5     2    13    2
     6     3     4   ar
     7     4     5   ar
     8     4    10    1
     9     5     6   ar
    10     5     7    1
    11     7     8    1
    12     8     9    1
    13     9    10    1
    14     9    11    1
    15     9    12    1
    16    14    15    3
