@<TRIPOS>MOLECULE
29136_ChemDiv_3281-0829
 18 19 0 0 0
SMALL
GASTEIGER
Energy = 0

@<TRIPOS>ATOM
      1 N           0.0250   -0.5000    0.0000 N.ar    1  LIG1       -0.2075
      2 N           0.0250    0.5040    0.0000 N.ar    1  LIG1       -0.1708
      3 C          -0.8500    1.0170    0.0000 C.ar    1  LIG1        0.0792
      4 C          -1.7210    0.5040    0.0000 C.ar    1  LIG1        0.0199
      5 C          -1.7210   -0.5000    0.0000 C.ar    1  LIG1        0.0588
      6 C          -0.8500   -1.0130    0.0000 C.ar    1  LIG1        0.2768
      7 O          -0.8500   -2.0080    0.0000 O.2     1  LIG1       -0.2655
      8 C          -2.5960   -1.0130    0.0000 C.ar    1  LIG1        0.0048
      9 C          -3.4580   -0.5000    0.0000 C.ar    1  LIG1        0.0002
     10 C          -3.4580    0.5040    0.0000 C.ar    1  LIG1        0.0000
     11 C          -2.5960    1.0170    0.0000 C.ar    1  LIG1        0.0014
     12 C          -0.8500    2.0130    0.0000 C.3     1  LIG1        0.0539
     13 C           0.8960   -0.9830    0.0000 C.3     1  LIG1        0.2153
     14 C           1.7380   -0.4830    0.0000 C.2     1  LIG1        0.2507
     15 N           2.6080   -0.9710    0.0000 N.am    1  LIG1       -0.2744
     16 C           3.4540   -0.4710    0.0000 C.3     1  LIG1        0.1150
     17 C           2.6210   -1.9540    0.0000 C.3     1  LIG1        0.1150
     18 O           1.7130    0.4880    0.0000 O.2     1  LIG1       -0.2727
@<TRIPOS>BOND
     1     1     2   ar
     2     1     6   ar
     3     1    13    1
     4     2     3   ar
     5     3     4   ar
     6     3    12    1
     7     4     5   ar
     8     4    11   ar
     9     5     6   ar
    10     5     8   ar
    11     6     7    2
    12     8     9   ar
    13     9    10   ar
    14    10    11   ar
    15    13    14    1
    16    14    15   am
    17    14    18    2
    18    15    16    1
    19    15    17    1
