@<TRIPOS>MOLECULE
29132_ChemDiv_8016-2032
 18 19 0 0 0
SMALL
GASTEIGER
Energy = 0

@<TRIPOS>ATOM
      1 C           0.0000    0.0000    0.0000 C.ar    1  LIG1        0.1564
      2 N           0.8670   -0.5040    0.0000 N.ar    1  LIG1       -0.1403
      3 N           0.8670   -1.4960    0.0000 N.ar    1  LIG1       -0.1054
      4 C           0.0000   -1.9960    0.0000 C.ar    1  LIG1        0.2967
      5 C          -0.8710   -1.4960    0.0000 C.ar    1  LIG1        0.0610
      6 C          -0.8710   -0.5040    0.0000 C.ar    1  LIG1        0.0286
      7 C          -1.7330    0.0000    0.0000 C.ar    1  LIG1        0.0019
      8 C          -2.6000   -0.5040    0.0000 C.ar    1  LIG1        0.0001
      9 C          -2.6000   -1.4960    0.0000 C.ar    1  LIG1        0.0002
     10 C          -1.7330   -1.9960    0.0000 C.ar    1  LIG1        0.0049
     11 O           0.0000   -3.0040    0.0000 O.2     1  LIG1       -0.2636
     12 C           0.0000    1.0000    0.0000 C.2     1  LIG1        0.2685
     13 N           0.8670    1.5000    0.0000 N.am    1  LIG1       -0.2748
     14 C           1.7330    1.0000    0.0000 C.3     1  LIG1        0.0938
     15 C           2.5960    1.5000    0.0000 C.3     1  LIG1        0.0233
     16 C           0.8670    2.5000    0.0000 C.3     1  LIG1        0.0938
     17 C           1.7330    3.0080    0.0000 C.3     1  LIG1        0.0233
     18 O          -0.8710    1.5000    0.0000 O.2     1  LIG1       -0.2682
@<TRIPOS>BOND
     1     1     2   ar
     2     1     6   ar
     3     1    12    1
     4     2     3   ar
     5     3     4   ar
     6     4     5   ar
     7     4    11    2
     8     5     6   ar
     9     5    10   ar
    10     6     7   ar
    11     7     8   ar
    12     8     9   ar
    13     9    10   ar
    14    12    13   am
    15    12    18    2
    16    13    14    1
    17    13    16    1
    18    14    15    1
    19    16    17    1
