@<TRIPOS>MOLECULE
29148_ChemDiv_5450-0173
 22 25 0 0 0
SMALL
GASTEIGER
Energy = 0

@<TRIPOS>ATOM
      1 N          -1.0830    0.3750    0.0000 N.am    1  LIG1       -0.1963
      2 C          -0.1500    0.3750    0.0000 C.3     1  LIG1        0.2043
      3 N           0.6170    0.9250    0.0000 N.am    1  LIG1       -0.1963
      4 C           1.3750    0.3750    0.0000 C.2     1  LIG1        0.3179
      5 N           1.0830   -0.5130    0.0000 N.am    1  LIG1       -0.1963
      6 C           0.1420   -0.5130    0.0000 C.3     1  LIG1        0.2043
      7 N          -0.6170   -1.0540    0.0000 N.am    1  LIG1       -0.1963
      8 C          -1.3710   -0.5130    0.0000 C.2     1  LIG1        0.3179
      9 O          -2.2580   -0.8130    0.0000 O.2     1  LIG1       -0.2519
     10 C          -0.6170   -1.9920    0.0000 C.3     1  LIG1        0.2501
     11 N           0.8420   -2.1580    0.0000 N.4     1  LIG1        0.4118
     12 C           1.6290   -1.2790    0.0000 C.3     1  LIG1        0.2501
     13 C           1.1670   -3.0290    0.0000 C.3     1  LIG1        0.1797
     14 C           0.5830   -3.7540    0.0000 C.3     1  LIG1        0.2444
     15 O           0.9080   -4.6250    0.0000 O.3     1  LIG1       -0.2137
     16 O           2.2540    0.6580    0.0000 O.2     1  LIG1       -0.2519
     17 C           0.6170    1.8630    0.0000 C.3     1  LIG1        0.2501
     18 N          -0.6880    2.1580    0.0000 N.4     1  LIG1        0.4118
     19 C          -1.6380    1.1330    0.0000 C.3     1  LIG1        0.2501
     20 C          -0.9580    3.0500    0.0000 C.3     1  LIG1        0.1797
     21 C          -0.3330    3.7330    0.0000 C.3     1  LIG1        0.2444
     22 O          -0.6040    4.6250    0.0000 O.3     1  LIG1       -0.2137
@<TRIPOS>BOND
     1     1     2    1
     2     1     8   am
     3     1    19    1
     4     2     3    1
     5     2     6    1
     6     3     4   am
     7     3    17    1
     8     4     5   am
     9     4    16    2
    10     5     6    1
    11     5    12    1
    12     6     7    1
    13     7     8   am
    14     7    10    1
    15     8     9    2
    16    10    11    1
    17    11    12    1
    18    11    13    1
    19    13    14    1
    20    14    15    1
    21    17    18    1
    22    18    19    1
    23    18    20    1
    24    20    21    1
    25    21    22    1
