@<TRIPOS>MOLECULE
29146_ChemDiv_5151-0604
 19 19 0 0 0
SMALL
GASTEIGER
Energy = 0

@<TRIPOS>ATOM
      1 N           0.6580   -0.7250    0.0000 N.am    1  LIG1       -0.1609
      2 C           0.2580   -1.6540    0.0000 C.2     1  LIG1        0.3336
      3 N           0.9830   -2.3210    0.0000 N.am    1  LIG1       -0.1826
      4 C           1.8330   -1.8130    0.0000 C.3     1  LIG1        0.1491
      5 C           1.6500   -0.8790    0.0000 C.2     1  LIG1        0.2545
      6 O           2.3630   -0.1210    0.0000 O.2     1  LIG1       -0.2725
      7 C           2.3460   -2.7080    0.0000 C.3     1  LIG1        0.0311
      8 C           2.8080   -1.5460    0.0000 C.3     1  LIG1        0.0311
      9 O          -0.7420   -1.8500    0.0000 O.2     1  LIG1       -0.2502
     10 C           0.1750    0.1170    0.0000 C.3     1  LIG1        0.2525
     11 N          -0.8250    0.1170    0.0000 N.4     1  LIG1        0.3938
     12 C          -1.3500   -0.7460    0.0000 C.3     1  LIG1        0.1408
     13 C          -2.3210   -0.7500    0.0000 C.3     1  LIG1        0.0571
     14 C          -2.8130   -1.6420    0.0000 C.3     1  LIG1        0.0061
     15 C          -2.8130    0.1000    0.0000 C.3     1  LIG1        0.0061
     16 C          -1.3290    0.9630    0.0000 C.3     1  LIG1        0.1408
     17 C          -0.8420    1.8710    0.0000 C.3     1  LIG1        0.0571
     18 C          -1.3500    2.7130    0.0000 C.3     1  LIG1        0.0061
     19 C           0.1630    1.9000    0.0000 C.3     1  LIG1        0.0061
@<TRIPOS>BOND
     1     1     2   am
     2     1     5   am
     3     1    10    1
     4     2     3   am
     5     2     9    2
     6     3     4    1
     7     4     5    1
     8     4     7    1
     9     4     8    1
    10     5     6    2
    11    10    11    1
    12    11    12    1
    13    11    16    1
    14    12    13    1
    15    13    14    1
    16    13    15    1
    17    16    17    1
    18    17    18    1
    19    17    19    1
