@<TRIPOS>MOLECULE
29140_ChemDiv_4177-0020
 22 23 0 0 0
SMALL
GASTEIGER
Energy = 0

@<TRIPOS>ATOM
      1 N          -0.9460   -0.7960    0.0000 N.am    1  LIG1       -0.1943
      2 C          -1.5670   -0.0330    0.0000 C.2     1  LIG1        0.3213
      3 N          -0.9790    0.8080    0.0000 N.am    1  LIG1       -0.1943
      4 C          -0.0080    0.5000    0.0000 C.3     1  LIG1        0.2081
      5 N           0.9210    0.8170    0.0000 N.am    1  LIG1       -0.1943
      6 C           1.5460   -0.0080    0.0000 C.2     1  LIG1        0.3213
      7 N           0.9670   -0.8250    0.0000 N.am    1  LIG1       -0.1943
      8 C          -0.0080   -0.5210    0.0000 C.3     1  LIG1        0.2081
      9 C           1.3080   -1.7630    0.0000 C.2     1  LIG1        0.2343
     10 O           2.3080   -2.0540    0.0000 O.2     1  LIG1       -0.2744
     11 C           0.6880   -2.4710    0.0000 C.3     1  LIG1        0.0953
     12 O           2.5710   -0.0080    0.0000 O.2     1  LIG1       -0.2514
     13 C           1.1750    1.7710    0.0000 C.2     1  LIG1        0.2343
     14 O           0.5290    2.5830    0.0000 O.2     1  LIG1       -0.2744
     15 C           2.0880    1.9880    0.0000 C.3     1  LIG1        0.0953
     16 C          -1.2750    1.7540    0.0000 C.2     1  LIG1        0.2343
     17 O          -2.2630    2.0830    0.0000 O.2     1  LIG1       -0.2744
     18 C          -0.6250    2.4380    0.0000 C.3     1  LIG1        0.0953
     19 O          -2.5750   -0.0330    0.0000 O.2     1  LIG1       -0.2514
     20 C          -1.2290   -1.7500    0.0000 C.2     1  LIG1        0.2343
     21 O          -0.6080   -2.5790    0.0000 O.2     1  LIG1       -0.2744
     22 C          -2.1670   -1.9460    0.0000 C.3     1  LIG1        0.0953
@<TRIPOS>BOND
     1     1     2   am
     2     1     8    1
     3     1    20   am
     4     2     3   am
     5     2    19    2
     6     3     4    1
     7     3    16   am
     8     4     5    1
     9     4     8    1
    10     5     6   am
    11     5    13   am
    12     6     7   am
    13     6    12    2
    14     7     8    1
    15     7     9   am
    16     9    10    2
    17     9    11    1
    18    13    14    2
    19    13    15    1
    20    16    17    2
    21    16    18    1
    22    20    21    2
    23    20    22    1
