@<TRIPOS>MOLECULE
29153_ChemDiv_3281-0851
 26 28 0 0 0
SMALL
GASTEIGER
Energy = 0

@<TRIPOS>ATOM
      1 N          -1.7170   -0.5000    0.0000 N.ar    1  LIG1       -0.2074
      2 N          -1.7170    0.5000    0.0000 N.ar    1  LIG1       -0.1708
      3 C          -2.5920    1.0170    0.0000 C.ar    1  LIG1        0.0792
      4 C          -3.4460    0.5170    0.0000 C.ar    1  LIG1        0.0199
      5 C          -3.4460   -0.5000    0.0000 C.ar    1  LIG1        0.0588
      6 C          -2.5920   -1.0000    0.0000 C.ar    1  LIG1        0.2768
      7 O          -2.5920   -2.0040    0.0000 O.2     1  LIG1       -0.2655
      8 C          -4.3210   -1.0000    0.0000 C.ar    1  LIG1        0.0048
      9 C          -5.1960   -0.5000    0.0000 C.ar    1  LIG1        0.0002
     10 C          -5.1960    0.5000    0.0000 C.ar    1  LIG1        0.0000
     11 C          -4.3210    1.0170    0.0000 C.ar    1  LIG1        0.0014
     12 C          -2.5920    2.0080    0.0000 C.3     1  LIG1        0.0539
     13 C          -0.8250   -0.9790    0.0000 C.3     1  LIG1        0.2172
     14 C           0.0420   -0.4500    0.0000 C.2     1  LIG1        0.2705
     15 N           0.9000   -0.9500    0.0000 N.am    1  LIG1       -0.1775
     16 C           1.7540   -0.4630    0.0000 C.ar    1  LIG1        0.0735
     17 C           1.7670    0.5250    0.0000 C.ar    1  LIG1        0.0180
     18 C           2.6130    1.0290    0.0000 C.ar    1  LIG1        0.0213
     19 C           3.4920    0.5540    0.0000 C.ar    1  LIG1        0.1251
     20 S           4.3540    1.0540    0.0000 S.O2    1  LIG1        0.0935
     21 O           3.8500    1.9210    0.0000 O.2     1  LIG1       -0.1503
     22 O           4.8540    0.1830    0.0000 O.2     1  LIG1       -0.1503
     23 N           5.1920    1.5420    0.0000 N.3     1  LIG1        0.0392
     24 C           3.4790   -0.4500    0.0000 C.ar    1  LIG1        0.0213
     25 C           2.6290   -0.9460    0.0000 C.ar    1  LIG1        0.0180
     26 O           0.0130    0.5580    0.0000 O.2     1  LIG1       -0.2708
@<TRIPOS>BOND
     1     1     2   ar
     2     1     6   ar
     3     1    13    1
     4     2     3   ar
     5     3     4   ar
     6     3    12    1
     7     4     5   ar
     8     4    11   ar
     9     5     6   ar
    10     5     8   ar
    11     6     7    2
    12     8     9   ar
    13     9    10   ar
    14    10    11   ar
    15    13    14    1
    16    14    15   am
    17    14    26    2
    18    15    16    1
    19    16    17   ar
    20    16    25   ar
    21    17    18   ar
    22    18    19   ar
    23    19    20    1
    24    19    24   ar
    25    20    21    2
    26    20    22    2
    27    20    23    1
    28    24    25   ar
