@<TRIPOS>MOLECULE
29165_ChemDiv_3289-8921
 28 32 0 0 0
SMALL
GASTEIGER
Energy = 0

@<TRIPOS>ATOM
      1 N           1.9170   -1.5960    0.0000 N.am    1  LIG1       -0.2245
      2 C           0.9040   -1.5500    0.0000 C.2     1  LIG1        0.2550
      3 C           0.6330   -0.5710    0.0000 C.ar    1  LIG1        0.0585
      4 C           1.4580   -0.0250    0.0000 C.ar    1  LIG1        0.0584
      5 C           2.2630   -0.6460    0.0000 C.2     1  LIG1        0.2550
      6 O           3.2170   -0.3880    0.0000 O.2     1  LIG1       -0.2695
      7 C           1.3830    0.9830    0.0000 C.ar    1  LIG1        0.0048
      8 C           0.4830    1.4130    0.0000 C.ar    1  LIG1        0.0048
      9 C          -0.3330    0.8540    0.0000 C.ar    1  LIG1        0.0538
     10 C          -1.2250    1.2880    0.0000 C.ar    1  LIG1        0.2330
     11 N          -1.3000    2.3000    0.0000 N.ar    1  LIG1       -0.2111
     12 C          -2.2080    2.7250    0.0000 C.ar    1  LIG1        0.0906
     13 C          -3.0380    2.1630    0.0000 C.ar    1  LIG1        0.0938
     14 C          -2.9630    1.1670    0.0000 C.ar    1  LIG1        0.3484
     15 O          -2.0630    0.7290    0.0000 O.2     1  LIG1       -0.4029
     16 O          -3.7920    0.6080    0.0000 O.2     1  LIG1       -0.2444
     17 C          -3.9290    2.6000    0.0000 C.ar    1  LIG1        0.0080
     18 C          -4.0040    3.5960    0.0000 C.ar    1  LIG1        0.0003
     19 C          -3.1790    4.1540    0.0000 C.ar    1  LIG1        0.0016
     20 C          -2.2830    3.7250    0.0000 C.ar    1  LIG1        0.0194
     21 C          -0.2630   -0.1460    0.0000 C.ar    1  LIG1        0.0093
     22 O           0.2830   -2.3250    0.0000 O.2     1  LIG1       -0.2695
     23 C           2.4580   -2.4250    0.0000 C.3     1  LIG1        0.0830
     24 C           2.0080   -3.3210    0.0000 C.3     1  LIG1        0.0203
     25 C           2.5500   -4.1540    0.0000 C.3     1  LIG1        0.0017
     26 C           3.5500   -4.0920    0.0000 C.3     1  LIG1        0.0001
     27 C           4.0000   -3.2000    0.0000 C.3     1  LIG1        0.0017
     28 C           3.4540   -2.3710    0.0000 C.3     1  LIG1        0.0203
@<TRIPOS>BOND
     1     1     2   am
     2     1     5   am
     3     1    23    1
     4     2     3    1
     5     2    22    2
     6     3     4   ar
     7     3    21   ar
     8     4     5    1
     9     4     7   ar
    10     5     6    2
    11     7     8   ar
    12     8     9   ar
    13     9    10    1
    14     9    21   ar
    15    10    11   ar
    16    10    15   ar
    17    11    12   ar
    18    12    13   ar
    19    12    20   ar
    20    13    14   ar
    21    13    17   ar
    22    14    15   ar
    23    14    16    2
    24    17    18   ar
    25    18    19   ar
    26    19    20   ar
    27    23    24    1
    28    23    28    1
    29    24    25    1
    30    25    26    1
    31    26    27    1
    32    27    28    1
