@<TRIPOS>MOLECULE
29167_ChemDiv_3297-0753
 23 25 0 0 0
SMALL
GASTEIGER
Energy = 0

@<TRIPOS>ATOM
      1 C           1.3540    1.2750    0.0000 C.2     1  LIG1        0.2863
      2 N           2.2460    0.7790    0.0000 N.am    1  LIG1       -0.1940
      3 C           3.1000    0.2790    0.0000 C.3     1  LIG1        0.1792
      4 C           3.9670    0.7880    0.0000 C.ar    1  LIG1        0.1449
      5 O           4.8790    0.3960    0.0000 O.2     1  LIG1       -0.4529
      6 C           5.5460    1.1290    0.0000 C.ar    1  LIG1        0.1792
      7 C           5.0460    2.0040    0.0000 C.ar    1  LIG1        0.0435
      8 C           4.0670    1.7920    0.0000 C.ar    1  LIG1        0.0380
      9 O           1.3540    2.2630    0.0000 O.2     1  LIG1       -0.2693
     10 C           0.4920    0.7630    0.0000 C.3     1  LIG1        0.2911
     11 O          -0.3630    1.2630    0.0000 O.3     1  LIG1       -0.4656
     12 C          -1.2290    0.7630    0.0000 C.ar    1  LIG1        0.1393
     13 C          -1.2290   -0.2420    0.0000 C.ar    1  LIG1        0.0369
     14 C          -2.1040   -0.7540    0.0000 C.ar    1  LIG1        0.0031
     15 C          -2.9710   -0.2420    0.0000 C.ar    1  LIG1        0.0002
     16 C          -3.8210   -0.7540    0.0000 C.ar    1  LIG1        0.0000
     17 C          -4.6750   -0.2540    0.0000 C.ar    1  LIG1        0.0000
     18 C          -5.5500   -0.7540    0.0000 C.ar    1  LIG1        0.0000
     19 C          -5.5500   -1.7460    0.0000 C.ar    1  LIG1        0.0000
     20 C          -4.6750   -2.2580    0.0000 C.ar    1  LIG1        0.0000
     21 C          -3.8210   -1.7460    0.0000 C.ar    1  LIG1        0.0000
     22 C          -2.9710    0.7580    0.0000 C.ar    1  LIG1        0.0031
     23 C          -2.1210    1.2500    0.0000 C.ar    1  LIG1        0.0369
@<TRIPOS>BOND
     1     1     2   am
     2     1     9    2
     3     1    10    1
     4     2     3    1
     5     3     4    1
     6     4     5   ar
     7     4     8   ar
     8     5     6   ar
     9     6     7   ar
    10     7     8   ar
    11    10    11    1
    12    11    12    1
    13    12    13   ar
    14    12    23   ar
    15    13    14   ar
    16    14    15   ar
    17    15    16    1
    18    15    22   ar
    19    16    17   ar
    20    16    21   ar
    21    17    18   ar
    22    18    19   ar
    23    19    20   ar
    24    20    21   ar
    25    22    23   ar
