@<TRIPOS>MOLECULE
29203_ChemDiv_3343-3099
 24 26 0 0 0
SMALL
GASTEIGER
Energy = 0

@<TRIPOS>ATOM
      1 N           3.4880    0.0080    0.0000 N.4     1  LIG1        0.3793
      2 C           2.4880    0.0080    0.0000 C.3     1  LIG1        0.1758
      3 C           1.9960    0.8830    0.0000 C.3     1  LIG1        0.2514
      4 C           0.9710    0.8830    0.0000 C.3     1  LIG1        0.2443
      5 O           0.4790    0.0330    0.0000 O.3     1  LIG1       -0.4725
      6 C          -0.5080    0.0330    0.0000 C.ar    1  LIG1        0.1387
      7 C          -1.0170   -0.8460    0.0000 C.ar    1  LIG1        0.0366
      8 C          -2.0000   -0.8460    0.0000 C.ar    1  LIG1       -0.0012
      9 C          -2.4960    0.0330    0.0000 C.ar    1  LIG1       -0.0223
     10 C          -2.0000    0.9080    0.0000 C.ar    1  LIG1       -0.0012
     11 C          -1.0170    0.9080    0.0000 C.ar    1  LIG1        0.0366
     12 C          -3.4960    0.0330    0.0000 C.3     1  LIG1        0.0223
     13 C          -3.9880   -0.8460    0.0000 C.3     1  LIG1        0.0044
     14 C          -4.9790   -0.8460    0.0000 C.3     1  LIG1        0.0003
     15 C          -5.4830    0.0330    0.0000 C.3     1  LIG1        0.0000
     16 C          -4.9790    0.9080    0.0000 C.3     1  LIG1        0.0003
     17 C          -3.9880    0.9080    0.0000 C.3     1  LIG1        0.0044
     18 O           2.4880    1.7290    0.0000 O.3     1  LIG1       -0.2127
     19 C           3.9830   -0.8630    0.0000 C.3     1  LIG1        0.1385
     20 C           4.9670   -0.8630    0.0000 C.3     1  LIG1        0.0572
     21 C           5.4750    0.0080    0.0000 C.3     1  LIG1        0.0121
     22 C           4.9670    0.8830    0.0000 C.3     1  LIG1        0.0629
     23 C           3.9830    0.8830    0.0000 C.3     1  LIG1        0.1387
     24 C           5.4790   -1.7250    0.0000 C.3     1  LIG1        0.0061
@<TRIPOS>BOND
     1     1     2    1
     2     1    19    1
     3     1    23    1
     4     2     3    1
     5     3     4    1
     6     3    18    1
     7     4     5    1
     8     5     6    1
     9     6     7   ar
    10     6    11   ar
    11     7     8   ar
    12     8     9   ar
    13     9    10   ar
    14     9    12    1
    15    10    11   ar
    16    12    13    1
    17    12    17    1
    18    13    14    1
    19    14    15    1
    20    15    16    1
    21    16    17    1
    22    19    20    1
    23    20    21    1
    24    20    24    1
    25    21    22    1
    26    22    23    1
