@<TRIPOS>MOLECULE
29209_ChemDiv_3347-0115
 28 31 0 0 0
SMALL
GASTEIGER
Energy = 0

@<TRIPOS>ATOM
      1 S           0.4210   -1.4750    0.0000 S.O2    1  LIG1        0.0640
      2 N          -0.4330   -0.9750    0.0000 N.3     1  LIG1       -0.1432
      3 C          -0.4330    0.0080    0.0000 C.3     1  LIG1        0.1635
      4 C           0.4210    0.5000    0.0000 C.2     1  LIG1        0.2779
      5 N           0.4210    1.4880    0.0000 N.am    1  LIG1       -0.0923
      6 N           1.2750    1.9790    0.0000 N.ar    1  LIG1       -0.1925
      7 C           2.3250    1.6710    0.0000 C.ar    1  LIG1        0.2224
      8 N           2.9130    2.5500    0.0000 N.ar    1  LIG1       -0.1237
      9 N           2.2580    3.4210    0.0000 N.ar    1  LIG1       -0.1237
     10 C           1.2290    3.0580    0.0000 C.ar    1  LIG1        0.2224
     11 O           1.2750   -0.0040    0.0000 O.2     1  LIG1       -0.2700
     12 C          -1.3000    0.5000    0.0000 C.3     1  LIG1        0.0532
     13 C          -2.1380    0.0080    0.0000 C.ar    1  LIG1       -0.0229
     14 C          -2.1540   -0.9750    0.0000 C.ar    1  LIG1       -0.0084
     15 C          -1.3000   -1.4750    0.0000 C.3     1  LIG1        0.1223
     16 C          -3.0040   -1.4670    0.0000 C.ar    1  LIG1       -0.0032
     17 C          -3.8420   -0.9750    0.0000 C.ar    1  LIG1       -0.0003
     18 C          -3.8420   -0.0040    0.0000 C.ar    1  LIG1       -0.0003
     19 C          -3.0040    0.5000    0.0000 C.ar    1  LIG1       -0.0045
     20 C           1.2750   -1.9580    0.0000 C.ar    1  LIG1        0.1224
     21 C           2.1250   -1.4500    0.0000 C.ar    1  LIG1        0.0222
     22 C           2.9790   -1.9500    0.0000 C.ar    1  LIG1        0.0310
     23 C           2.9830   -2.9380    0.0000 C.ar    1  LIG1        0.1402
     24 C           2.1330   -3.4170    0.0000 C.ar    1  LIG1        0.0310
     25 C           1.2750   -2.9420    0.0000 C.ar    1  LIG1        0.0222
     26 F           3.8380   -3.4170    0.0000 F       1  LIG1       -0.2042
     27 O          -0.0830   -2.3170    0.0000 O.2     1  LIG1       -0.1528
     28 O           0.8880   -0.6170    0.0000 O.2     1  LIG1       -0.1528
@<TRIPOS>BOND
     1     1     2    1
     2     1    20    1
     3     1    27    2
     4     1    28    2
     5     2     3    1
     6     2    15    1
     7     3     4    1
     8     3    12    1
     9     4     5   am
    10     4    11    2
    11     5     6    1
    12     6     7   ar
    13     6    10   ar
    14     7     8   ar
    15     8     9   ar
    16     9    10   ar
    17    12    13    1
    18    13    14   ar
    19    13    19   ar
    20    14    15    1
    21    14    16   ar
    22    16    17   ar
    23    17    18   ar
    24    18    19   ar
    25    20    21   ar
    26    20    25   ar
    27    21    22   ar
    28    22    23   ar
    29    23    24   ar
    30    23    26    1
    31    24    25   ar
