@<TRIPOS>MOLECULE
29207_ChemDiv_3347-0008
 29 32 0 0 0
SMALL
GASTEIGER
Energy = 0

@<TRIPOS>ATOM
      1 N          -0.8750   -0.9920    0.0000 N.3     1  LIG1       -0.1434
      2 S           0.0040   -1.4920    0.0000 S.O2    1  LIG1        0.0640
      3 C           0.8710   -1.9920    0.0000 C.ar    1  LIG1        0.1224
      4 C           1.7380   -1.4830    0.0000 C.ar    1  LIG1        0.0230
      5 C           2.6040   -1.9750    0.0000 C.ar    1  LIG1        0.0383
      6 C           2.6040   -2.9750    0.0000 C.ar    1  LIG1        0.1388
      7 C           1.7380   -3.4830    0.0000 C.ar    1  LIG1        0.0383
      8 C           0.8710   -2.9920    0.0000 C.ar    1  LIG1        0.0230
      9 O           3.4710   -3.4830    0.0000 O.3     1  LIG1       -0.4714
     10 C           4.3380   -2.9580    0.0000 C.3     1  LIG1        0.2525
     11 O          -0.4830   -2.3580    0.0000 O.2     1  LIG1       -0.1528
     12 O           0.5000   -0.6250    0.0000 O.2     1  LIG1       -0.1528
     13 C          -0.8750    0.0250    0.0000 C.3     1  LIG1        0.1603
     14 C          -0.0080    0.5130    0.0000 C.2     1  LIG1        0.2423
     15 N          -0.0080    1.5130    0.0000 N.am    1  LIG1       -0.2732
     16 C           0.8710    1.9960    0.0000 C.3     1  LIG1        0.1255
     17 C           0.8710    2.9790    0.0000 C.3     1  LIG1        0.1636
     18 O           0.0040    3.4880    0.0000 O.3     1  LIG1       -0.3501
     19 C          -0.8580    2.9960    0.0000 C.3     1  LIG1        0.1636
     20 C          -0.8580    2.0040    0.0000 C.3     1  LIG1        0.1255
     21 O           0.8540    0.0080    0.0000 O.2     1  LIG1       -0.2733
     22 C          -1.7460    0.5130    0.0000 C.3     1  LIG1        0.0531
     23 C          -2.6080    0.0250    0.0000 C.ar    1  LIG1       -0.0229
     24 C          -2.6080   -0.9920    0.0000 C.ar    1  LIG1       -0.0084
     25 C          -1.7460   -1.4920    0.0000 C.3     1  LIG1        0.1223
     26 C          -3.4790   -1.4920    0.0000 C.ar    1  LIG1       -0.0032
     27 C          -4.3420   -0.9920    0.0000 C.ar    1  LIG1       -0.0003
     28 C          -4.3420    0.0250    0.0000 C.ar    1  LIG1       -0.0003
     29 C          -3.4790    0.5130    0.0000 C.ar    1  LIG1       -0.0045
@<TRIPOS>BOND
     1     1     2    1
     2     1    13    1
     3     1    25    1
     4     2     3    1
     5     2    11    2
     6     2    12    2
     7     3     4   ar
     8     3     8   ar
     9     4     5   ar
    10     5     6   ar
    11     6     7   ar
    12     6     9    1
    13     7     8   ar
    14     9    10    1
    15    13    14    1
    16    13    22    1
    17    14    15   am
    18    14    21    2
    19    15    16    1
    20    15    20    1
    21    16    17    1
    22    17    18    1
    23    18    19    1
    24    19    20    1
    25    22    23    1
    26    23    24   ar
    27    23    29   ar
    28    24    25    1
    29    24    26   ar
    30    26    27   ar
    31    27    28   ar
    32    28    29   ar
