@<TRIPOS>MOLECULE
29206_ChemDiv_3376-0731
 30 34 0 0 0
SMALL
GASTEIGER
Energy = 0

@<TRIPOS>ATOM
      1 C           0.7580   -0.8790    0.0000 C.ar    1  LIG1        0.1891
      2 N           0.7540    0.1290    0.0000 N.ar    1  LIG1       -0.2393
      3 C          -0.1330    0.6420    0.0000 C.ar    1  LIG1        0.3564
      4 N          -0.1330    1.6330    0.0000 N.ar    1  LIG1       -0.1770
      5 C           0.7540    2.1580    0.0000 C.ar    1  LIG1        0.1381
      6 C           1.6250    1.6580    0.0000 C.ar    1  LIG1        0.0536
      7 C           1.6250    0.6420    0.0000 C.ar    1  LIG1        0.0888
      8 N           0.7540    3.1380    0.0000 N.pl3   1  LIG1       -0.2879
      9 C          -0.1330    3.6630    0.0000 C.3     1  LIG1        0.1242
     10 C          -0.1330    4.6460    0.0000 C.3     1  LIG1        0.1636
     11 O           0.7540    5.1630    0.0000 O.3     1  LIG1       -0.3501
     12 C           1.6250    4.6750    0.0000 C.3     1  LIG1        0.1636
     13 C           1.6250    3.6630    0.0000 C.3     1  LIG1        0.1242
     14 O          -0.8170    0.2380    0.0000 O.2     1  LIG1       -0.2440
     15 N           1.4790   -1.5580    0.0000 N.ar    1  LIG1       -0.1903
     16 C           1.0500   -2.4750    0.0000 C.ar    1  LIG1        0.2310
     17 O           0.1000   -2.3540    0.0000 O.2     1  LIG1       -0.4330
     18 C          -0.1170   -1.3880    0.0000 C.ar    1  LIG1        0.1815
     19 C          -1.0540   -1.0250    0.0000 C.ar    1  LIG1        0.0377
     20 C          -1.2040   -0.0080    0.0000 C.ar    1  LIG1        0.0031
     21 C          -2.1670    0.3540    0.0000 C.ar    1  LIG1        0.0001
     22 C          -2.9380   -0.2500    0.0000 C.ar    1  LIG1        0.0000
     23 C          -2.7920   -1.2670    0.0000 C.ar    1  LIG1        0.0001
     24 C          -1.8500   -1.6290    0.0000 C.ar    1  LIG1        0.0031
     25 C           1.5040   -3.3710    0.0000 C.ar    1  LIG1        0.0536
     26 C           2.4920   -3.4420    0.0000 C.ar    1  LIG1        0.0047
     27 C           2.9330   -4.3630    0.0000 C.ar    1  LIG1        0.0002
     28 C           2.3500   -5.1630    0.0000 C.ar    1  LIG1        0.0000
     29 C           1.3580   -5.0920    0.0000 C.ar    1  LIG1        0.0002
     30 C           0.9040   -4.1830    0.0000 C.ar    1  LIG1        0.0047
@<TRIPOS>BOND
     1     1     2    1
     2     1    15   ar
     3     1    18   ar
     4     2     3   ar
     5     2     7   ar
     6     3     4   ar
     7     3    14    2
     8     4     5   ar
     9     5     6   ar
    10     5     8    1
    11     6     7   ar
    12     8     9    1
    13     8    13    1
    14     9    10    1
    15    10    11    1
    16    11    12    1
    17    12    13    1
    18    15    16   ar
    19    16    17   ar
    20    16    25    1
    21    17    18   ar
    22    18    19    1
    23    19    20   ar
    24    19    24   ar
    25    20    21   ar
    26    21    22   ar
    27    22    23   ar
    28    23    24   ar
    29    25    26   ar
    30    25    30   ar
    31    26    27   ar
    32    27    28   ar
    33    28    29   ar
    34    29    30   ar
