@<TRIPOS>MOLECULE
29201_ChemDiv_3343-2962
 29 32 0 0 0
SMALL
GASTEIGER
Energy = 0

@<TRIPOS>ATOM
      1 N           2.3920   -1.1170    0.0000 N.3     1  LIG1       -0.2589
      2 C           3.3710   -1.4880    0.0000 C.3     1  LIG1        0.0996
      3 C           4.1330   -0.8670    0.0000 C.ar    1  LIG1       -0.0029
      4 C           3.9710    0.1250    0.0000 C.ar    1  LIG1        0.0373
      5 C           4.7540    0.7250    0.0000 C.ar    1  LIG1        0.1762
      6 C           5.6830    0.3540    0.0000 C.ar    1  LIG1        0.1764
      7 O           6.3040    1.1460    0.0000 O.3     1  LIG1       -0.4346
      8 C           5.7630    2.0130    0.0000 C.3     1  LIG1        0.4294
      9 O           4.7710    1.7210    0.0000 O.3     1  LIG1       -0.4346
     10 C           5.8540   -0.6380    0.0000 C.ar    1  LIG1        0.0399
     11 C           5.0630   -1.2330    0.0000 C.ar    1  LIG1        0.0004
     12 C           2.1250   -0.1420    0.0000 C.3     1  LIG1        0.1361
     13 C           1.1750    0.1040    0.0000 C.3     1  LIG1        0.1564
     14 N           0.4790   -0.6210    0.0000 N.4     1  LIG1        0.3816
     15 C          -0.4880   -0.3710    0.0000 C.3     1  LIG1        0.1759
     16 C          -1.1830   -1.0710    0.0000 C.3     1  LIG1        0.2514
     17 C          -2.1580   -0.8250    0.0000 C.3     1  LIG1        0.2443
     18 O          -2.8460   -1.5420    0.0000 O.3     1  LIG1       -0.4724
     19 C          -3.8210   -1.2920    0.0000 C.ar    1  LIG1        0.1417
     20 C          -4.0920   -0.3250    0.0000 C.ar    1  LIG1        0.0737
     21 C          -5.0630   -0.0750    0.0000 C.ar    1  LIG1        0.1418
     22 O          -5.3460    0.8960    0.0000 O.3     1  LIG1       -0.4713
     23 C          -6.3040    1.1460    0.0000 C.3     1  LIG1        0.2525
     24 C          -5.7630   -0.7960    0.0000 C.ar    1  LIG1        0.0371
     25 C          -5.4830   -1.7380    0.0000 C.ar    1  LIG1        0.0062
     26 C          -4.5210   -2.0080    0.0000 C.ar    1  LIG1        0.0371
     27 O          -0.9380   -2.0080    0.0000 O.3     1  LIG1       -0.2127
     28 C           0.7330   -1.5670    0.0000 C.3     1  LIG1        0.1564
     29 C           1.6920   -1.8170    0.0000 C.3     1  LIG1        0.1361
@<TRIPOS>BOND
     1     1     2    1
     2     1    12    1
     3     1    29    1
     4     2     3    1
     5     3     4   ar
     6     3    11   ar
     7     4     5   ar
     8     5     6   ar
     9     5     9    1
    10     6     7    1
    11     6    10   ar
    12     7     8    1
    13     8     9    1
    14    10    11   ar
    15    12    13    1
    16    13    14    1
    17    14    15    1
    18    14    28    1
    19    15    16    1
    20    16    17    1
    21    16    27    1
    22    17    18    1
    23    18    19    1
    24    19    20   ar
    25    19    26   ar
    26    20    21   ar
    27    21    22    1
    28    21    24   ar
    29    22    23    1
    30    24    25   ar
    31    25    26   ar
    32    28    29    1
