@<TRIPOS>MOLECULE
29212_ChemDiv_3448-6099
 20 21 0 0 0
SMALL
GASTEIGER
Energy = 0

@<TRIPOS>ATOM
      1 C          -0.4420    0.0040    0.0000 C.3     1  LIG1        0.1510
      2 C           0.4000    0.5080    0.0000 C.3     1  LIG1        0.0973
      3 C           1.2630    0.0290    0.0000 C.3     1  LIG1        0.1417
      4 N           2.1170    0.5380    0.0000 N.4     1  LIG1        0.3813
      5 C           3.0080    0.0290    0.0000 C.3     1  LIG1        0.1713
      6 C           3.8750    0.5380    0.0000 C.3     1  LIG1        0.2047
      7 O           3.8750    1.5250    0.0000 O.3     1  LIG1       -0.3411
      8 C           3.0080    2.0330    0.0000 C.3     1  LIG1        0.2047
      9 C           2.1170    1.5250    0.0000 C.3     1  LIG1        0.1713
     10 C          -1.3080   -0.5250    0.0000 C.ar    1  LIG1        0.0053
     11 C          -2.1670   -0.0210    0.0000 C.ar    1  LIG1       -0.0014
     12 C          -3.0250   -0.5250    0.0000 C.ar    1  LIG1        0.0064
     13 C          -3.0040   -1.5210    0.0000 C.ar    1  LIG1        0.0345
     14 C          -2.1380   -2.0040    0.0000 C.ar    1  LIG1        0.0064
     15 C          -1.2750   -1.5210    0.0000 C.ar    1  LIG1       -0.0014
     16 BR         -3.8790   -2.0290    0.0000 Br      1  LIG1       -0.0490
     17 O           0.0880   -0.8580    0.0000 O.3     1  LIG1       -0.2210
     18 C          -0.9500    0.8710    0.0000 C.3     1  LIG1        0.0349
     19 C          -1.9420    0.8380    0.0000 C.3     1  LIG1        0.0029
     20 C          -2.4500    1.7000    0.0000 C.3     1  LIG1        0.0001
@<TRIPOS>BOND
     1     1     2    1
     2     1    10    1
     3     1    17    1
     4     1    18    1
     5     2     3    1
     6     3     4    1
     7     4     5    1
     8     4     9    1
     9     5     6    1
    10     6     7    1
    11     7     8    1
    12     8     9    1
    13    10    11   ar
    14    10    15   ar
    15    11    12   ar
    16    12    13   ar
    17    13    14   ar
    18    13    16    1
    19    14    15   ar
    20    18    19    1
    21    19    20    1
