@<TRIPOS>MOLECULE
29215_ChemDiv_D048-0353
 35 38 0 0 0
SMALL
GASTEIGER
Energy = 0

@<TRIPOS>ATOM
      1 S           0.8330    1.3170    0.0000 S.O2    1  LIG1        0.0638
      2 N          -0.0540    1.7750    0.0000 N.3     1  LIG1       -0.1483
      3 C          -0.9000    1.2420    0.0000 C.3     1  LIG1        0.1238
      4 C          -1.7830    1.7080    0.0000 C.ar    1  LIG1       -0.0028
      5 C          -1.8170    2.7130    0.0000 C.ar    1  LIG1       -0.0199
      6 C          -2.6920    3.1790    0.0000 C.ar    1  LIG1        0.0356
      7 C          -3.5540    2.6500    0.0000 C.ar    1  LIG1        0.1721
      8 C          -3.5080    1.6500    0.0000 C.ar    1  LIG1        0.1721
      9 C          -2.6250    1.1750    0.0000 C.ar    1  LIG1        0.0371
     10 O          -4.3540    1.1250    0.0000 O.3     1  LIG1       -0.4684
     11 C          -4.3210    0.1250    0.0000 C.3     1  LIG1        0.2526
     12 O          -4.4290    3.1170    0.0000 O.3     1  LIG1       -0.4684
     13 C          -5.2750    2.5960    0.0000 C.3     1  LIG1        0.2526
     14 C          -0.9830    3.2290    0.0000 C.3     1  LIG1        0.0453
     15 C          -0.1000    2.7790    0.0000 C.3     1  LIG1        0.1012
     16 C          -0.8540    0.2420    0.0000 C.ar    1  LIG1        0.0011
     17 C          -1.7000   -0.2920    0.0000 C.ar    1  LIG1        0.0375
     18 C          -1.6670   -1.2960    0.0000 C.ar    1  LIG1        0.1721
     19 C          -0.7830   -1.7630    0.0000 C.ar    1  LIG1        0.1724
     20 C           0.0670   -1.2210    0.0000 C.ar    1  LIG1        0.0398
     21 C           0.0290   -0.2210    0.0000 C.ar    1  LIG1        0.0007
     22 O          -0.7330   -2.7580    0.0000 O.3     1  LIG1       -0.4684
     23 C           0.1500   -3.2250    0.0000 C.3     1  LIG1        0.2526
     24 O          -2.5080   -1.8210    0.0000 O.3     1  LIG1       -0.4684
     25 C          -2.4710   -2.8250    0.0000 C.3     1  LIG1        0.2526
     26 C           1.7290    0.8750    0.0000 C.ar    1  LIG1        0.1224
     27 C           2.5540    1.4420    0.0000 C.ar    1  LIG1        0.0230
     28 C           3.4670    1.0080    0.0000 C.ar    1  LIG1        0.0383
     29 C           3.5380    0.0080    0.0000 C.ar    1  LIG1        0.1388
     30 C           2.7170   -0.5580    0.0000 C.ar    1  LIG1        0.0383
     31 C           1.8040   -0.1250    0.0000 C.ar    1  LIG1        0.0230
     32 O           4.4420   -0.4250    0.0000 O.3     1  LIG1       -0.4714
     33 C           5.2710    0.1420    0.0000 C.3     1  LIG1        0.2525
     34 O           0.3960    0.4080    0.0000 O.2     1  LIG1       -0.1528
     35 O           1.2630    2.2130    0.0000 O.2     1  LIG1       -0.1528
@<TRIPOS>BOND
     1     1     2    1
     2     1    26    1
     3     1    34    2
     4     1    35    2
     5     2     3    1
     6     2    15    1
     7     3     4    1
     8     3    16    1
     9     4     5   ar
    10     4     9   ar
    11     5     6   ar
    12     5    14    1
    13     6     7   ar
    14     7     8   ar
    15     7    12    1
    16     8     9   ar
    17     8    10    1
    18    10    11    1
    19    12    13    1
    20    14    15    1
    21    16    17   ar
    22    16    21   ar
    23    17    18   ar
    24    18    19   ar
    25    18    24    1
    26    19    20   ar
    27    19    22    1
    28    20    21   ar
    29    22    23    1
    30    24    25    1
    31    26    27   ar
    32    26    31   ar
    33    27    28   ar
    34    28    29   ar
    35    29    30   ar
    36    29    32    1
    37    30    31   ar
    38    32    33    1
