@<TRIPOS>MOLECULE
29213_ChemDiv_8012-7837
 28 31 0 0 0
SMALL
GASTEIGER
Energy = 0

@<TRIPOS>ATOM
      1 N          -0.5130   -1.0960    0.0000 N.3     1  LIG1       -0.1434
      2 S           0.3790   -1.5630    0.0000 S.O2    1  LIG1        0.0640
      3 C           1.2710   -2.0040    0.0000 C.ar    1  LIG1        0.1222
      4 C           1.3580   -3.0000    0.0000 C.ar    1  LIG1        0.0196
      5 C           2.2630   -3.4330    0.0000 C.ar    1  LIG1       -0.0029
      6 C           3.0790   -2.8670    0.0000 C.ar    1  LIG1       -0.0218
      7 C           3.0130   -1.8670    0.0000 C.ar    1  LIG1       -0.0029
      8 C           2.1080   -1.4420    0.0000 C.ar    1  LIG1        0.0196
      9 C           3.9830   -3.2960    0.0000 C.3     1  LIG1        0.0310
     10 O           0.8080   -0.6670    0.0000 O.2     1  LIG1       -0.1528
     11 O          -0.0630   -2.4670    0.0000 O.2     1  LIG1       -0.1528
     12 C          -0.5540   -0.1040    0.0000 C.3     1  LIG1        0.1603
     13 C           0.3000    0.4420    0.0000 C.2     1  LIG1        0.2423
     14 N           0.2630    1.4330    0.0000 N.am    1  LIG1       -0.2732
     15 C           1.1040    1.9670    0.0000 C.3     1  LIG1        0.1255
     16 C           1.0750    2.9540    0.0000 C.3     1  LIG1        0.1636
     17 O           0.1750    3.4380    0.0000 O.3     1  LIG1       -0.3501
     18 C          -0.6630    2.9000    0.0000 C.3     1  LIG1        0.1636
     19 C          -0.6330    1.9000    0.0000 C.3     1  LIG1        0.1255
     20 O           1.1830   -0.0250    0.0000 O.2     1  LIG1       -0.2733
     21 C          -1.4380    0.3630    0.0000 C.3     1  LIG1        0.0531
     22 C          -2.2750   -0.1710    0.0000 C.ar    1  LIG1       -0.0229
     23 C          -2.2380   -1.1630    0.0000 C.ar    1  LIG1       -0.0084
     24 C          -1.3580   -1.6380    0.0000 C.3     1  LIG1        0.1223
     25 C          -3.0790   -1.6960    0.0000 C.ar    1  LIG1       -0.0032
     26 C          -3.9630   -1.2290    0.0000 C.ar    1  LIG1       -0.0003
     27 C          -3.9880   -0.2290    0.0000 C.ar    1  LIG1       -0.0003
     28 C          -3.1460    0.3080    0.0000 C.ar    1  LIG1       -0.0045
@<TRIPOS>BOND
     1     1     2    1
     2     1    12    1
     3     1    24    1
     4     2     3    1
     5     2    10    2
     6     2    11    2
     7     3     4   ar
     8     3     8   ar
     9     4     5   ar
    10     5     6   ar
    11     6     7   ar
    12     6     9    1
    13     7     8   ar
    14    12    13    1
    15    12    21    1
    16    13    14   am
    17    13    20    2
    18    14    15    1
    19    14    19    1
    20    15    16    1
    21    16    17    1
    22    17    18    1
    23    18    19    1
    24    21    22    1
    25    22    23   ar
    26    22    28   ar
    27    23    24    1
    28    23    25   ar
    29    25    26   ar
    30    26    27   ar
    31    27    28   ar
