@<TRIPOS>MOLECULE
29211_ChemDiv_6099-0098
 23 25 0 0 0
SMALL
GASTEIGER
Energy = 0

@<TRIPOS>ATOM
      1 S           0.4290    0.0040    0.0000 S.O2    1  LIG1        0.0634
      2 N          -0.4380   -0.4960    0.0000 N.3     1  LIG1       -0.1507
      3 C          -1.3000    0.0040    0.0000 C.3     1  LIG1        0.1218
      4 C          -2.1670   -0.4960    0.0000 C.ar    1  LIG1       -0.0084
      5 C          -2.1670   -1.5000    0.0000 C.ar    1  LIG1       -0.0233
      6 C          -1.3000   -2.0000    0.0000 C.3     1  LIG1        0.0452
      7 C          -0.4380   -1.5000    0.0000 C.3     1  LIG1        0.1008
      8 C          -3.0330   -2.0000    0.0000 C.ar    1  LIG1       -0.0045
      9 C          -3.9000   -1.5000    0.0000 C.ar    1  LIG1       -0.0003
     10 C          -3.9000   -0.4960    0.0000 C.ar    1  LIG1       -0.0003
     11 C          -3.0330    0.0040    0.0000 C.ar    1  LIG1       -0.0032
     12 C           1.2960    0.5040    0.0000 C.ar    1  LIG1        0.1212
     13 C           2.1630    0.0040    0.0000 C.ar    1  LIG1        0.0561
     14 C           3.0290    0.5040    0.0000 C.ar    1  LIG1        0.1360
     15 C           3.0290    1.5040    0.0000 C.ar    1  LIG1        0.0119
     16 C           2.1630    1.9960    0.0000 C.ar    1  LIG1       -0.0042
     17 C           1.2960    1.5040    0.0000 C.ar    1  LIG1       -0.0034
     18 C           0.4290    2.0040    0.0000 C.3     1  LIG1        0.0324
     19 C           3.8960    2.0040    0.0000 C.3     1  LIG1        0.0342
     20 O           3.8960    0.0040    0.0000 O.3     1  LIG1       -0.4717
     21 C           3.8960   -1.0000    0.0000 C.3     1  LIG1        0.2525
     22 O          -0.0710    0.8710    0.0000 O.2     1  LIG1       -0.1528
     23 O           0.9330   -0.8630    0.0000 O.2     1  LIG1       -0.1528
@<TRIPOS>BOND
     1     1     2    1
     2     1    12    1
     3     1    22    2
     4     1    23    2
     5     2     3    1
     6     2     7    1
     7     3     4    1
     8     4     5   ar
     9     4    11   ar
    10     5     6    1
    11     5     8   ar
    12     6     7    1
    13     8     9   ar
    14     9    10   ar
    15    10    11   ar
    16    12    13   ar
    17    12    17   ar
    18    13    14   ar
    19    14    15   ar
    20    14    20    1
    21    15    16   ar
    22    15    19    1
    23    16    17   ar
    24    17    18    1
    25    20    21    1
