@<TRIPOS>MOLECULE
29237_ChemDiv_3347-3563
 26 29 0 0 0
SMALL
GASTEIGER
Energy = 0

@<TRIPOS>ATOM
      1 N           0.7330    0.1670    0.0000 N.3     1  LIG1       -0.2561
      2 C           1.6500   -0.2790    0.0000 C.3     1  LIG1        0.1426
      3 C           2.4880    0.2630    0.0000 C.2     1  LIG1        0.1892
      4 C           3.3750   -0.1670    0.0000 C.ar    1  LIG1        0.0362
      5 C           3.4460   -1.1670    0.0000 C.ar    1  LIG1        0.0052
      6 C           4.3380   -1.6130    0.0000 C.ar    1  LIG1        0.0297
      7 C           5.1580   -1.0580    0.0000 C.ar    1  LIG1        0.1401
      8 C           5.0960   -0.0500    0.0000 C.ar    1  LIG1        0.0297
      9 C           4.2080    0.3750    0.0000 C.ar    1  LIG1        0.0052
     10 F           6.0460   -1.5290    0.0000 F       1  LIG1       -0.2042
     11 O           2.4250    1.2670    0.0000 O.2     1  LIG1       -0.2899
     12 C          -0.1460   -0.3830    0.0000 C.3     1  LIG1        0.1362
     13 C          -1.0170    0.0960    0.0000 C.3     1  LIG1        0.1568
     14 N          -1.0380    1.0830    0.0000 N.4     1  LIG1        0.3829
     15 C          -1.9500    1.5750    0.0000 C.3     1  LIG1        0.1664
     16 C          -2.8170    1.0420    0.0000 C.ar    1  LIG1        0.0376
     17 C          -3.6880    1.5290    0.0000 C.ar    1  LIG1        0.0416
     18 C          -4.5330    1.0210    0.0000 C.ar    1  LIG1        0.1763
     19 C          -4.5330    0.0290    0.0000 C.ar    1  LIG1        0.1764
     20 O          -5.4960   -0.2750    0.0000 O.3     1  LIG1       -0.4346
     21 C          -6.0460    0.5040    0.0000 C.3     1  LIG1        0.4294
     22 O          -5.4960    1.3330    0.0000 O.3     1  LIG1       -0.4346
     23 C          -3.6880   -0.4580    0.0000 C.ar    1  LIG1        0.0401
     24 C          -2.8170    0.0290    0.0000 C.ar    1  LIG1        0.0048
     25 C          -0.1880    1.6170    0.0000 C.3     1  LIG1        0.1568
     26 C           0.7040    1.1540    0.0000 C.3     1  LIG1        0.1362
@<TRIPOS>BOND
     1     1     2    1
     2     1    12    1
     3     1    26    1
     4     2     3    1
     5     3     4    1
     6     3    11    2
     7     4     5   ar
     8     4     9   ar
     9     5     6   ar
    10     6     7   ar
    11     7     8   ar
    12     7    10    1
    13     8     9   ar
    14    12    13    1
    15    13    14    1
    16    14    15    1
    17    14    25    1
    18    15    16    1
    19    16    17   ar
    20    16    24   ar
    21    17    18   ar
    22    18    19   ar
    23    18    22    1
    24    19    20    1
    25    19    23   ar
    26    20    21    1
    27    21    22    1
    28    23    24   ar
    29    25    26    1
