@<TRIPOS>MOLECULE
29239_ChemDiv_6186-3394
 31 35 0 0 0
SMALL
GASTEIGER
Energy = 0

@<TRIPOS>ATOM
      1 N           1.3420   -0.3380    0.0000 N.3     1  LIG1       -0.2540
      2 C           2.0130   -1.0000    0.0000 C.3     1  LIG1        0.1431
      3 C           1.7080   -1.8330    0.0000 C.2     1  LIG1        0.1916
      4 O           2.3170   -2.6290    0.0000 O.2     1  LIG1       -0.2896
      5 C           0.7000   -2.0080    0.0000 C.ar    1  LIG1        0.0364
      6 C           0.0580   -1.1960    0.0000 C.ar    1  LIG1        0.0029
      7 C          -0.8580   -1.3960    0.0000 C.ar    1  LIG1        0.0001
      8 C          -1.2250   -2.2920    0.0000 C.ar    1  LIG1        0.0000
      9 C          -0.6750   -3.0750    0.0000 C.ar    1  LIG1        0.0001
     10 C           0.3630   -2.9330    0.0000 C.ar    1  LIG1        0.0029
     11 C           3.0210   -0.8290    0.0000 C.ar    1  LIG1       -0.0004
     12 C           3.4170   -0.0040    0.0000 C.ar    1  LIG1       -0.0025
     13 C           4.4130    0.1920    0.0000 C.ar    1  LIG1       -0.0003
     14 C           5.0040   -0.6130    0.0000 C.ar    1  LIG1       -0.0000
     15 C           4.6580   -1.4380    0.0000 C.ar    1  LIG1       -0.0003
     16 C           3.6290   -1.6420    0.0000 C.ar    1  LIG1       -0.0025
     17 C           0.3040   -0.5540    0.0000 C.3     1  LIG1        0.1364
     18 C          -0.3500    0.1790    0.0000 C.3     1  LIG1        0.1568
     19 N          -0.0630    1.1580    0.0000 N.4     1  LIG1        0.3829
     20 C          -0.7330    1.9290    0.0000 C.3     1  LIG1        0.1664
     21 C          -1.7710    1.7670    0.0000 C.ar    1  LIG1        0.0376
     22 C          -2.4130    2.5920    0.0000 C.ar    1  LIG1        0.0416
     23 C          -3.3710    2.4380    0.0000 C.ar    1  LIG1        0.1763
     24 C          -3.8170    1.4630    0.0000 C.ar    1  LIG1        0.1764
     25 O          -4.7960    1.5830    0.0000 O.3     1  LIG1       -0.4346
     26 C          -5.0080    2.5130    0.0000 C.3     1  LIG1        0.4294
     27 O          -4.1330    3.0790    0.0000 O.3     1  LIG1       -0.4346
     28 C          -3.1750    0.6790    0.0000 C.ar    1  LIG1        0.0401
     29 C          -2.1380    0.8000    0.0000 C.ar    1  LIG1        0.0048
     30 C           0.9960    1.3210    0.0000 C.3     1  LIG1        0.1568
     31 C           1.6380    0.5880    0.0000 C.3     1  LIG1        0.1364
@<TRIPOS>BOND
     1     1     2    1
     2     1    17    1
     3     1    31    1
     4     2     3    1
     5     2    11    1
     6     3     4    2
     7     3     5    1
     8     5     6   ar
     9     5    10   ar
    10     6     7   ar
    11     7     8   ar
    12     8     9   ar
    13     9    10   ar
    14    11    12   ar
    15    11    16   ar
    16    12    13   ar
    17    13    14   ar
    18    14    15   ar
    19    15    16   ar
    20    17    18    1
    21    18    19    1
    22    19    20    1
    23    19    30    1
    24    20    21    1
    25    21    22   ar
    26    21    29   ar
    27    22    23   ar
    28    23    24   ar
    29    23    27    1
    30    24    25    1
    31    24    28   ar
    32    25    26    1
    33    26    27    1
    34    28    29   ar
    35    30    31    1
