@<TRIPOS>MOLECULE
29233_ChemDiv_3347-0140
 21 23 0 0 0
SMALL
GASTEIGER
Energy = 0

@<TRIPOS>ATOM
      1 C          -1.7420    1.3250    0.0000 C.ar    1  LIG1        0.4611
      2 N          -1.7420    0.3170    0.0000 N.ar    1  LIG1       -0.2289
      3 C          -2.5960   -0.2040    0.0000 C.ar    1  LIG1        0.0502
      4 C          -3.4710    0.3170    0.0000 C.ar    1  LIG1        0.0283
      5 C          -3.4710    1.3250    0.0000 C.ar    1  LIG1        0.0680
      6 N          -2.5960    1.8080    0.0000 N.ar    1  LIG1       -0.1673
      7 C          -4.3170    1.8080    0.0000 C.3     1  LIG1        0.0524
      8 C          -2.5960   -1.2040    0.0000 C.3     1  LIG1        0.0507
      9 C          -0.7920    0.0080    0.0000 C.ar    1  LIG1        0.1591
     10 C          -0.2250    0.8170    0.0000 C.ar    1  LIG1        0.3067
     11 N          -0.7920    1.6130    0.0000 N.ar    1  LIG1        0.1154
     12 C           0.7830    0.8170    0.0000 C.3     1  LIG1        0.1704
     13 S           1.2830   -0.0670    0.0000 S.3     1  LIG1       -0.0639
     14 C           2.2710   -0.0670    0.0000 C.ar    1  LIG1        0.1930
     15 N           2.7830    0.8170    0.0000 N.ar    1  LIG1       -0.1828
     16 C           3.7710    0.8170    0.0000 C.ar    1  LIG1        0.2822
     17 C           4.2710   -0.0670    0.0000 C.ar    1  LIG1        0.0773
     18 C           3.7710   -0.9330    0.0000 C.ar    1  LIG1        0.0663
     19 N           2.7830   -0.9330    0.0000 N.ar    1  LIG1       -0.2254
     20 C           4.2710   -1.8040    0.0000 C.3     1  LIG1        0.0523
     21 O           4.3130    1.6750    0.0000 O.3     1  LIG1       -0.2651
@<TRIPOS>BOND
     1     1     2   ar
     2     1     6   ar
     3     1    11   ar
     4     2     3   ar
     5     2     9   ar
     6     3     4   ar
     7     3     8    1
     8     4     5   ar
     9     5     6   ar
    10     5     7    1
    11     9    10   ar
    12    10    11   ar
    13    10    12    1
    14    12    13    1
    15    13    14    1
    16    14    15   ar
    17    14    19   ar
    18    15    16   ar
    19    16    17   ar
    20    16    21    1
    21    17    18   ar
    22    18    19   ar
    23    18    20    1
