@<TRIPOS>MOLECULE
29238_ChemDiv_6350-0041
 27 29 0 0 0
SMALL
GASTEIGER
Energy = 0

@<TRIPOS>ATOM
      1 C           1.2500   -0.6330    0.0000 C.3     1  LIG1        0.1697
      2 C           2.2460   -0.6330    0.0000 C.3     1  LIG1        0.1015
      3 C           2.7460   -1.4960    0.0000 C.3     1  LIG1        0.1421
      4 N           3.7460   -1.4960    0.0000 N.4     1  LIG1        0.3813
      5 C           4.2460   -2.3580    0.0000 C.3     1  LIG1        0.1713
      6 C           5.2540   -2.3580    0.0000 C.3     1  LIG1        0.2047
      7 O           5.7540   -1.4960    0.0000 O.3     1  LIG1       -0.3411
      8 C           5.2540   -0.6290    0.0000 C.3     1  LIG1        0.2047
      9 C           4.2540   -0.6290    0.0000 C.3     1  LIG1        0.1713
     10 C           0.2500   -0.6330    0.0000 C.ar    1  LIG1        0.0093
     11 C          -0.2500   -1.4960    0.0000 C.ar    1  LIG1        0.0015
     12 C          -1.2540   -1.4960    0.0000 C.ar    1  LIG1        0.0367
     13 C          -1.7500   -0.6330    0.0000 C.ar    1  LIG1        0.1385
     14 C          -1.2540    0.2330    0.0000 C.ar    1  LIG1        0.0367
     15 C          -0.2500    0.2330    0.0000 C.ar    1  LIG1        0.0015
     16 O          -2.7500   -0.6330    0.0000 O.3     1  LIG1       -0.4755
     17 C          -3.2500    0.2290    0.0000 C.3     1  LIG1        0.2054
     18 C          -4.2580    0.2290    0.0000 C.3     1  LIG1        0.0473
     19 C          -4.7580    1.0920    0.0000 C.3     1  LIG1        0.0038
     20 C          -5.7580    1.0920    0.0000 C.3     1  LIG1        0.0001
     21 C           1.2500    0.3670    0.0000 C.ar    1  LIG1        0.0091
     22 C           2.1130    0.8630    0.0000 C.ar    1  LIG1       -0.0016
     23 C           2.1130    1.8630    0.0000 C.ar    1  LIG1       -0.0002
     24 C           1.2500    2.3630    0.0000 C.ar    1  LIG1       -0.0000
     25 C           0.3710    1.8630    0.0000 C.ar    1  LIG1       -0.0002
     26 C           0.3830    0.8630    0.0000 C.ar    1  LIG1       -0.0016
     27 O           1.2500   -1.6330    0.0000 O.3     1  LIG1       -0.2164
@<TRIPOS>BOND
     1     1     2    1
     2     1    10    1
     3     1    21    1
     4     1    27    1
     5     2     3    1
     6     3     4    1
     7     4     5    1
     8     4     9    1
     9     5     6    1
    10     6     7    1
    11     7     8    1
    12     8     9    1
    13    10    11   ar
    14    10    15   ar
    15    11    12   ar
    16    12    13   ar
    17    13    14   ar
    18    13    16    1
    19    14    15   ar
    20    16    17    1
    21    17    18    1
    22    18    19    1
    23    19    20    1
    24    21    22   ar
    25    21    26   ar
    26    22    23   ar
    27    23    24   ar
    28    24    25   ar
    29    25    26   ar
