@<TRIPOS>MOLECULE
29236_ChemDiv_6136-0155
 26 28 0 0 0
SMALL
GASTEIGER
Energy = 0

@<TRIPOS>ATOM
      1 C           2.5290   -0.4500    0.0000 C.2     1  LIG1        0.2264
      2 C           1.5290   -0.4500    0.0000 C.3     1  LIG1        0.0940
      3 C           1.0330    0.4210    0.0000 C.3     1  LIG1        0.0536
      4 C           0.0330    0.4210    0.0000 C.ar    1  LIG1       -0.0177
      5 C          -0.5040    1.2670    0.0000 C.ar    1  LIG1       -0.0008
      6 C          -1.5040    1.2290    0.0000 C.ar    1  LIG1        0.0366
      7 C          -1.9710    0.3460    0.0000 C.ar    1  LIG1        0.1384
      8 O          -2.9750    0.3080    0.0000 O.3     1  LIG1       -0.4792
      9 C          -3.5130    1.1630    0.0000 C.3     1  LIG1        0.1661
     10 C          -3.0460    2.0460    0.0000 C.3     1  LIG1        0.0472
     11 C          -4.5080    1.1210    0.0000 C.3     1  LIG1        0.0472
     12 C          -1.4420   -0.5080    0.0000 C.ar    1  LIG1        0.0366
     13 C          -0.4290   -0.4670    0.0000 C.ar    1  LIG1       -0.0008
     14 C           1.5290    1.2880    0.0000 C.ar    1  LIG1       -0.0179
     15 C           1.0210    2.1500    0.0000 C.ar    1  LIG1       -0.0039
     16 C           1.5130    3.0210    0.0000 C.ar    1  LIG1       -0.0003
     17 C           2.5170    3.0380    0.0000 C.ar    1  LIG1       -0.0000
     18 C           3.0290    2.1670    0.0000 C.ar    1  LIG1       -0.0003
     19 C           2.5290    1.3000    0.0000 C.ar    1  LIG1       -0.0039
     20 N           3.0250   -1.3080    0.0000 N.am    1  LIG1       -0.2744
     21 C           4.0130   -1.3080    0.0000 C.3     1  LIG1        0.1255
     22 C           4.5040   -2.1750    0.0000 C.3     1  LIG1        0.1636
     23 O           3.9960   -3.0330    0.0000 O.3     1  LIG1       -0.3501
     24 C           3.0080   -3.0210    0.0000 C.3     1  LIG1        0.1636
     25 C           2.5170   -2.1630    0.0000 C.3     1  LIG1        0.1255
     26 O           3.0290    0.4210    0.0000 O.2     1  LIG1       -0.2748
@<TRIPOS>BOND
     1     1     2    1
     2     1    20   am
     3     1    26    2
     4     2     3    1
     5     3     4    1
     6     3    14    1
     7     4     5   ar
     8     4    13   ar
     9     5     6   ar
    10     6     7   ar
    11     7     8    1
    12     7    12   ar
    13     8     9    1
    14     9    10    1
    15     9    11    1
    16    12    13   ar
    17    14    15   ar
    18    14    19   ar
    19    15    16   ar
    20    16    17   ar
    21    17    18   ar
    22    18    19   ar
    23    20    21    1
    24    20    25    1
    25    21    22    1
    26    22    23    1
    27    23    24    1
    28    24    25    1
