@<TRIPOS>MOLECULE
29235_ChemDiv_3347-1043
 27 31 0 0 0
SMALL
GASTEIGER
Energy = 0

@<TRIPOS>ATOM
      1 C          -0.0750    0.7250    0.0000 C.ar    1  LIG1        0.0946
      2 C          -0.0750    1.7170    0.0000 C.ar    1  LIG1        0.0228
      3 C           0.7830    2.2130    0.0000 C.ar    1  LIG1        0.0323
      4 C           0.7960    3.1630    0.0000 C.2     1  LIG1        0.1728
      5 C           1.6380    3.6460    0.0000 C.3     1  LIG1        0.0694
      6 C           2.5000    3.1500    0.0000 C.3     1  LIG1        0.0113
      7 C           2.4670    2.1630    0.0000 C.3     1  LIG1        0.0269
      8 C           1.6210    1.7040    0.0000 C.ar    1  LIG1       -0.0181
      9 C           1.6210    0.7250    0.0000 C.ar    1  LIG1        0.0119
     10 C           0.7710    0.2330    0.0000 C.ar    1  LIG1        0.0657
     11 N           0.7710   -0.7460    0.0000 N.pl3   1  LIG1       -0.2960
     12 C           1.6210   -1.2290    0.0000 C.3     1  LIG1        0.1544
     13 C           1.5960   -2.2080    0.0000 C.3     1  LIG1        0.1608
     14 N           0.7580   -2.6920    0.0000 N.4     1  LIG1        0.3847
     15 C          -0.0880   -2.1960    0.0000 C.3     1  LIG1        0.1608
     16 C          -0.0880   -1.2170    0.0000 C.3     1  LIG1        0.1544
     17 C           0.7540   -3.6630    0.0000 C.3     1  LIG1        0.2024
     18 C           3.3420    3.6460    0.0000 C.3     1  LIG1        0.0008
     19 C           3.4290    2.8920    0.0000 C.3     1  LIG1        0.0008
     20 O          -0.0540    3.6670    0.0000 O.2     1  LIG1       -0.2913
     21 C          -1.7750    1.7040    0.0000 C.ar    1  LIG1        0.0192
     22 C          -1.7630    0.7250    0.0000 C.ar    1  LIG1        0.0813
     23 N          -0.9130    0.2330    0.0000 N.ar    1  LIG1       -0.2441
     24 C          -2.6080    0.2330    0.0000 C.ar    1  LIG1        0.0191
     25 C          -3.4330    0.7250    0.0000 C.ar    1  LIG1        0.0015
     26 C          -3.4330    1.7040    0.0000 C.ar    1  LIG1        0.0001
     27 C          -2.6080    2.2130    0.0000 C.ar    1  LIG1        0.0015
@<TRIPOS>BOND
     1     1     2   ar
     2     1    10   ar
     3     1    23   ar
     4     2     3   ar
     5     2    21   ar
     6     3     4    1
     7     3     8   ar
     8     4     5    1
     9     4    20    2
    10     5     6    1
    11     6     7    1
    12     6    18    1
    13     6    19    1
    14     7     8    1
    15     8     9   ar
    16     9    10   ar
    17    10    11    1
    18    11    12    1
    19    11    16    1
    20    12    13    1
    21    13    14    1
    22    14    15    1
    23    14    17    1
    24    15    16    1
    25    21    22   ar
    26    21    27   ar
    27    22    23   ar
    28    22    24   ar
    29    24    25   ar
    30    25    26   ar
    31    26    27   ar
