@<TRIPOS>MOLECULE
29245_ChemDiv_K784-5387
 32 35 0 0 0
SMALL
GASTEIGER
Energy = 0

@<TRIPOS>ATOM
      1 C           0.8670    0.5000    0.0000 C.2     1  LIG1        0.2484
      2 N           1.7250    1.0130    0.0000 N.am    1  LIG1       -0.2713
      3 C           2.5960    0.5000    0.0000 C.3     1  LIG1        0.1793
      4 C           2.5960   -0.5000    0.0000 C.2     1  LIG1        0.2464
      5 N           1.7250   -1.0000    0.0000 N.am    1  LIG1       -0.2699
      6 C           0.8670   -0.5000    0.0000 C.3     1  LIG1        0.1751
      7 C          -0.0080   -1.0000    0.0000 C.ar    1  LIG1        0.0077
      8 C          -0.8750   -0.5000    0.0000 C.ar    1  LIG1        0.0379
      9 C          -1.7460   -1.0000    0.0000 C.ar    1  LIG1        0.1721
     10 C          -1.7460   -2.0080    0.0000 C.ar    1  LIG1        0.1720
     11 O          -2.6080   -2.4960    0.0000 O.3     1  LIG1       -0.4761
     12 C          -2.6000   -3.4920    0.0000 C.3     1  LIG1        0.1663
     13 C          -3.4710   -4.0040    0.0000 C.3     1  LIG1        0.0472
     14 C          -1.7380   -3.9920    0.0000 C.3     1  LIG1        0.0472
     15 C          -0.8710   -2.5130    0.0000 C.ar    1  LIG1        0.0398
     16 C          -0.0080   -1.9960    0.0000 C.ar    1  LIG1        0.0011
     17 O          -2.6080   -0.5000    0.0000 O.3     1  LIG1       -0.4684
     18 C          -3.4710   -1.0000    0.0000 C.3     1  LIG1        0.2526
     19 C           1.7250   -1.9920    0.0000 C.3     1  LIG1        0.0761
     20 C           0.8540   -2.4790    0.0000 C.3     1  LIG1        0.0198
     21 C           0.8540   -3.4790    0.0000 C.3     1  LIG1        0.0017
     22 C           1.7170   -3.9790    0.0000 C.3     1  LIG1        0.0001
     23 C           2.5790   -3.4880    0.0000 C.3     1  LIG1        0.0017
     24 C           2.5880   -2.4790    0.0000 C.3     1  LIG1        0.0198
     25 O           3.4670   -1.0000    0.0000 O.2     1  LIG1       -0.2730
     26 C           1.7330    2.0130    0.0000 C.3     1  LIG1        0.0759
     27 C           2.5960    2.5000    0.0000 C.3     1  LIG1        0.0198
     28 C           2.6040    3.4960    0.0000 C.3     1  LIG1        0.0017
     29 C           1.7420    4.0040    0.0000 C.3     1  LIG1        0.0001
     30 C           0.8710    3.5080    0.0000 C.3     1  LIG1        0.0017
     31 C           0.8670    2.5080    0.0000 C.3     1  LIG1        0.0198
     32 O          -0.0080    1.0040    0.0000 O.2     1  LIG1       -0.2727
@<TRIPOS>BOND
     1     1     2   am
     2     1     6    1
     3     1    32    2
     4     2     3    1
     5     2    26    1
     6     3     4    1
     7     4     5   am
     8     4    25    2
     9     5     6    1
    10     5    19    1
    11     6     7    1
    12     7     8   ar
    13     7    16   ar
    14     8     9   ar
    15     9    10   ar
    16     9    17    1
    17    10    11    1
    18    10    15   ar
    19    11    12    1
    20    12    13    1
    21    12    14    1
    22    15    16   ar
    23    17    18    1
    24    19    20    1
    25    19    24    1
    26    20    21    1
    27    21    22    1
    28    22    23    1
    29    23    24    1
    30    26    27    1
    31    26    31    1
    32    27    28    1
    33    28    29    1
    34    29    30    1
    35    30    31    1
