@<TRIPOS>MOLECULE
29240_ChemDiv_8010-3097
 27 30 0 0 0
SMALL
GASTEIGER
Energy = 0

@<TRIPOS>ATOM
      1 C          -0.3420   -0.5500    0.0000 C.3     1  LIG1        0.1379
      2 C          -0.9380   -1.3670    0.0000 C.2     1  LIG1        0.1835
      3 C          -1.9000   -1.0500    0.0000 C.ar    1  LIG1        0.0382
      4 C          -1.8880   -0.0460    0.0000 C.ar    1  LIG1        0.0382
      5 C          -0.9380    0.2580    0.0000 C.2     1  LIG1        0.1835
      6 O          -0.9380    1.2670    0.0000 O.2     1  LIG1       -0.2906
      7 C          -2.7540    0.4540    0.0000 C.ar    1  LIG1        0.0030
      8 C          -3.6210   -0.0460    0.0000 C.ar    1  LIG1        0.0001
      9 C          -3.6210   -1.0500    0.0000 C.ar    1  LIG1        0.0001
     10 C          -2.7540   -1.5460    0.0000 C.ar    1  LIG1        0.0030
     11 O          -0.9540   -2.3540    0.0000 O.2     1  LIG1       -0.2906
     12 C           0.1540   -1.4170    0.0000 C.3     1  LIG1        0.1040
     13 C           1.0080   -1.9250    0.0000 C.2     1  LIG1        0.2270
     14 N           1.8750   -1.4000    0.0000 N.am    1  LIG1       -0.2744
     15 C           1.8580   -0.4080    0.0000 C.3     1  LIG1        0.1255
     16 C           2.7380    0.0880    0.0000 C.3     1  LIG1        0.1636
     17 O           3.6170   -0.4080    0.0000 O.3     1  LIG1       -0.3501
     18 C           3.6170   -1.4000    0.0000 C.3     1  LIG1        0.1636
     19 C           2.7460   -1.9080    0.0000 C.3     1  LIG1        0.1255
     20 O           1.0080   -2.9170    0.0000 O.2     1  LIG1       -0.2748
     21 C           0.1540    0.3210    0.0000 C.ar    1  LIG1       -0.0085
     22 C           1.1460    0.3210    0.0000 C.ar    1  LIG1       -0.0026
     23 C           1.6460    1.1830    0.0000 C.ar    1  LIG1        0.0111
     24 C           1.1460    2.0580    0.0000 C.ar    1  LIG1        0.0577
     25 C           0.1540    2.0420    0.0000 C.ar    1  LIG1        0.0111
     26 C          -0.3420    1.1830    0.0000 C.ar    1  LIG1       -0.0026
     27 CL          1.6290    2.9210    0.0000 Cl      1  LIG1       -0.0822
@<TRIPOS>BOND
     1     1     2    1
     2     1     5    1
     3     1    12    1
     4     1    21    1
     5     2     3    1
     6     2    11    2
     7     3     4   ar
     8     3    10   ar
     9     4     5    1
    10     4     7   ar
    11     5     6    2
    12     7     8   ar
    13     8     9   ar
    14     9    10   ar
    15    12    13    1
    16    13    14   am
    17    13    20    2
    18    14    15    1
    19    14    19    1
    20    15    16    1
    21    16    17    1
    22    17    18    1
    23    18    19    1
    24    21    22   ar
    25    21    26   ar
    26    22    23   ar
    27    23    24   ar
    28    24    25   ar
    29    24    27    1
    30    25    26   ar
