@<TRIPOS>MOLECULE
29241_ChemDiv_K784-5179
 32 34 0 0 0
SMALL
GASTEIGER
Energy = 0

@<TRIPOS>ATOM
      1 C           0.4420    1.2210    0.0000 C.2     1  LIG1        0.2484
      2 N           1.3040    1.7290    0.0000 N.am    1  LIG1       -0.2713
      3 C           2.1710    1.2210    0.0000 C.3     1  LIG1        0.1793
      4 C           2.1710    0.2170    0.0000 C.2     1  LIG1        0.2465
      5 N           1.3040   -0.2750    0.0000 N.am    1  LIG1       -0.2682
      6 C           0.4420    0.2170    0.0000 C.3     1  LIG1        0.1751
      7 C          -0.4290   -0.2790    0.0000 C.ar    1  LIG1        0.0077
      8 C          -1.2960    0.2170    0.0000 C.ar    1  LIG1        0.0379
      9 C          -2.1710   -0.2790    0.0000 C.ar    1  LIG1        0.1721
     10 C          -2.1710   -1.2790    0.0000 C.ar    1  LIG1        0.1722
     11 C          -1.2920   -1.7880    0.0000 C.ar    1  LIG1        0.0398
     12 C          -0.4290   -1.2790    0.0000 C.ar    1  LIG1        0.0011
     13 O          -3.0210   -1.7750    0.0000 O.3     1  LIG1       -0.4724
     14 C          -3.0210   -2.7750    0.0000 C.3     1  LIG1        0.2056
     15 C          -3.8830   -3.2750    0.0000 C.3     1  LIG1        0.0473
     16 C          -3.8830   -4.2710    0.0000 C.3     1  LIG1        0.0040
     17 O          -3.0330    0.2170    0.0000 O.3     1  LIG1       -0.4684
     18 C          -3.8920   -0.2790    0.0000 C.3     1  LIG1        0.2526
     19 C           1.3040   -1.2630    0.0000 C.3     1  LIG1        0.0968
     20 C           2.1670   -1.7630    0.0000 C.3     1  LIG1        0.0536
     21 C           2.1670   -2.7540    0.0000 C.3     1  LIG1        0.1439
     22 O           3.0290   -3.2460    0.0000 O.3     1  LIG1       -0.3537
     23 C           3.0290   -4.2420    0.0000 C.3     1  LIG1        0.1422
     24 C           3.8880   -4.7380    0.0000 C.3     1  LIG1        0.0346
     25 O           3.0420   -0.2790    0.0000 O.2     1  LIG1       -0.2730
     26 C           1.3080    2.7330    0.0000 C.3     1  LIG1        0.0759
     27 C           2.1790    3.2330    0.0000 C.3     1  LIG1        0.0198
     28 C           2.1790    4.2250    0.0000 C.3     1  LIG1        0.0017
     29 C           1.3080    4.7380    0.0000 C.3     1  LIG1        0.0001
     30 C           0.4420    4.2380    0.0000 C.3     1  LIG1        0.0017
     31 C           0.4290    3.2330    0.0000 C.3     1  LIG1        0.0198
     32 O          -0.4290    1.7290    0.0000 O.2     1  LIG1       -0.2727
@<TRIPOS>BOND
     1     1     2   am
     2     1     6    1
     3     1    32    2
     4     2     3    1
     5     2    26    1
     6     3     4    1
     7     4     5   am
     8     4    25    2
     9     5     6    1
    10     5    19    1
    11     6     7    1
    12     7     8   ar
    13     7    12   ar
    14     8     9   ar
    15     9    10   ar
    16     9    17    1
    17    10    11   ar
    18    10    13    1
    19    11    12   ar
    20    13    14    1
    21    14    15    1
    22    15    16    1
    23    17    18    1
    24    19    20    1
    25    20    21    1
    26    21    22    1
    27    22    23    1
    28    23    24    1
    29    26    27    1
    30    26    31    1
    31    27    28    1
    32    28    29    1
    33    29    30    1
    34    30    31    1
