@<TRIPOS>MOLECULE
29242_ChemDiv_8011-8155
 24 26 0 0 0
SMALL
GASTEIGER
Energy = 0

@<TRIPOS>ATOM
      1 C          -1.0330    1.2790    0.0000 C.2     1  LIG1        0.2266
      2 C          -0.5290    0.4170    0.0000 C.3     1  LIG1        0.0973
      3 C           0.4710    0.4170    0.0000 C.3     1  LIG1        0.0932
      4 C           0.9710    1.2790    0.0000 C.2     1  LIG1        0.1771
      5 O           0.4290    2.1630    0.0000 O.2     1  LIG1       -0.2910
      6 C           2.0000    1.2790    0.0000 C.ar    1  LIG1        0.0350
      7 C           2.5250    2.1290    0.0000 C.ar    1  LIG1        0.0029
      8 C           3.5210    2.1290    0.0000 C.ar    1  LIG1        0.0001
      9 C           4.0170    1.2790    0.0000 C.ar    1  LIG1        0.0000
     10 C           3.5000    0.4080    0.0000 C.ar    1  LIG1        0.0001
     11 C           2.5040    0.4080    0.0000 C.ar    1  LIG1        0.0029
     12 C           1.0000   -0.4330    0.0000 C.ar    1  LIG1       -0.0147
     13 C           0.5040   -1.3040    0.0000 C.ar    1  LIG1       -0.0038
     14 C           1.0000   -2.1580    0.0000 C.ar    1  LIG1       -0.0003
     15 C           2.0000   -2.1580    0.0000 C.ar    1  LIG1       -0.0000
     16 C           2.5040   -1.3040    0.0000 C.ar    1  LIG1       -0.0003
     17 C           2.0000   -0.4330    0.0000 C.ar    1  LIG1       -0.0038
     18 N          -2.0130    1.2790    0.0000 N.am    1  LIG1       -0.2744
     19 C          -2.5170    2.1460    0.0000 C.3     1  LIG1        0.1255
     20 C          -3.5000    2.1460    0.0000 C.3     1  LIG1        0.1636
     21 O          -4.0210    1.2790    0.0000 O.3     1  LIG1       -0.3501
     22 C          -3.5130    0.4170    0.0000 C.3     1  LIG1        0.1636
     23 C          -2.5250    0.4170    0.0000 C.3     1  LIG1        0.1255
     24 O          -0.5380    2.1460    0.0000 O.2     1  LIG1       -0.2748
@<TRIPOS>BOND
     1     1     2    1
     2     1    18   am
     3     1    24    2
     4     2     3    1
     5     3     4    1
     6     3    12    1
     7     4     5    2
     8     4     6    1
     9     6     7   ar
    10     6    11   ar
    11     7     8   ar
    12     8     9   ar
    13     9    10   ar
    14    10    11   ar
    15    12    13   ar
    16    12    17   ar
    17    13    14   ar
    18    14    15   ar
    19    15    16   ar
    20    16    17   ar
    21    18    19    1
    22    18    23    1
    23    19    20    1
    24    20    21    1
    25    21    22    1
    26    22    23    1
