@<TRIPOS>MOLECULE
29248_ChemDiv_D025-0019
 29 32 0 0 0
SMALL
GASTEIGER
Energy = 0

@<TRIPOS>ATOM
      1 C           0.2500   -0.1960    0.0000 C.3     1  LIG1        0.1150
      2 C          -0.7500   -0.1960    0.0000 C.3     1  LIG1        0.1732
      3 C          -0.7500    0.8000    0.0000 C.ar    1  LIG1        0.0091
      4 C           0.1210    1.3000    0.0000 C.ar    1  LIG1       -0.0059
      5 C           0.1210    2.3000    0.0000 C.ar    1  LIG1       -0.0221
      6 C          -0.7500    2.8000    0.0000 C.ar    1  LIG1       -0.0043
      7 C          -1.6210    2.2920    0.0000 C.ar    1  LIG1       -0.0006
      8 C          -1.6130    1.3000    0.0000 C.ar    1  LIG1       -0.0016
      9 C           0.9830    2.8000    0.0000 C.3     1  LIG1        0.0310
     10 C          -1.7460   -0.1960    0.0000 C.ar    1  LIG1        0.0094
     11 C          -2.2460   -1.0580    0.0000 C.ar    1  LIG1       -0.0016
     12 C          -3.2540   -1.0580    0.0000 C.ar    1  LIG1       -0.0002
     13 C          -3.7540   -0.1960    0.0000 C.ar    1  LIG1       -0.0000
     14 C          -3.2540    0.6670    0.0000 C.ar    1  LIG1       -0.0002
     15 C          -2.2460    0.6670    0.0000 C.ar    1  LIG1       -0.0016
     16 O          -0.7500   -1.1960    0.0000 O.3     1  LIG1       -0.2161
     17 C           0.7500    0.6670    0.0000 C.3     1  LIG1        0.1462
     18 N           1.7540    0.6670    0.0000 N.4     1  LIG1        0.3816
     19 C           2.2540   -0.1960    0.0000 C.3     1  LIG1        0.1713
     20 C           3.2500   -0.1960    0.0000 C.3     1  LIG1        0.2047
     21 O           3.7500    0.6670    0.0000 O.3     1  LIG1       -0.3411
     22 C           3.2500    1.5330    0.0000 C.3     1  LIG1        0.2047
     23 C           2.2540    1.5330    0.0000 C.3     1  LIG1        0.1713
     24 C           0.7500   -1.0580    0.0000 C.ar    1  LIG1       -0.0137
     25 C           1.7540   -1.0580    0.0000 C.ar    1  LIG1       -0.0040
     26 C           2.2540   -1.9210    0.0000 C.ar    1  LIG1       -0.0003
     27 C           1.7540   -2.7960    0.0000 C.ar    1  LIG1       -0.0000
     28 C           0.7500   -2.7960    0.0000 C.ar    1  LIG1       -0.0003
     29 C           0.2500   -1.9210    0.0000 C.ar    1  LIG1       -0.0040
@<TRIPOS>BOND
     1     1     2    1
     2     1    17    1
     3     1    24    1
     4     2     3    1
     5     2    10    1
     6     2    16    1
     7     3     4   ar
     8     3     8   ar
     9     4     5   ar
    10     5     6   ar
    11     5     9    1
    12     6     7   ar
    13     7     8   ar
    14    10    11   ar
    15    10    15   ar
    16    11    12   ar
    17    12    13   ar
    18    13    14   ar
    19    14    15   ar
    20    17    18    1
    21    18    19    1
    22    18    23    1
    23    19    20    1
    24    20    21    1
    25    21    22    1
    26    22    23    1
    27    24    25   ar
    28    24    29   ar
    29    25    26   ar
    30    26    27   ar
    31    27    28   ar
    32    28    29   ar
