@<TRIPOS>MOLECULE
29243_ChemDiv_K784-5384
 34 37 0 0 0
SMALL
GASTEIGER
Energy = 0

@<TRIPOS>ATOM
      1 C           0.8670    1.2290    0.0000 C.2     1  LIG1        0.2484
      2 N           1.7290    1.7420    0.0000 N.am    1  LIG1       -0.2713
      3 C           2.5960    1.2290    0.0000 C.3     1  LIG1        0.1793
      4 C           2.5960    0.2290    0.0000 C.2     1  LIG1        0.2465
      5 N           1.7290   -0.2710    0.0000 N.am    1  LIG1       -0.2679
      6 C           0.8670    0.2290    0.0000 C.3     1  LIG1        0.1751
      7 C          -0.0080   -0.2710    0.0000 C.ar    1  LIG1        0.0077
      8 C          -0.8750    0.2290    0.0000 C.ar    1  LIG1        0.0379
      9 C          -1.7500   -0.2710    0.0000 C.ar    1  LIG1        0.1721
     10 C          -1.7500   -1.2790    0.0000 C.ar    1  LIG1        0.1720
     11 O          -2.6130   -1.7710    0.0000 O.3     1  LIG1       -0.4761
     12 C          -2.6000   -2.7670    0.0000 C.3     1  LIG1        0.1663
     13 C          -3.4750   -3.2790    0.0000 C.3     1  LIG1        0.0472
     14 C          -1.7380   -3.2670    0.0000 C.3     1  LIG1        0.0472
     15 C          -0.8710   -1.7830    0.0000 C.ar    1  LIG1        0.0398
     16 C          -0.0080   -1.2710    0.0000 C.ar    1  LIG1        0.0011
     17 O          -2.6130    0.2290    0.0000 O.3     1  LIG1       -0.4684
     18 C          -3.4750   -0.2710    0.0000 C.3     1  LIG1        0.2526
     19 C           1.7290   -1.2630    0.0000 C.3     1  LIG1        0.0988
     20 C           2.5920   -1.7630    0.0000 C.3     1  LIG1        0.0479
     21 C           2.5920   -2.7540    0.0000 C.ar    1  LIG1       -0.0205
     22 C           1.7210   -3.2540    0.0000 C.ar    1  LIG1       -0.0042
     23 C           1.7210   -4.2380    0.0000 C.ar    1  LIG1       -0.0003
     24 C           2.5830   -4.7380    0.0000 C.ar    1  LIG1       -0.0000
     25 C           3.4460   -4.2380    0.0000 C.ar    1  LIG1       -0.0003
     26 C           3.4460   -3.2460    0.0000 C.ar    1  LIG1       -0.0042
     27 O           3.4710   -0.2710    0.0000 O.2     1  LIG1       -0.2730
     28 C           1.7330    2.7420    0.0000 C.3     1  LIG1        0.0759
     29 C           2.5960    3.2330    0.0000 C.3     1  LIG1        0.0198
     30 C           2.6080    4.2290    0.0000 C.3     1  LIG1        0.0017
     31 C           1.7460    4.7380    0.0000 C.3     1  LIG1        0.0001
     32 C           0.8710    4.2380    0.0000 C.3     1  LIG1        0.0017
     33 C           0.8670    3.2420    0.0000 C.3     1  LIG1        0.0198
     34 O          -0.0080    1.7330    0.0000 O.2     1  LIG1       -0.2727
@<TRIPOS>BOND
     1     1     2   am
     2     1     6    1
     3     1    34    2
     4     2     3    1
     5     2    28    1
     6     3     4    1
     7     4     5   am
     8     4    27    2
     9     5     6    1
    10     5    19    1
    11     6     7    1
    12     7     8   ar
    13     7    16   ar
    14     8     9   ar
    15     9    10   ar
    16     9    17    1
    17    10    11    1
    18    10    15   ar
    19    11    12    1
    20    12    13    1
    21    12    14    1
    22    15    16   ar
    23    17    18    1
    24    19    20    1
    25    20    21    1
    26    21    22   ar
    27    21    26   ar
    28    22    23   ar
    29    23    24   ar
    30    24    25   ar
    31    25    26   ar
    32    28    29    1
    33    28    33    1
    34    29    30    1
    35    30    31    1
    36    31    32    1
    37    32    33    1
