@<TRIPOS>MOLECULE
29246_ChemDiv_8013-3642
 16 17 0 0 0
SMALL
GASTEIGER
Energy = 0

@<TRIPOS>ATOM
      1 N           1.3170    0.0040    0.0000 N.4     1  LIG1        0.3813
      2 C           0.4500    0.5040    0.0000 C.3     1  LIG1        0.1418
      3 C          -0.4130    0.0040    0.0000 C.3     1  LIG1        0.1001
      4 C          -1.2750    0.5040    0.0000 C.3     1  LIG1        0.1802
      5 C          -2.1380    0.0040    0.0000 C.ar    1  LIG1        0.0079
      6 C          -2.1380   -0.9960    0.0000 C.ar    1  LIG1       -0.0018
      7 C          -3.0080   -1.4960    0.0000 C.ar    1  LIG1       -0.0002
      8 C          -3.8670   -0.9960    0.0000 C.ar    1  LIG1       -0.0000
      9 C          -3.8670    0.0040    0.0000 C.ar    1  LIG1       -0.0002
     10 C          -3.0080    0.5040    0.0000 C.ar    1  LIG1       -0.0018
     11 O          -1.2750    1.5000    0.0000 O.3     1  LIG1       -0.2181
     12 C           1.9500   -0.7710    0.0000 C.3     1  LIG1        0.1713
     13 C           2.8670   -0.3630    0.0000 C.3     1  LIG1        0.2047
     14 O           3.8630   -0.4830    0.0000 O.3     1  LIG1       -0.3411
     15 C           3.2250    0.2960    0.0000 C.3     1  LIG1        0.2047
     16 C           2.3130   -0.1130    0.0000 C.3     1  LIG1        0.1713
@<TRIPOS>BOND
     1     1     2    1
     2     1    12    1
     3     1    16    1
     4     2     3    1
     5     3     4    1
     6     4     5    1
     7     4    11    1
     8     5     6   ar
     9     5    10   ar
    10     6     7   ar
    11     7     8   ar
    12     8     9   ar
    13     9    10   ar
    14    12    13    1
    15    13    14    1
    16    14    15    1
    17    15    16    1
