@<TRIPOS>MOLECULE
29249_ChemDiv_6395-0017
 20 23 0 0 0
SMALL
GASTEIGER
Energy = 0

@<TRIPOS>ATOM
      1 N           0.9630    1.3290    0.0000 N.am    1  LIG1       -0.1725
      2 N           0.3380    2.1880    0.0000 N.2     1  LIG1       -0.1784
      3 C          -0.6630    1.8580    0.0000 C.2     1  LIG1        0.1067
      4 C          -0.6630    0.8080    0.0000 C.3     1  LIG1        0.1497
      5 C           0.3380    0.4790    0.0000 C.3     1  LIG1        0.1777
      6 C           0.6420   -0.4670    0.0000 C.ar    1  LIG1        0.0037
      7 C          -0.0290   -1.2130    0.0000 C.ar    1  LIG1       -0.0024
      8 C           0.2750   -2.1670    0.0000 C.ar    1  LIG1       -0.0003
      9 C           1.2500   -2.3790    0.0000 C.ar    1  LIG1       -0.0000
     10 C           1.9290   -1.6330    0.0000 C.ar    1  LIG1       -0.0003
     11 C           1.6130   -0.6790    0.0000 C.ar    1  LIG1       -0.0024
     12 N          -1.5750    0.2920    0.0000 N.4     1  LIG1        0.3786
     13 C          -1.2000    1.0210    0.0000 C.3     1  LIG1        0.1393
     14 C          -1.8290    1.6170    0.0000 C.3     1  LIG1        0.0688
     15 C          -1.5750    2.3830    0.0000 C.3     1  LIG1        0.0552
     16 C          -2.4670    1.8540    0.0000 C.3     1  LIG1        0.0688
     17 C          -2.4670    0.8080    0.0000 C.3     1  LIG1        0.1393
     18 C           1.9630    1.3210    0.0000 C.2     1  LIG1        0.2452
     19 O           2.4580    0.4580    0.0000 O.2     1  LIG1       -0.2731
     20 C           2.4630    2.1880    0.0000 C.3     1  LIG1        0.0966
@<TRIPOS>BOND
     1     1     2    1
     2     1     5    1
     3     1    18   am
     4     2     3    2
     5     3     4    1
     6     3    15    1
     7     4     5    1
     8     4    12    1
     9     5     6    1
    10     6     7   ar
    11     6    11   ar
    12     7     8   ar
    13     8     9   ar
    14     9    10   ar
    15    10    11   ar
    16    12    13    1
    17    12    17    1
    18    13    14    1
    19    14    15    1
    20    15    16    1
    21    16    17    1
    22    18    19    2
    23    18    20    1
