@<TRIPOS>MOLECULE
29259_ChemDiv_D002-0031
 25 28 0 0 0
SMALL
GASTEIGER
Energy = 0

@<TRIPOS>ATOM
      1 N           0.8750    3.5080    0.0000 N.am    1  LIG1       -0.1725
      2 N           0.2920    4.3210    0.0000 N.2     1  LIG1       -0.1784
      3 C          -0.6630    4.0000    0.0000 C.2     1  LIG1        0.1067
      4 C          -0.6630    3.0130    0.0000 C.3     1  LIG1        0.1497
      5 C           0.2920    2.7000    0.0000 C.3     1  LIG1        0.1777
      6 C           0.6040    1.7580    0.0000 C.ar    1  LIG1        0.0039
      7 C          -0.0790    1.0040    0.0000 C.ar    1  LIG1        0.0007
      8 C           0.2420    0.0630    0.0000 C.ar    1  LIG1        0.0366
      9 C           1.2130   -0.1500    0.0000 C.ar    1  LIG1        0.1385
     10 C           1.8830    0.5960    0.0000 C.ar    1  LIG1        0.0366
     11 C           1.5790    1.5460    0.0000 C.ar    1  LIG1        0.0007
     12 O           1.5290   -1.1040    0.0000 O.3     1  LIG1       -0.4755
     13 C           0.8580   -1.8500    0.0000 C.3     1  LIG1        0.2054
     14 C           1.1710   -2.8040    0.0000 C.3     1  LIG1        0.0473
     15 C           0.5040   -3.5460    0.0000 C.3     1  LIG1        0.0038
     16 C           0.8040   -4.5000    0.0000 C.3     1  LIG1        0.0001
     17 N          -1.5290    2.5000    0.0000 N.4     1  LIG1        0.3786
     18 C          -1.0710    3.3880    0.0000 C.3     1  LIG1        0.1393
     19 C          -2.0290    3.6380    0.0000 C.3     1  LIG1        0.0688
     20 C          -1.5290    4.5000    0.0000 C.3     1  LIG1        0.0552
     21 C          -2.3830    4.0000    0.0000 C.3     1  LIG1        0.0688
     22 C          -2.3830    3.0040    0.0000 C.3     1  LIG1        0.1393
     23 C           1.8830    3.5080    0.0000 C.2     1  LIG1        0.2452
     24 O           2.3790    4.3710    0.0000 O.2     1  LIG1       -0.2731
     25 C           2.3790    2.6420    0.0000 C.3     1  LIG1        0.0966
@<TRIPOS>BOND
     1     1     2    1
     2     1     5    1
     3     1    23   am
     4     2     3    2
     5     3     4    1
     6     3    20    1
     7     4     5    1
     8     4    17    1
     9     5     6    1
    10     6     7   ar
    11     6    11   ar
    12     7     8   ar
    13     8     9   ar
    14     9    10   ar
    15     9    12    1
    16    10    11   ar
    17    12    13    1
    18    13    14    1
    19    14    15    1
    20    15    16    1
    21    17    18    1
    22    17    22    1
    23    18    19    1
    24    19    20    1
    25    20    21    1
    26    21    22    1
    27    23    24    2
    28    23    25    1
