@<TRIPOS>MOLECULE
29257_ChemDiv_D002-0029
 19 22 0 0 0
SMALL
GASTEIGER
Energy = 0

@<TRIPOS>ATOM
      1 N           0.8830    1.1670    0.0000 N.am    1  LIG1       -0.1720
      2 C           0.2920    0.3880    0.0000 C.3     1  LIG1        0.1835
      3 C          -0.6580    0.6880    0.0000 C.3     1  LIG1        0.1502
      4 C          -0.6580    1.6710    0.0000 C.2     1  LIG1        0.1067
      5 N           0.2920    1.9710    0.0000 N.2     1  LIG1       -0.1783
      6 C          -1.5210    2.1630    0.0000 C.3     1  LIG1        0.0552
      7 C          -2.0290    1.0960    0.0000 C.3     1  LIG1        0.0688
      8 C          -1.1170    1.1460    0.0000 C.3     1  LIG1        0.1393
      9 N          -1.5210    0.1960    0.0000 N.4     1  LIG1        0.3786
     10 C          -2.3790    0.6880    0.0000 C.3     1  LIG1        0.1393
     11 C          -2.3790    1.6710    0.0000 C.3     1  LIG1        0.0688
     12 C           0.6000   -0.5420    0.0000 C.ar    1  LIG1        0.0332
     13 S           0.1080   -1.4210    0.0000 S.2     1  LIG1       -0.0889
     14 C           0.7830   -2.1580    0.0000 C.ar    1  LIG1        0.0352
     15 C           1.6960   -1.7380    0.0000 C.ar    1  LIG1        0.0072
     16 C           1.5750   -0.7460    0.0000 C.ar    1  LIG1        0.0046
     17 C           1.8710    1.1670    0.0000 C.2     1  LIG1        0.2453
     18 O           2.3750    0.3170    0.0000 O.2     1  LIG1       -0.2731
     19 C           2.3750    2.0420    0.0000 C.3     1  LIG1        0.0966
@<TRIPOS>BOND
     1     1     2    1
     2     1     5    1
     3     1    17   am
     4     2     3    1
     5     2    12    1
     6     3     4    1
     7     3     9    1
     8     4     5    2
     9     4     6    1
    10     6     7    1
    11     6    11    1
    12     7     8    1
    13     8     9    1
    14     9    10    1
    15    10    11    1
    16    12    13   ar
    17    12    16   ar
    18    13    14   ar
    19    14    15   ar
    20    15    16   ar
    21    17    18    2
    22    17    19    1
