@<TRIPOS>MOLECULE
29251_ChemDiv_6395-0200
 24 28 0 0 0
SMALL
GASTEIGER
Energy = 0

@<TRIPOS>ATOM
      1 N           0.3830    1.3380    0.0000 N.am    1  LIG1       -0.1725
      2 N          -0.2290    2.1790    0.0000 N.2     1  LIG1       -0.1784
      3 C          -1.2250    1.8540    0.0000 C.2     1  LIG1        0.1067
      4 C          -1.2250    0.8130    0.0000 C.3     1  LIG1        0.1497
      5 C          -0.2290    0.4920    0.0000 C.3     1  LIG1        0.1777
      6 C           0.0830   -0.4630    0.0000 C.ar    1  LIG1        0.0037
      7 C           1.0670   -0.6710    0.0000 C.ar    1  LIG1       -0.0021
      8 C           1.3790   -1.6210    0.0000 C.ar    1  LIG1       -0.0002
      9 C           0.7040   -2.3790    0.0000 C.ar    1  LIG1       -0.0000
     10 C          -0.2830   -2.1710    0.0000 C.ar    1  LIG1       -0.0003
     11 C          -0.5920   -1.2080    0.0000 C.ar    1  LIG1       -0.0024
     12 C           2.3540   -1.8290    0.0000 C.ar    1  LIG1       -0.0000
     13 C           3.0210   -1.0830    0.0000 C.ar    1  LIG1       -0.0000
     14 C           2.7040   -0.1250    0.0000 C.ar    1  LIG1       -0.0000
     15 C           1.7290    0.0750    0.0000 C.ar    1  LIG1       -0.0003
     16 N          -2.1290    0.2920    0.0000 N.4     1  LIG1        0.3786
     17 C          -1.7630    1.0250    0.0000 C.3     1  LIG1        0.1393
     18 C          -2.3880    1.6210    0.0000 C.3     1  LIG1        0.0688
     19 C          -2.1290    2.3830    0.0000 C.3     1  LIG1        0.0552
     20 C          -3.0250    1.8540    0.0000 C.3     1  LIG1        0.0688
     21 C          -3.0250    0.8130    0.0000 C.3     1  LIG1        0.1393
     22 C           1.3920    1.3380    0.0000 C.2     1  LIG1        0.2452
     23 O           1.8960    2.2130    0.0000 O.2     1  LIG1       -0.2731
     24 C           1.8960    0.4670    0.0000 C.3     1  LIG1        0.0966
@<TRIPOS>BOND
     1     1     2    1
     2     1     5    1
     3     1    22   am
     4     2     3    2
     5     3     4    1
     6     3    19    1
     7     4     5    1
     8     4    16    1
     9     5     6    1
    10     6     7   ar
    11     6    11   ar
    12     7     8   ar
    13     7    15   ar
    14     8     9   ar
    15     8    12   ar
    16     9    10   ar
    17    10    11   ar
    18    12    13   ar
    19    13    14   ar
    20    14    15   ar
    21    16    17    1
    22    16    21    1
    23    17    18    1
    24    18    19    1
    25    19    20    1
    26    20    21    1
    27    22    23    2
    28    22    24    1
