@<TRIPOS>MOLECULE
29255_ChemDiv_D002-0018
 23 26 0 0 0
SMALL
GASTEIGER
Energy = 0

@<TRIPOS>ATOM
      1 N           0.3750    1.5960    0.0000 N.am    1  LIG1       -0.1726
      2 N          -0.2040    2.3960    0.0000 N.2     1  LIG1       -0.1784
      3 C          -1.1540    2.0880    0.0000 C.2     1  LIG1        0.1067
      4 C          -1.1540    1.0920    0.0000 C.3     1  LIG1        0.1497
      5 C          -0.2040    0.7880    0.0000 C.3     1  LIG1        0.1776
      6 C           0.0960   -0.1460    0.0000 C.ar    1  LIG1        0.0031
      7 C           1.0630   -0.3580    0.0000 C.ar    1  LIG1       -0.0067
      8 C           1.3750   -1.2920    0.0000 C.ar    1  LIG1       -0.0224
      9 C           0.7130   -2.0460    0.0000 C.ar    1  LIG1       -0.0085
     10 C          -0.2580   -1.8330    0.0000 C.ar    1  LIG1       -0.0224
     11 C          -0.5630   -0.8880    0.0000 C.ar    1  LIG1       -0.0067
     12 C          -0.9250   -2.5790    0.0000 C.3     1  LIG1        0.0310
     13 C           2.3500   -1.5040    0.0000 C.3     1  LIG1        0.0310
     14 N          -2.0080    0.5920    0.0000 N.4     1  LIG1        0.3786
     15 C          -1.5960    1.5630    0.0000 C.3     1  LIG1        0.1393
     16 C          -2.5130    1.5080    0.0000 C.3     1  LIG1        0.0688
     17 C          -2.0080    2.5830    0.0000 C.3     1  LIG1        0.0552
     18 C          -2.8630    2.0880    0.0000 C.3     1  LIG1        0.0688
     19 C          -2.8630    1.0920    0.0000 C.3     1  LIG1        0.1393
     20 C           1.3630    1.5960    0.0000 C.2     1  LIG1        0.2447
     21 O           1.8670    0.7330    0.0000 O.2     1  LIG1       -0.2731
     22 C           1.8670    2.4580    0.0000 C.3     1  LIG1        0.0871
     23 C           2.8580    2.4580    0.0000 C.3     1  LIG1        0.0101
@<TRIPOS>BOND
     1     1     2    1
     2     1     5    1
     3     1    20   am
     4     2     3    2
     5     3     4    1
     6     3    17    1
     7     4     5    1
     8     4    14    1
     9     5     6    1
    10     6     7   ar
    11     6    11   ar
    12     7     8   ar
    13     8     9   ar
    14     8    13    1
    15     9    10   ar
    16    10    11   ar
    17    10    12    1
    18    14    15    1
    19    14    19    1
    20    15    16    1
    21    16    17    1
    22    17    18    1
    23    18    19    1
    24    20    21    2
    25    20    22    1
    26    22    23    1
