@<TRIPOS>MOLECULE
29253_ChemDiv_D002-0009
 22 25 0 0 0
SMALL
GASTEIGER
Energy = 0

@<TRIPOS>ATOM
      1 N           0.8750    1.8000    0.0000 N.am    1  LIG1       -0.1725
      2 N           0.2920    2.6130    0.0000 N.2     1  LIG1       -0.1784
      3 C          -0.6630    2.2960    0.0000 C.2     1  LIG1        0.1067
      4 C          -0.6630    1.3080    0.0000 C.3     1  LIG1        0.1497
      5 C           0.2920    0.9960    0.0000 C.3     1  LIG1        0.1785
      6 C           0.5920    0.0540    0.0000 C.ar    1  LIG1        0.0143
      7 C          -0.0670   -0.6880    0.0000 C.ar    1  LIG1        0.0563
      8 C           0.2380   -1.6210    0.0000 C.ar    1  LIG1        0.0225
      9 C           1.2080   -1.8330    0.0000 C.ar    1  LIG1        0.0585
     10 C           1.8630   -1.0920    0.0000 C.ar    1  LIG1        0.0112
     11 C           1.5630   -0.1500    0.0000 C.ar    1  LIG1       -0.0007
     12 CL          1.5080   -2.7830    0.0000 Cl      1  LIG1       -0.0822
     13 CL         -1.0500   -0.4750    0.0000 Cl      1  LIG1       -0.0825
     14 N          -1.5130    0.8000    0.0000 N.4     1  LIG1        0.3786
     15 C          -1.1000    1.7670    0.0000 C.3     1  LIG1        0.1393
     16 C          -2.0170    1.7210    0.0000 C.3     1  LIG1        0.0688
     17 C          -1.5130    2.7880    0.0000 C.3     1  LIG1        0.0552
     18 C          -2.3710    2.2960    0.0000 C.3     1  LIG1        0.0688
     19 C          -2.3710    1.3080    0.0000 C.3     1  LIG1        0.1393
     20 C           1.8630    1.8000    0.0000 C.2     1  LIG1        0.2452
     21 O           2.3670    0.9380    0.0000 O.2     1  LIG1       -0.2731
     22 C           2.3670    2.6670    0.0000 C.3     1  LIG1        0.0966
@<TRIPOS>BOND
     1     1     2    1
     2     1     5    1
     3     1    20   am
     4     2     3    2
     5     3     4    1
     6     3    17    1
     7     4     5    1
     8     4    14    1
     9     5     6    1
    10     6     7   ar
    11     6    11   ar
    12     7     8   ar
    13     7    13    1
    14     8     9   ar
    15     9    10   ar
    16     9    12    1
    17    10    11   ar
    18    14    15    1
    19    14    19    1
    20    15    16    1
    21    16    17    1
    22    17    18    1
    23    18    19    1
    24    20    21    2
    25    20    22    1
