@<TRIPOS>MOLECULE
29267_ChemDiv_K784-6288
 32 36 0 0 0
SMALL
GASTEIGER
Energy = 0

@<TRIPOS>ATOM
      1 N          -0.0960   -1.0790    0.0000 N.am    1  LIG1       -0.2641
      2 C          -0.9670   -0.5790    0.0000 C.2     1  LIG1        0.2467
      3 C          -0.9670    0.4250    0.0000 C.3     1  LIG1        0.1793
      4 N          -0.0960    0.9330    0.0000 N.am    1  LIG1       -0.2713
      5 C           0.7710    0.4250    0.0000 C.2     1  LIG1        0.2484
      6 C           0.7710   -0.5790    0.0000 C.3     1  LIG1        0.1753
      7 C           1.6290   -1.0750    0.0000 C.ar    1  LIG1        0.0047
      8 C           2.4920   -0.5670    0.0000 C.ar    1  LIG1        0.0001
      9 C           3.3540   -1.0670    0.0000 C.ar    1  LIG1        0.0294
     10 C           3.3580   -2.0630    0.0000 C.ar    1  LIG1        0.1401
     11 C           2.4960   -2.5630    0.0000 C.ar    1  LIG1        0.0294
     12 C           1.6290   -2.0750    0.0000 C.ar    1  LIG1        0.0001
     13 F           4.2210   -2.5630    0.0000 F       1  LIG1       -0.2042
     14 O           1.6330    0.9170    0.0000 O.2     1  LIG1       -0.2727
     15 C          -0.0960    1.9330    0.0000 C.3     1  LIG1        0.0759
     16 C          -0.9210    2.2790    0.0000 C.3     1  LIG1        0.0198
     17 C          -1.1500    3.2790    0.0000 C.3     1  LIG1        0.0017
     18 C          -0.4250    4.0750    0.0000 C.3     1  LIG1        0.0001
     19 C           0.6380    4.0000    0.0000 C.3     1  LIG1        0.0001
     20 C           1.1790    3.1460    0.0000 C.3     1  LIG1        0.0017
     21 C           0.8630    2.3420    0.0000 C.3     1  LIG1        0.0198
     22 O          -1.8460   -1.0960    0.0000 O.2     1  LIG1       -0.2730
     23 C          -0.0960   -2.0790    0.0000 C.3     1  LIG1        0.1210
     24 C          -0.9670   -2.5790    0.0000 C.ar    1  LIG1        0.0009
     25 C          -1.8290   -2.0790    0.0000 C.ar    1  LIG1        0.0376
     26 C          -2.6920   -2.5790    0.0000 C.ar    1  LIG1        0.1762
     27 C          -2.6920   -3.5750    0.0000 C.ar    1  LIG1        0.1764
     28 O          -3.6460   -3.8880    0.0000 O.3     1  LIG1       -0.4346
     29 C          -4.2250   -3.0790    0.0000 C.3     1  LIG1        0.4294
     30 O          -3.6460   -2.2710    0.0000 O.3     1  LIG1       -0.4346
     31 C          -1.8170   -4.0750    0.0000 C.ar    1  LIG1        0.0399
     32 C          -0.9580   -3.5710    0.0000 C.ar    1  LIG1        0.0007
@<TRIPOS>BOND
     1     1     2   am
     2     1     6    1
     3     1    23    1
     4     2     3    1
     5     2    22    2
     6     3     4    1
     7     4     5   am
     8     4    15    1
     9     5     6    1
    10     5    14    2
    11     6     7    1
    12     7     8   ar
    13     7    12   ar
    14     8     9   ar
    15     9    10   ar
    16    10    11   ar
    17    10    13    1
    18    11    12   ar
    19    15    16    1
    20    15    21    1
    21    16    17    1
    22    17    18    1
    23    18    19    1
    24    19    20    1
    25    20    21    1
    26    23    24    1
    27    24    25   ar
    28    24    32   ar
    29    25    26   ar
    30    26    27   ar
    31    26    30    1
    32    27    28    1
    33    27    31   ar
    34    28    29    1
    35    29    30    1
    36    31    32   ar
