@<TRIPOS>MOLECULE
29269_ChemDiv_K784-6319
 32 36 0 0 0
SMALL
GASTEIGER
Energy = 0

@<TRIPOS>ATOM
      1 N          -0.1000   -1.0830    0.0000 N.am    1  LIG1       -0.2641
      2 C          -0.9670   -0.5790    0.0000 C.2     1  LIG1        0.2467
      3 C          -0.9670    0.4290    0.0000 C.3     1  LIG1        0.1793
      4 N          -0.1000    0.9290    0.0000 N.am    1  LIG1       -0.2713
      5 C           0.7670    0.4290    0.0000 C.2     1  LIG1        0.2484
      6 C           0.7670   -0.5790    0.0000 C.3     1  LIG1        0.1752
      7 C           1.6290   -1.0670    0.0000 C.ar    1  LIG1        0.0045
      8 C           2.4920   -0.5670    0.0000 C.ar    1  LIG1       -0.0025
      9 C           3.3540   -1.0630    0.0000 C.ar    1  LIG1       -0.0045
     10 C           3.3540   -2.0670    0.0000 C.ar    1  LIG1       -0.0219
     11 C           2.4920   -2.5670    0.0000 C.ar    1  LIG1       -0.0045
     12 C           1.6290   -2.0670    0.0000 C.ar    1  LIG1       -0.0025
     13 C           4.2250   -2.5670    0.0000 C.3     1  LIG1        0.0310
     14 O           1.6380    0.9210    0.0000 O.2     1  LIG1       -0.2727
     15 C          -0.1000    1.9290    0.0000 C.3     1  LIG1        0.0759
     16 C           0.8540    2.3380    0.0000 C.3     1  LIG1        0.0198
     17 C           1.1750    3.1540    0.0000 C.3     1  LIG1        0.0017
     18 C           0.6290    4.0040    0.0000 C.3     1  LIG1        0.0001
     19 C          -0.4290    4.0750    0.0000 C.3     1  LIG1        0.0001
     20 C          -1.1460    3.2790    0.0000 C.3     1  LIG1        0.0017
     21 C          -0.9290    2.2830    0.0000 C.3     1  LIG1        0.0198
     22 O          -1.8460   -1.0920    0.0000 O.2     1  LIG1       -0.2730
     23 C          -0.1000   -2.0790    0.0000 C.3     1  LIG1        0.1210
     24 C          -0.9670   -2.5750    0.0000 C.ar    1  LIG1        0.0009
     25 C          -1.8290   -2.0790    0.0000 C.ar    1  LIG1        0.0376
     26 C          -2.7000   -2.5750    0.0000 C.ar    1  LIG1        0.1762
     27 C          -2.6920   -3.5750    0.0000 C.ar    1  LIG1        0.1764
     28 O          -3.6460   -3.8830    0.0000 O.3     1  LIG1       -0.4346
     29 C          -4.2290   -3.0830    0.0000 C.3     1  LIG1        0.4294
     30 O          -3.6460   -2.2630    0.0000 O.3     1  LIG1       -0.4346
     31 C          -1.8250   -4.0750    0.0000 C.ar    1  LIG1        0.0399
     32 C          -0.9630   -3.5670    0.0000 C.ar    1  LIG1        0.0007
@<TRIPOS>BOND
     1     1     2   am
     2     1     6    1
     3     1    23    1
     4     2     3    1
     5     2    22    2
     6     3     4    1
     7     4     5   am
     8     4    15    1
     9     5     6    1
    10     5    14    2
    11     6     7    1
    12     7     8   ar
    13     7    12   ar
    14     8     9   ar
    15     9    10   ar
    16    10    11   ar
    17    10    13    1
    18    11    12   ar
    19    15    16    1
    20    15    21    1
    21    16    17    1
    22    17    18    1
    23    18    19    1
    24    19    20    1
    25    20    21    1
    26    23    24    1
    27    24    25   ar
    28    24    32   ar
    29    25    26   ar
    30    26    27   ar
    31    26    30    1
    32    27    28    1
    33    27    31   ar
    34    28    29    1
    35    29    30    1
    36    31    32   ar
