@<TRIPOS>MOLECULE
29268_ChemDiv_D025-0023
 28 31 0 0 0
SMALL
GASTEIGER
Energy = 0

@<TRIPOS>ATOM
      1 C           0.2500   -0.1960    0.0000 C.3     1  LIG1        0.1111
      2 C          -0.7500   -0.1960    0.0000 C.3     1  LIG1        0.1544
      3 C          -1.7460   -0.1960    0.0000 C.ar    1  LIG1        0.0055
      4 C          -2.2460   -1.0580    0.0000 C.ar    1  LIG1       -0.0019
      5 C          -3.2540   -1.0580    0.0000 C.ar    1  LIG1       -0.0002
      6 C          -3.7540   -0.1960    0.0000 C.ar    1  LIG1       -0.0000
      7 C          -3.2540    0.6670    0.0000 C.ar    1  LIG1       -0.0002
      8 C          -2.2460    0.6670    0.0000 C.ar    1  LIG1       -0.0019
      9 C          -0.7500    0.8000    0.0000 C.3     1  LIG1        0.0325
     10 C           0.1130    1.3000    0.0000 C.3     1  LIG1        0.0028
     11 C           0.1210    2.2920    0.0000 C.3     1  LIG1        0.0001
     12 C          -0.7420    2.8000    0.0000 C.3     1  LIG1        0.0000
     13 C          -1.6130    2.3000    0.0000 C.3     1  LIG1        0.0001
     14 C          -1.6210    1.3000    0.0000 C.3     1  LIG1        0.0028
     15 O          -0.7500   -1.1960    0.0000 O.3     1  LIG1       -0.2206
     16 C           0.7500    0.6670    0.0000 C.3     1  LIG1        0.1459
     17 N           1.7540    0.6670    0.0000 N.4     1  LIG1        0.3816
     18 C           2.2540    1.5330    0.0000 C.3     1  LIG1        0.1713
     19 C           3.2540    1.5330    0.0000 C.3     1  LIG1        0.2047
     20 O           3.7500    0.6670    0.0000 O.3     1  LIG1       -0.3411
     21 C           3.2540   -0.1960    0.0000 C.3     1  LIG1        0.2047
     22 C           2.2540   -0.1960    0.0000 C.3     1  LIG1        0.1713
     23 C           0.7500   -1.0580    0.0000 C.ar    1  LIG1       -0.0141
     24 C           1.7540   -1.0580    0.0000 C.ar    1  LIG1       -0.0040
     25 C           2.2540   -1.9210    0.0000 C.ar    1  LIG1       -0.0003
     26 C           1.7540   -2.7960    0.0000 C.ar    1  LIG1       -0.0000
     27 C           0.7500   -2.7960    0.0000 C.ar    1  LIG1       -0.0003
     28 C           0.2500   -1.9210    0.0000 C.ar    1  LIG1       -0.0040
@<TRIPOS>BOND
     1     1     2    1
     2     1    16    1
     3     1    23    1
     4     2     3    1
     5     2     9    1
     6     2    15    1
     7     3     4   ar
     8     3     8   ar
     9     4     5   ar
    10     5     6   ar
    11     6     7   ar
    12     7     8   ar
    13     9    10    1
    14     9    14    1
    15    10    11    1
    16    11    12    1
    17    12    13    1
    18    13    14    1
    19    16    17    1
    20    17    18    1
    21    17    22    1
    22    18    19    1
    23    19    20    1
    24    20    21    1
    25    21    22    1
    26    23    24   ar
    27    23    28   ar
    28    24    25   ar
    29    25    26   ar
    30    26    27   ar
    31    27    28   ar
