@<TRIPOS>MOLECULE
29263_ChemDiv_3330-0363
 33 36 0 0 0
SMALL
GASTEIGER
Energy = 0

@<TRIPOS>ATOM
      1 S           1.5750    1.4380    0.0000 S.O2    1  LIG1        0.0633
      2 N           2.5670    1.3210    0.0000 N.3     1  LIG1       -0.1555
      3 C           3.1500    2.0920    0.0000 C.3     1  LIG1        0.0958
      4 C           4.1380    1.9630    0.0000 C.3     1  LIG1        0.0178
      5 C           4.5580    1.0580    0.0000 C.3     1  LIG1        0.0029
      6 C           3.9290    0.2750    0.0000 C.3     1  LIG1        0.0178
      7 C           2.9420    0.3880    0.0000 C.3     1  LIG1        0.0958
      8 C           4.2790   -0.7670    0.0000 C.3     1  LIG1        0.0015
      9 C           4.7670    2.8000    0.0000 C.3     1  LIG1        0.0015
     10 C           0.5710    1.5670    0.0000 C.ar    1  LIG1        0.1222
     11 C          -0.0580    0.8080    0.0000 C.ar    1  LIG1        0.0201
     12 C          -1.0290    0.9830    0.0000 C.ar    1  LIG1        0.0059
     13 C          -1.4130    1.8830    0.0000 C.ar    1  LIG1        0.0555
     14 C          -2.3830    2.0920    0.0000 C.2     1  LIG1        0.2694
     15 N          -2.9960    1.3330    0.0000 N.am    1  LIG1       -0.1687
     16 C          -2.6750    0.3880    0.0000 C.ar    1  LIG1        0.1069
     17 C          -3.2080   -0.4880    0.0000 C.ar    1  LIG1        0.0743
     18 C          -2.5420   -1.2500    0.0000 C.ar    1  LIG1       -0.0139
     19 C          -1.6580   -0.8290    0.0000 C.ar    1  LIG1        0.0047
     20 S          -1.7380    0.1420    0.0000 S.2     1  LIG1       -0.0750
     21 C          -0.8630   -1.4580    0.0000 C.3     1  LIG1        0.0327
     22 C          -0.9960   -2.4460    0.0000 C.3     1  LIG1        0.0052
     23 C          -1.8710   -2.8670    0.0000 C.3     1  LIG1        0.0050
     24 C          -2.6750   -2.2380    0.0000 C.3     1  LIG1        0.0268
     25 C          -0.1040   -3.0080    0.0000 C.3     1  LIG1        0.0004
     26 C          -4.2210   -0.5580    0.0000 C.2     1  LIG1        0.2856
     27 O          -4.6750   -1.4040    0.0000 O.2     1  LIG1       -0.2666
     28 N          -4.7710    0.2830    0.0000 N.am    1  LIG1       -0.0837
     29 O          -2.7080    3.0130    0.0000 O.2     1  LIG1       -0.2680
     30 C          -0.7830    2.6330    0.0000 C.ar    1  LIG1        0.0059
     31 C           0.2290    2.4750    0.0000 C.ar    1  LIG1        0.0201
     32 O           1.6830    2.4250    0.0000 O.2     1  LIG1       -0.1528
     33 O           1.4460    0.4290    0.0000 O.2     1  LIG1       -0.1528
@<TRIPOS>BOND
     1     1     2    1
     2     1    10    1
     3     1    32    2
     4     1    33    2
     5     2     3    1
     6     2     7    1
     7     3     4    1
     8     4     5    1
     9     4     9    1
    10     5     6    1
    11     6     7    1
    12     6     8    1
    13    10    11   ar
    14    10    31   ar
    15    11    12   ar
    16    12    13   ar
    17    13    14    1
    18    13    30   ar
    19    14    15   am
    20    14    29    2
    21    15    16    1
    22    16    17   ar
    23    16    20   ar
    24    17    18   ar
    25    17    26    1
    26    18    19   ar
    27    18    24    1
    28    19    20   ar
    29    19    21    1
    30    21    22    1
    31    22    23    1
    32    22    25    1
    33    23    24    1
    34    26    27    2
    35    26    28   am
    36    30    31   ar
