@<TRIPOS>MOLECULE
29266_ChemDiv_D025-0021
 28 31 0 0 0
SMALL
GASTEIGER
Energy = 0

@<TRIPOS>ATOM
      1 C           0.2500   -0.2040    0.0000 C.3     1  LIG1        0.1150
      2 C          -0.7500   -0.2040    0.0000 C.3     1  LIG1        0.1732
      3 C          -1.7460   -0.2040    0.0000 C.ar    1  LIG1        0.0094
      4 C          -2.2460   -1.0630    0.0000 C.ar    1  LIG1       -0.0016
      5 C          -3.2540   -1.0630    0.0000 C.ar    1  LIG1       -0.0002
      6 C          -3.7540   -0.2040    0.0000 C.ar    1  LIG1       -0.0000
      7 C          -3.2540    0.6670    0.0000 C.ar    1  LIG1       -0.0002
      8 C          -2.2460    0.6670    0.0000 C.ar    1  LIG1       -0.0016
      9 C          -0.7500    0.7960    0.0000 C.ar    1  LIG1        0.0094
     10 C           0.1210    1.2960    0.0000 C.ar    1  LIG1       -0.0016
     11 C           0.1210    2.2960    0.0000 C.ar    1  LIG1       -0.0002
     12 C          -0.7500    2.7920    0.0000 C.ar    1  LIG1       -0.0000
     13 C          -1.6210    2.2960    0.0000 C.ar    1  LIG1       -0.0002
     14 C          -1.6130    1.2960    0.0000 C.ar    1  LIG1       -0.0016
     15 O          -0.7500   -1.2000    0.0000 O.3     1  LIG1       -0.2161
     16 C           0.7500    0.6670    0.0000 C.3     1  LIG1        0.1462
     17 N           1.7540    0.6670    0.0000 N.4     1  LIG1        0.3816
     18 C           2.2540    1.5380    0.0000 C.3     1  LIG1        0.1713
     19 C           3.2500    1.5380    0.0000 C.3     1  LIG1        0.2047
     20 O           3.7500    0.6670    0.0000 O.3     1  LIG1       -0.3411
     21 C           3.2500   -0.1960    0.0000 C.3     1  LIG1        0.2047
     22 C           2.2540   -0.1960    0.0000 C.3     1  LIG1        0.1713
     23 C           0.7500   -1.0630    0.0000 C.ar    1  LIG1       -0.0137
     24 C           1.7540   -1.0630    0.0000 C.ar    1  LIG1       -0.0040
     25 C           2.2540   -1.9250    0.0000 C.ar    1  LIG1       -0.0003
     26 C           1.7540   -2.7880    0.0000 C.ar    1  LIG1       -0.0000
     27 C           0.7500   -2.7880    0.0000 C.ar    1  LIG1       -0.0003
     28 C           0.2500   -1.9250    0.0000 C.ar    1  LIG1       -0.0040
@<TRIPOS>BOND
     1     1     2    1
     2     1    16    1
     3     1    23    1
     4     2     3    1
     5     2     9    1
     6     2    15    1
     7     3     4   ar
     8     3     8   ar
     9     4     5   ar
    10     5     6   ar
    11     6     7   ar
    12     7     8   ar
    13     9    10   ar
    14     9    14   ar
    15    10    11   ar
    16    11    12   ar
    17    12    13   ar
    18    13    14   ar
    19    16    17    1
    20    17    18    1
    21    17    22    1
    22    18    19    1
    23    19    20    1
    24    20    21    1
    25    21    22    1
    26    23    24   ar
    27    23    28   ar
    28    24    25   ar
    29    25    26   ar
    30    26    27   ar
    31    27    28   ar
