@<TRIPOS>MOLECULE
29278_ChemDiv_K848-0149
 22 23 0 0 0
SMALL
GASTEIGER
Energy = 0

@<TRIPOS>ATOM
      1 C          -3.0500    0.9040    0.0000 C.3     1  LIG1        0.1511
      2 C          -3.9750    0.5080    0.0000 C.3     1  LIG1        0.0973
      3 C          -4.0960   -0.4630    0.0000 C.3     1  LIG1        0.1417
      4 N          -3.3040   -1.0750    0.0000 N.4     1  LIG1        0.3813
      5 C          -2.3880   -0.6920    0.0000 C.3     1  LIG1        0.1713
      6 C          -1.5960   -1.2880    0.0000 C.3     1  LIG1        0.2047
      7 O          -1.7170   -2.2790    0.0000 O.3     1  LIG1       -0.3411
      8 C          -2.6380   -2.6710    0.0000 C.3     1  LIG1        0.2047
      9 C          -3.4330   -2.0670    0.0000 C.3     1  LIG1        0.1713
     10 C          -2.1290    1.2880    0.0000 C.ar    1  LIG1        0.0054
     11 C          -1.3250    0.6750    0.0000 C.ar    1  LIG1        0.0012
     12 C          -0.4080    1.0710    0.0000 C.ar    1  LIG1        0.0367
     13 C          -0.2750    2.0630    0.0000 C.ar    1  LIG1        0.1385
     14 C          -1.0790    2.6750    0.0000 C.ar    1  LIG1        0.0367
     15 C          -1.9960    2.2790    0.0000 C.ar    1  LIG1        0.0012
     16 O           0.6460    2.4460    0.0000 O.3     1  LIG1       -0.4755
     17 C           1.4380    1.8330    0.0000 C.3     1  LIG1        0.2054
     18 C           2.3710    2.2330    0.0000 C.3     1  LIG1        0.0473
     19 C           3.1630    1.6210    0.0000 C.3     1  LIG1        0.0038
     20 C           4.0920    2.0040    0.0000 C.3     1  LIG1        0.0001
     21 O          -3.4420    1.8210    0.0000 O.3     1  LIG1       -0.2210
     22 C          -2.6630   -0.0250    0.0000 C.3     1  LIG1        0.0378
@<TRIPOS>BOND
     1     1     2    1
     2     1    10    1
     3     1    21    1
     4     1    22    1
     5     2     3    1
     6     3     4    1
     7     4     5    1
     8     4     9    1
     9     5     6    1
    10     6     7    1
    11     7     8    1
    12     8     9    1
    13    10    11   ar
    14    10    15   ar
    15    11    12   ar
    16    12    13   ar
    17    13    14   ar
    18    13    16    1
    19    14    15   ar
    20    16    17    1
    21    17    18    1
    22    18    19    1
    23    19    20    1
