@<TRIPOS>MOLECULE
29277_ChemDiv_K784-6914
 30 34 0 0 0
SMALL
GASTEIGER
Energy = 0

@<TRIPOS>ATOM
      1 N           0.1080   -0.7880    0.0000 N.am    1  LIG1       -0.2641
      2 C           0.9750   -0.2880    0.0000 C.2     1  LIG1        0.2467
      3 C           0.9750    0.7170    0.0000 C.3     1  LIG1        0.1793
      4 N           0.1080    1.2170    0.0000 N.am    1  LIG1       -0.2713
      5 C          -0.7580    0.7170    0.0000 C.2     1  LIG1        0.2484
      6 C          -0.7580   -0.2880    0.0000 C.3     1  LIG1        0.1753
      7 C          -1.6250   -0.7880    0.0000 C.ar    1  LIG1        0.0047
      8 C          -1.6250   -1.7920    0.0000 C.ar    1  LIG1        0.0001
      9 C          -2.4830   -2.2920    0.0000 C.ar    1  LIG1        0.0294
     10 C          -3.3580   -1.7920    0.0000 C.ar    1  LIG1        0.1401
     11 C          -3.3580   -0.7880    0.0000 C.ar    1  LIG1        0.0294
     12 C          -2.4920   -0.2880    0.0000 C.ar    1  LIG1        0.0001
     13 F          -4.2290   -2.2920    0.0000 F       1  LIG1       -0.2042
     14 O          -1.6250    1.2170    0.0000 O.2     1  LIG1       -0.2727
     15 C           0.1000    2.2250    0.0000 C.3     1  LIG1        0.0759
     16 C          -0.7130    2.8130    0.0000 C.3     1  LIG1        0.0198
     17 C          -0.4000    3.7710    0.0000 C.3     1  LIG1        0.0018
     18 C           0.6040    3.7710    0.0000 C.3     1  LIG1        0.0018
     19 C           0.9130    2.8130    0.0000 C.3     1  LIG1        0.0198
     20 O           1.8380   -0.7880    0.0000 O.2     1  LIG1       -0.2730
     21 C           0.1080   -1.7880    0.0000 C.3     1  LIG1        0.1210
     22 C           0.9670   -2.2790    0.0000 C.ar    1  LIG1        0.0009
     23 C           1.8250   -1.7750    0.0000 C.ar    1  LIG1        0.0376
     24 C           2.6920   -2.2710    0.0000 C.ar    1  LIG1        0.1762
     25 C           2.7000   -3.2670    0.0000 C.ar    1  LIG1        0.1764
     26 O           3.6460   -3.5630    0.0000 O.3     1  LIG1       -0.4346
     27 C           4.2250   -2.7500    0.0000 C.3     1  LIG1        0.4294
     28 O           3.6330   -1.9540    0.0000 O.3     1  LIG1       -0.4346
     29 C           1.8330   -3.7670    0.0000 C.ar    1  LIG1        0.0399
     30 C           0.9750   -3.2790    0.0000 C.ar    1  LIG1        0.0007
@<TRIPOS>BOND
     1     1     2   am
     2     1     6    1
     3     1    21    1
     4     2     3    1
     5     2    20    2
     6     3     4    1
     7     4     5   am
     8     4    15    1
     9     5     6    1
    10     5    14    2
    11     6     7    1
    12     7     8   ar
    13     7    12   ar
    14     8     9   ar
    15     9    10   ar
    16    10    11   ar
    17    10    13    1
    18    11    12   ar
    19    15    16    1
    20    15    19    1
    21    16    17    1
    22    17    18    1
    23    18    19    1
    24    21    22    1
    25    22    23   ar
    26    22    30   ar
    27    23    24   ar
    28    24    25   ar
    29    24    28    1
    30    25    26    1
    31    25    29   ar
    32    26    27    1
    33    27    28    1
    34    29    30   ar
