@<TRIPOS>MOLECULE
29272_ChemDiv_D025-0043
 26 27 0 0 0
SMALL
GASTEIGER
Energy = 0

@<TRIPOS>ATOM
      1 C           0.4920   -1.7330    0.0000 C.3     1  LIG1        0.1547
      2 C           1.4920   -1.7330    0.0000 C.3     1  LIG1        0.1170
      3 C           1.9880   -2.5960    0.0000 C.ar    1  LIG1       -0.0139
      4 C           2.9960   -2.5960    0.0000 C.ar    1  LIG1       -0.0040
      5 C           3.4960   -3.4580    0.0000 C.ar    1  LIG1       -0.0003
      6 C           2.9960   -4.3290    0.0000 C.ar    1  LIG1       -0.0000
      7 C           1.9880   -4.3290    0.0000 C.ar    1  LIG1       -0.0003
      8 C           1.4920   -3.4580    0.0000 C.ar    1  LIG1       -0.0040
      9 C           1.9880   -0.8710    0.0000 C.3     1  LIG1        0.2076
     10 N           1.4920   -0.0040    0.0000 N.4     1  LIG1        0.4484
     11 C           1.9880    0.8710    0.0000 C.3     1  LIG1        0.2007
     12 C           1.4920    1.7330    0.0000 C.3     1  LIG1        0.0716
     13 C           1.9880    2.6000    0.0000 C.3     1  LIG1        0.0419
     14 C           1.4920    3.4710    0.0000 C.3     1  LIG1        0.1823
     15 O           1.9880    4.3290    0.0000 O.3     1  LIG1       -0.2204
     16 C          -0.5080   -1.7330    0.0000 C.ar    1  LIG1        0.0056
     17 C          -1.0040   -0.8710    0.0000 C.ar    1  LIG1       -0.0014
     18 C          -2.0040   -0.8710    0.0000 C.ar    1  LIG1        0.0064
     19 C          -2.5040   -1.7330    0.0000 C.ar    1  LIG1        0.0345
     20 C          -2.0040   -2.6040    0.0000 C.ar    1  LIG1        0.0064
     21 C          -1.0040   -2.6040    0.0000 C.ar    1  LIG1       -0.0014
     22 BR         -3.5000   -1.7330    0.0000 Br      1  LIG1       -0.0490
     23 O           0.4920   -2.7290    0.0000 O.3     1  LIG1       -0.2206
     24 C           0.4920   -0.7330    0.0000 C.3     1  LIG1        0.0352
     25 C          -0.3710   -0.2330    0.0000 C.3     1  LIG1        0.0029
     26 C          -0.3710    0.7630    0.0000 C.3     1  LIG1        0.0001
@<TRIPOS>BOND
     1     1     2    1
     2     1    16    1
     3     1    23    1
     4     1    24    1
     5     2     3    1
     6     2     9    1
     7     3     4   ar
     8     3     8   ar
     9     4     5   ar
    10     5     6   ar
    11     6     7   ar
    12     7     8   ar
    13     9    10    1
    14    10    11    1
    15    11    12    1
    16    12    13    1
    17    13    14    1
    18    14    15    1
    19    16    17   ar
    20    16    21   ar
    21    17    18   ar
    22    18    19   ar
    23    19    20   ar
    24    19    22    1
    25    20    21   ar
    26    24    25    1
    27    25    26    1
