@<TRIPOS>MOLECULE
29275_ChemDiv_K784-6802
 32 34 0 0 0
SMALL
GASTEIGER
Energy = 0

@<TRIPOS>ATOM
      1 C          -1.2830    1.4250    0.0000 C.2     1  LIG1        0.2484
      2 N          -2.1580    1.9330    0.0000 N.am    1  LIG1       -0.2713
      3 C          -3.0250    1.4250    0.0000 C.3     1  LIG1        0.1793
      4 C          -3.0250    0.4210    0.0000 C.2     1  LIG1        0.2465
      5 N          -2.1580   -0.0880    0.0000 N.am    1  LIG1       -0.2682
      6 C          -1.2830    0.4210    0.0000 C.3     1  LIG1        0.1751
      7 C          -0.4210   -0.0710    0.0000 C.ar    1  LIG1        0.0077
      8 C           0.4380    0.4290    0.0000 C.ar    1  LIG1        0.0379
      9 C           1.3080   -0.0630    0.0000 C.ar    1  LIG1        0.1721
     10 C           1.3130   -1.0710    0.0000 C.ar    1  LIG1        0.1722
     11 C           0.4500   -1.5710    0.0000 C.ar    1  LIG1        0.0398
     12 C          -0.4210   -1.0710    0.0000 C.ar    1  LIG1        0.0011
     13 O           2.1750   -1.5670    0.0000 O.3     1  LIG1       -0.4724
     14 C           3.0380   -1.0670    0.0000 C.3     1  LIG1        0.2057
     15 C           3.8960   -1.5540    0.0000 C.3     1  LIG1        0.0512
     16 O           2.1580    0.4380    0.0000 O.3     1  LIG1       -0.4684
     17 C           2.1580    1.4330    0.0000 C.3     1  LIG1        0.2526
     18 C          -2.4170   -1.0420    0.0000 C.3     1  LIG1        0.0968
     19 C          -1.7040   -1.7500    0.0000 C.3     1  LIG1        0.0536
     20 C          -1.9630   -2.7130    0.0000 C.3     1  LIG1        0.1439
     21 O          -1.2580   -3.4130    0.0000 O.3     1  LIG1       -0.3537
     22 C          -1.5170   -4.3790    0.0000 C.3     1  LIG1        0.1422
     23 C          -0.8170   -5.0830    0.0000 C.3     1  LIG1        0.0346
     24 O          -3.9000   -0.0920    0.0000 O.2     1  LIG1       -0.2730
     25 C          -2.1580    2.9330    0.0000 C.3     1  LIG1        0.0759
     26 C          -1.1920    3.3420    0.0000 C.3     1  LIG1        0.0198
     27 C          -0.8750    4.1540    0.0000 C.3     1  LIG1        0.0017
     28 C          -1.4210    5.0130    0.0000 C.3     1  LIG1        0.0001
     29 C          -2.4790    5.0830    0.0000 C.3     1  LIG1        0.0001
     30 C          -3.2040    4.2830    0.0000 C.3     1  LIG1        0.0017
     31 C          -2.9880    3.2920    0.0000 C.3     1  LIG1        0.0198
     32 O          -0.4130    1.9210    0.0000 O.2     1  LIG1       -0.2727
@<TRIPOS>BOND
     1     1     2   am
     2     1     6    1
     3     1    32    2
     4     2     3    1
     5     2    25    1
     6     3     4    1
     7     4     5   am
     8     4    24    2
     9     5     6    1
    10     5    18    1
    11     6     7    1
    12     7     8   ar
    13     7    12   ar
    14     8     9   ar
    15     9    10   ar
    16     9    16    1
    17    10    11   ar
    18    10    13    1
    19    11    12   ar
    20    13    14    1
    21    14    15    1
    22    16    17    1
    23    18    19    1
    24    19    20    1
    25    20    21    1
    26    21    22    1
    27    22    23    1
    28    25    26    1
    29    25    31    1
    30    26    27    1
    31    27    28    1
    32    28    29    1
    33    29    30    1
    34    30    31    1
