@<TRIPOS>MOLECULE
29273_ChemDiv_K784-6629
 33 37 0 0 0
SMALL
GASTEIGER
Energy = 0

@<TRIPOS>ATOM
      1 N          -0.5500   -1.1040    0.0000 N.am    1  LIG1       -0.2641
      2 C          -1.4250   -0.5960    0.0000 C.2     1  LIG1        0.2467
      3 C          -1.4250    0.4080    0.0000 C.3     1  LIG1        0.1793
      4 N          -0.5500    0.9170    0.0000 N.am    1  LIG1       -0.2713
      5 C           0.3170    0.4080    0.0000 C.2     1  LIG1        0.2484
      6 C           0.3170   -0.5960    0.0000 C.3     1  LIG1        0.1753
      7 C           1.1790   -1.0880    0.0000 C.ar    1  LIG1        0.0047
      8 C           2.0500   -0.5920    0.0000 C.ar    1  LIG1        0.0009
      9 C           2.9170   -1.0790    0.0000 C.ar    1  LIG1        0.0366
     10 C           2.9170   -2.0920    0.0000 C.ar    1  LIG1        0.1387
     11 C           2.0540   -2.5920    0.0000 C.ar    1  LIG1        0.0366
     12 C           1.1790   -2.0920    0.0000 C.ar    1  LIG1        0.0009
     13 O           3.7920   -2.5920    0.0000 O.3     1  LIG1       -0.4714
     14 C           4.6540   -3.0920    0.0000 C.3     1  LIG1        0.2525
     15 O           1.1920    0.9080    0.0000 O.2     1  LIG1       -0.2727
     16 C          -0.5500    1.9210    0.0000 C.3     1  LIG1        0.0759
     17 C          -1.3830    2.2790    0.0000 C.3     1  LIG1        0.0198
     18 C          -1.6040    3.2750    0.0000 C.3     1  LIG1        0.0017
     19 C          -0.8790    4.0750    0.0000 C.3     1  LIG1        0.0001
     20 C           0.1790    4.0040    0.0000 C.3     1  LIG1        0.0001
     21 C           0.7330    3.1460    0.0000 C.3     1  LIG1        0.0017
     22 C           0.4080    2.3290    0.0000 C.3     1  LIG1        0.0198
     23 O          -2.3000   -1.1080    0.0000 O.2     1  LIG1       -0.2730
     24 C          -0.5500   -2.0920    0.0000 C.3     1  LIG1        0.1210
     25 C          -1.4130   -2.5920    0.0000 C.ar    1  LIG1        0.0009
     26 C          -2.2750   -2.0880    0.0000 C.ar    1  LIG1        0.0376
     27 C          -3.1380   -2.5750    0.0000 C.ar    1  LIG1        0.1762
     28 C          -3.1380   -3.5750    0.0000 C.ar    1  LIG1        0.1764
     29 O          -4.0830   -3.8790    0.0000 O.3     1  LIG1       -0.4346
     30 C          -4.6580   -3.0750    0.0000 C.3     1  LIG1        0.4294
     31 O          -4.0750   -2.2750    0.0000 O.3     1  LIG1       -0.4346
     32 C          -2.2750   -4.0750    0.0000 C.ar    1  LIG1        0.0399
     33 C          -1.4250   -3.5750    0.0000 C.ar    1  LIG1        0.0007
@<TRIPOS>BOND
     1     1     2   am
     2     1     6    1
     3     1    24    1
     4     2     3    1
     5     2    23    2
     6     3     4    1
     7     4     5   am
     8     4    16    1
     9     5     6    1
    10     5    15    2
    11     6     7    1
    12     7     8   ar
    13     7    12   ar
    14     8     9   ar
    15     9    10   ar
    16    10    11   ar
    17    10    13    1
    18    11    12   ar
    19    13    14    1
    20    16    17    1
    21    16    22    1
    22    17    18    1
    23    18    19    1
    24    19    20    1
    25    20    21    1
    26    21    22    1
    27    24    25    1
    28    25    26   ar
    29    25    33   ar
    30    26    27   ar
    31    27    28   ar
    32    27    31    1
    33    28    29    1
    34    28    32   ar
    35    29    30    1
    36    30    31    1
    37    32    33   ar
