@<TRIPOS>MOLECULE
29276_ChemDiv_D025-0061
 32 35 0 0 0
SMALL
GASTEIGER
Energy = 0

@<TRIPOS>ATOM
      1 C           0.0040   -0.9540    0.0000 C.3     1  LIG1        0.1760
      2 C           0.9580   -0.9540    0.0000 C.3     1  LIG1        0.1151
      3 C           1.4380   -0.1290    0.0000 C.3     1  LIG1        0.1462
      4 N           2.3920   -0.1290    0.0000 N.4     1  LIG1        0.3816
      5 C           2.8580    0.7080    0.0000 C.3     1  LIG1        0.1713
      6 C           3.8170    0.7080    0.0000 C.3     1  LIG1        0.2047
      7 O           4.3040   -0.1170    0.0000 O.3     1  LIG1       -0.3411
      8 C           3.8250   -0.9500    0.0000 C.3     1  LIG1        0.2047
      9 C           2.8750   -0.9540    0.0000 C.3     1  LIG1        0.1713
     10 C           1.4380   -1.7790    0.0000 C.ar    1  LIG1       -0.0137
     11 C           2.3960   -1.7790    0.0000 C.ar    1  LIG1       -0.0040
     12 C           2.8750   -2.6040    0.0000 C.ar    1  LIG1       -0.0003
     13 C           2.3960   -3.4420    0.0000 C.ar    1  LIG1       -0.0000
     14 C           1.4380   -3.4420    0.0000 C.ar    1  LIG1       -0.0003
     15 C           0.9580   -2.6040    0.0000 C.ar    1  LIG1       -0.0040
     16 C           0.0080    1.5330    0.0000 C.ar    1  LIG1        0.0434
     17 C          -0.8170    2.0130    0.0000 C.ar    1  LIG1        0.1373
     18 O          -1.6420    1.5330    0.0000 O.3     1  LIG1       -0.4717
     19 C          -2.4710    2.0000    0.0000 C.3     1  LIG1        0.2525
     20 C          -0.8210    2.9670    0.0000 C.ar    1  LIG1        0.0367
     21 C           0.0080    3.4460    0.0000 C.ar    1  LIG1        0.0031
     22 C           0.8330    2.9670    0.0000 C.ar    1  LIG1       -0.0000
     23 C           0.8330    2.0130    0.0000 C.ar    1  LIG1        0.0014
     24 C          -0.9540   -0.9540    0.0000 C.ar    1  LIG1        0.0095
     25 C          -1.4290   -0.1290    0.0000 C.ar    1  LIG1       -0.0019
     26 C          -2.3960   -0.1290    0.0000 C.ar    1  LIG1       -0.0045
     27 C          -2.8750   -0.9540    0.0000 C.ar    1  LIG1       -0.0222
     28 C          -2.3960   -1.7790    0.0000 C.ar    1  LIG1       -0.0045
     29 C          -1.4290   -1.7790    0.0000 C.ar    1  LIG1       -0.0019
     30 C          -3.8290   -0.9540    0.0000 C.3     1  LIG1        0.0264
     31 C          -4.3080   -0.1290    0.0000 C.3     1  LIG1        0.0050
     32 O           0.0040   -1.9130    0.0000 O.3     1  LIG1       -0.2160
@<TRIPOS>BOND
     1     1     2    1
     2     1    16    1
     3     1    24    1
     4     1    32    1
     5     2     3    1
     6     2    10    1
     7     3     4    1
     8     4     5    1
     9     4     9    1
    10     5     6    1
    11     6     7    1
    12     7     8    1
    13     8     9    1
    14    10    11   ar
    15    10    15   ar
    16    11    12   ar
    17    12    13   ar
    18    13    14   ar
    19    14    15   ar
    20    16    17   ar
    21    16    23   ar
    22    17    18    1
    23    17    20   ar
    24    18    19    1
    25    20    21   ar
    26    21    22   ar
    27    22    23   ar
    28    24    25   ar
    29    24    29   ar
    30    25    26   ar
    31    26    27   ar
    32    27    28   ar
    33    27    30    1
    34    28    29   ar
    35    30    31    1
