@<TRIPOS>MOLECULE
29270_ChemDiv_D025-0029
 29 31 0 0 0
SMALL
GASTEIGER
Energy = 0

@<TRIPOS>ATOM
      1 C           0.9920   -0.7000    0.0000 C.3     1  LIG1        0.1111
      2 C          -0.0080   -0.7000    0.0000 C.3     1  LIG1        0.1545
      3 C          -1.0080   -0.7000    0.0000 C.ar    1  LIG1        0.0057
      4 C          -1.5040    0.1670    0.0000 C.ar    1  LIG1        0.0012
      5 C          -2.5080    0.1670    0.0000 C.ar    1  LIG1        0.0367
      6 C          -3.0080   -0.7000    0.0000 C.ar    1  LIG1        0.1387
      7 C          -2.5080   -1.5670    0.0000 C.ar    1  LIG1        0.0367
      8 C          -1.5040   -1.5670    0.0000 C.ar    1  LIG1        0.0012
      9 O          -4.0040   -0.7000    0.0000 O.3     1  LIG1       -0.4714
     10 C          -4.5040   -1.5670    0.0000 C.3     1  LIG1        0.2525
     11 O          -0.0080   -1.7000    0.0000 O.3     1  LIG1       -0.2206
     12 C          -0.0080    0.2960    0.0000 C.3     1  LIG1        0.0352
     13 C          -0.8710    0.7960    0.0000 C.3     1  LIG1        0.0029
     14 C          -0.8750    1.7960    0.0000 C.3     1  LIG1        0.0001
     15 C          -1.7380    2.2960    0.0000 C.3     1  LIG1        0.0000
     16 C          -1.7500    3.2960    0.0000 C.3     1  LIG1        0.0000
     17 C           1.4920    0.1670    0.0000 C.3     1  LIG1        0.1459
     18 N           2.4920    0.1670    0.0000 N.4     1  LIG1        0.3816
     19 C           2.9920    1.0380    0.0000 C.3     1  LIG1        0.1713
     20 C           4.0000    1.0380    0.0000 C.3     1  LIG1        0.2047
     21 O           4.5000    0.1670    0.0000 O.3     1  LIG1       -0.3411
     22 C           4.0000   -0.6960    0.0000 C.3     1  LIG1        0.2047
     23 C           2.9920   -0.6960    0.0000 C.3     1  LIG1        0.1713
     24 C           1.4920   -1.5670    0.0000 C.ar    1  LIG1       -0.0141
     25 C           2.4920   -1.5670    0.0000 C.ar    1  LIG1       -0.0040
     26 C           2.9920   -2.4290    0.0000 C.ar    1  LIG1       -0.0003
     27 C           2.4920   -3.2920    0.0000 C.ar    1  LIG1       -0.0000
     28 C           1.4920   -3.2920    0.0000 C.ar    1  LIG1       -0.0003
     29 C           0.9920   -2.4290    0.0000 C.ar    1  LIG1       -0.0040
@<TRIPOS>BOND
     1     1     2    1
     2     1    17    1
     3     1    24    1
     4     2     3    1
     5     2    11    1
     6     2    12    1
     7     3     4   ar
     8     3     8   ar
     9     4     5   ar
    10     5     6   ar
    11     6     7   ar
    12     6     9    1
    13     7     8   ar
    14     9    10    1
    15    12    13    1
    16    13    14    1
    17    14    15    1
    18    15    16    1
    19    17    18    1
    20    18    19    1
    21    18    23    1
    22    19    20    1
    23    20    21    1
    24    21    22    1
    25    22    23    1
    26    24    25   ar
    27    24    29   ar
    28    25    26   ar
    29    26    27   ar
    30    27    28   ar
    31    28    29   ar
