@<TRIPOS>MOLECULE
29283_ChemDiv_5756-0839
 32 36 0 0 0
SMALL
GASTEIGER
Energy = 0

@<TRIPOS>ATOM
      1 C           0.1130   -0.5170    0.0000 C.ar    1  LIG1        0.0727
      2 C          -0.6080    0.1670    0.0000 C.ar    1  LIG1        0.1069
      3 S          -1.4830   -0.3130    0.0000 S.2     1  LIG1       -0.0750
      4 C          -1.2920   -1.2960    0.0000 C.ar    1  LIG1        0.0047
      5 C          -0.3170   -1.4000    0.0000 C.ar    1  LIG1       -0.0140
      6 C           0.0920   -2.3420    0.0000 C.3     1  LIG1        0.0268
      7 C          -0.5080   -3.1500    0.0000 C.3     1  LIG1        0.0050
      8 C          -1.4830   -3.0250    0.0000 C.3     1  LIG1        0.0055
      9 C          -1.8920   -2.1080    0.0000 C.3     1  LIG1        0.0327
     10 N          -0.3710    1.1420    0.0000 N.am    1  LIG1       -0.1661
     11 C          -1.0830    1.8500    0.0000 C.2     1  LIG1        0.3038
     12 C          -2.0630    1.5540    0.0000 C.ar    1  LIG1        0.1963
     13 O          -2.3670    0.6170    0.0000 O.2     1  LIG1       -0.4492
     14 C          -3.3670    0.6290    0.0000 C.ar    1  LIG1        0.1452
     15 C          -3.6710    1.5920    0.0000 C.ar    1  LIG1        0.0337
     16 C          -2.8540    2.1540    0.0000 C.ar    1  LIG1        0.0203
     17 C          -2.8330    3.1540    0.0000 C.3     1  LIG1        0.0345
     18 C          -4.6500    1.7920    0.0000 C.ar    1  LIG1        0.0028
     19 C          -5.3330    1.0580    0.0000 C.ar    1  LIG1        0.0002
     20 C          -5.0210    0.1000    0.0000 C.ar    1  LIG1        0.0031
     21 C          -4.0500   -0.1210    0.0000 C.ar    1  LIG1        0.0375
     22 O          -0.8290    2.7880    0.0000 O.2     1  LIG1       -0.2646
     23 C           1.1040   -0.3460    0.0000 C.2     1  LIG1        0.2662
     24 N           1.7380   -1.1170    0.0000 N.am    1  LIG1       -0.2015
     25 C           2.7420   -0.9540    0.0000 C.3     1  LIG1        0.1209
     26 C           3.5330   -1.5750    0.0000 C.3     1  LIG1        0.1724
     27 S           4.3540   -1.0290    0.0000 S.O2    1  LIG1       -0.0082
     28 O           4.3330   -2.0380    0.0000 O.2     1  LIG1       -0.1729
     29 O           5.3290   -0.7830    0.0000 O.2     1  LIG1       -0.1729
     30 C           4.0960   -0.0710    0.0000 C.3     1  LIG1        0.1527
     31 C           3.1040   -0.0130    0.0000 C.3     1  LIG1        0.0488
     32 O           1.4580    0.5880    0.0000 O.2     1  LIG1       -0.2683
@<TRIPOS>BOND
     1     1     2   ar
     2     1     5   ar
     3     1    23    1
     4     2     3   ar
     5     2    10    1
     6     3     4   ar
     7     4     5   ar
     8     4     9    1
     9     5     6    1
    10     6     7    1
    11     7     8    1
    12     8     9    1
    13    10    11   am
    14    11    12    1
    15    11    22    2
    16    12    13   ar
    17    12    16   ar
    18    13    14   ar
    19    14    15   ar
    20    14    21   ar
    21    15    16   ar
    22    15    18   ar
    23    16    17    1
    24    18    19   ar
    25    19    20   ar
    26    20    21   ar
    27    23    24   am
    28    23    32    2
    29    24    25    1
    30    25    26    1
    31    25    31    1
    32    26    27    1
    33    27    28    2
    34    27    29    2
    35    27    30    1
    36    30    31    1
