@<TRIPOS>MOLECULE
29287_ChemDiv_6049-1100
 31 34 0 0 0
SMALL
GASTEIGER
Energy = 0

@<TRIPOS>ATOM
      1 C          -0.8130   -1.6290    0.0000 C.ar    1  LIG1        0.1087
      2 C          -1.7830   -1.5790    0.0000 C.ar    1  LIG1        0.0933
      3 C          -2.0040   -0.5790    0.0000 C.ar    1  LIG1       -0.0121
      4 C          -1.1750   -0.1080    0.0000 C.ar    1  LIG1        0.0048
      5 S          -0.4290   -0.7540    0.0000 S.2     1  LIG1       -0.0749
      6 C          -1.2000    0.9080    0.0000 C.3     1  LIG1        0.0327
      7 C          -2.0330    1.3830    0.0000 C.3     1  LIG1        0.0052
      8 C          -2.0540    2.3880    0.0000 C.3     1  LIG1        0.0003
      9 C          -3.0420    2.4130    0.0000 C.3     1  LIG1        0.0000
     10 C          -2.0330    3.3790    0.0000 C.3     1  LIG1        0.0000
     11 C          -1.0540    2.3790    0.0000 C.3     1  LIG1        0.0000
     12 C          -2.9000    0.8380    0.0000 C.3     1  LIG1        0.0050
     13 C          -2.8630   -0.1380    0.0000 C.3     1  LIG1        0.0268
     14 C          -2.4170   -2.3290    0.0000 C.2     1  LIG1        0.3428
     15 O          -2.0750   -3.2580    0.0000 O.2     1  LIG1       -0.2448
     16 O          -3.3960   -2.1580    0.0000 O.3     1  LIG1       -0.4413
     17 C          -3.7420   -1.2040    0.0000 C.3     1  LIG1        0.2560
     18 N          -0.2880   -2.5040    0.0000 N.am    1  LIG1       -0.1660
     19 C           0.7380   -2.5040    0.0000 C.2     1  LIG1        0.3043
     20 C           1.2250   -1.6210    0.0000 C.ar    1  LIG1        0.2037
     21 O           2.2420   -1.5920    0.0000 O.2     1  LIG1       -0.4163
     22 C           2.7170   -0.7040    0.0000 C.ar    1  LIG1        0.3458
     23 C           2.1500    0.1670    0.0000 C.ar    1  LIG1        0.0761
     24 C           1.1710    0.1130    0.0000 C.ar    1  LIG1        0.0094
     25 C           0.6960   -0.7830    0.0000 C.ar    1  LIG1        0.0426
     26 C           0.6290    0.9710    0.0000 C.ar    1  LIG1        0.0003
     27 C           1.0630    1.8750    0.0000 C.ar    1  LIG1        0.0000
     28 C           2.0960    1.9130    0.0000 C.ar    1  LIG1        0.0002
     29 C           2.6130    1.0670    0.0000 C.ar    1  LIG1        0.0065
     30 O           3.7380   -0.6420    0.0000 O.2     1  LIG1       -0.2445
     31 O           1.2630   -3.3750    0.0000 O.2     1  LIG1       -0.2646
@<TRIPOS>BOND
     1     1     2   ar
     2     1     5   ar
     3     1    18    1
     4     2     3   ar
     5     2    14    1
     6     3     4   ar
     7     3    13    1
     8     4     5   ar
     9     4     6    1
    10     6     7    1
    11     7     8    1
    12     7    12    1
    13     8     9    1
    14     8    10    1
    15     8    11    1
    16    12    13    1
    17    14    15    2
    18    14    16    1
    19    16    17    1
    20    18    19   am
    21    19    20    1
    22    19    31    2
    23    20    21   ar
    24    20    25   ar
    25    21    22   ar
    26    22    23   ar
    27    22    30    2
    28    23    24   ar
    29    23    29   ar
    30    24    25   ar
    31    24    26   ar
    32    26    27   ar
    33    27    28   ar
    34    28    29   ar
