@<TRIPOS>MOLECULE
29280_ChemDiv_K848-0567
 24 25 0 0 0
SMALL
GASTEIGER
Energy = 0

@<TRIPOS>ATOM
      1 C          -3.0580    0.8500    0.0000 C.3     1  LIG1        0.1510
      2 C          -3.9580    0.4170    0.0000 C.3     1  LIG1        0.0973
      3 C          -4.0330   -0.5670    0.0000 C.3     1  LIG1        0.1417
      4 N          -3.2080   -1.1380    0.0000 N.4     1  LIG1        0.3813
      5 C          -2.3170   -0.7000    0.0000 C.3     1  LIG1        0.1713
      6 C          -1.4920   -1.2670    0.0000 C.3     1  LIG1        0.2047
      7 O          -1.5630   -2.2750    0.0000 O.3     1  LIG1       -0.3411
      8 C          -2.4670   -2.7000    0.0000 C.3     1  LIG1        0.2047
      9 C          -3.2920   -2.1380    0.0000 C.3     1  LIG1        0.1713
     10 C          -2.1460    1.2750    0.0000 C.ar    1  LIG1        0.0054
     11 C          -1.3250    0.7130    0.0000 C.ar    1  LIG1        0.0012
     12 C          -0.4210    1.1380    0.0000 C.ar    1  LIG1        0.0367
     13 C          -0.3330    2.1290    0.0000 C.ar    1  LIG1        0.1385
     14 C          -1.1540    2.7040    0.0000 C.ar    1  LIG1        0.0367
     15 C          -2.0670    2.2790    0.0000 C.ar    1  LIG1        0.0012
     16 O           0.5710    2.5580    0.0000 O.3     1  LIG1       -0.4755
     17 C           1.3920    1.9920    0.0000 C.3     1  LIG1        0.2054
     18 C           2.2960    2.4210    0.0000 C.3     1  LIG1        0.0473
     19 C           3.1210    1.8420    0.0000 C.3     1  LIG1        0.0038
     20 C           4.0290    2.2670    0.0000 C.3     1  LIG1        0.0001
     21 O          -3.4750    1.7500    0.0000 O.3     1  LIG1       -0.2210
     22 C          -2.6210   -0.0580    0.0000 C.3     1  LIG1        0.0349
     23 C          -1.6250   -0.1420    0.0000 C.3     1  LIG1        0.0029
     24 C          -1.1960   -1.0380    0.0000 C.3     1  LIG1        0.0001
@<TRIPOS>BOND
     1     1     2    1
     2     1    10    1
     3     1    21    1
     4     1    22    1
     5     2     3    1
     6     3     4    1
     7     4     5    1
     8     4     9    1
     9     5     6    1
    10     6     7    1
    11     7     8    1
    12     8     9    1
    13    10    11   ar
    14    10    15   ar
    15    11    12   ar
    16    12    13   ar
    17    13    14   ar
    18    13    16    1
    19    14    15   ar
    20    16    17    1
    21    17    18    1
    22    18    19    1
    23    19    20    1
    24    22    23    1
    25    23    24    1
