@<TRIPOS>MOLECULE
29289_ChemDiv_6049-1154
 30 32 0 0 0
SMALL
GASTEIGER
Energy = 0

@<TRIPOS>ATOM
      1 C          -0.0790   -1.2670    0.0000 C.ar    1  LIG1        0.1092
      2 C          -1.0790   -1.1380    0.0000 C.ar    1  LIG1        0.0938
      3 C          -1.2460   -0.1710    0.0000 C.ar    1  LIG1       -0.0015
      4 C          -0.4290    0.3000    0.0000 C.ar    1  LIG1        0.1025
      5 S           0.3210   -0.3710    0.0000 S.2     1  LIG1       -0.0641
      6 C          -0.3540    1.3000    0.0000 C.2     1  LIG1        0.3470
      7 O          -1.1960    1.8880    0.0000 O.2     1  LIG1       -0.2443
      8 O           0.5790    1.6290    0.0000 O.3     1  LIG1       -0.4451
      9 C           0.7500    2.6460    0.0000 C.3     1  LIG1        0.2089
     10 C           1.7000    3.0080    0.0000 C.3     1  LIG1        0.0513
     11 C          -2.1420    0.2580    0.0000 C.3     1  LIG1        0.0320
     12 C          -1.7540   -1.8670    0.0000 C.2     1  LIG1        0.3427
     13 O          -1.4750   -2.8500    0.0000 O.2     1  LIG1       -0.2448
     14 O          -2.6710   -1.5420    0.0000 O.3     1  LIG1       -0.4454
     15 C          -3.4500   -2.2130    0.0000 C.3     1  LIG1        0.2089
     16 C          -4.4040   -1.8880    0.0000 C.3     1  LIG1        0.0513
     17 N           0.4290   -2.1460    0.0000 N.am    1  LIG1       -0.1660
     18 C           1.4380   -2.1460    0.0000 C.2     1  LIG1        0.3043
     19 C           1.9170   -1.2710    0.0000 C.ar    1  LIG1        0.2037
     20 O           2.9250   -1.2500    0.0000 O.2     1  LIG1       -0.4163
     21 C           3.3960   -0.3710    0.0000 C.ar    1  LIG1        0.3458
     22 C           2.8330    0.4920    0.0000 C.ar    1  LIG1        0.0761
     23 C           1.8670    0.4380    0.0000 C.ar    1  LIG1        0.0094
     24 C           1.4000   -0.4460    0.0000 C.ar    1  LIG1        0.0426
     25 C           1.3290    1.2880    0.0000 C.ar    1  LIG1        0.0003
     26 C           1.7580    2.1750    0.0000 C.ar    1  LIG1        0.0000
     27 C           2.7830    2.2170    0.0000 C.ar    1  LIG1        0.0002
     28 C           3.2920    1.3790    0.0000 C.ar    1  LIG1        0.0065
     29 O           4.4000   -0.3000    0.0000 O.2     1  LIG1       -0.2445
     30 O           1.9580   -3.0040    0.0000 O.2     1  LIG1       -0.2646
@<TRIPOS>BOND
     1     1     2   ar
     2     1     5   ar
     3     1    17    1
     4     2     3   ar
     5     2    12    1
     6     3     4   ar
     7     3    11    1
     8     4     5   ar
     9     4     6    1
    10     6     7    2
    11     6     8    1
    12     8     9    1
    13     9    10    1
    14    12    13    2
    15    12    14    1
    16    14    15    1
    17    15    16    1
    18    17    18   am
    19    18    19    1
    20    18    30    2
    21    19    20   ar
    22    19    24   ar
    23    20    21   ar
    24    21    22   ar
    25    21    29    2
    26    22    23   ar
    27    22    28   ar
    28    23    24   ar
    29    23    25   ar
    30    25    26   ar
    31    26    27   ar
    32    27    28   ar
