@<TRIPOS>MOLECULE
29285_ChemDiv_5989-0894
 26 28 0 0 0
SMALL
GASTEIGER
Energy = 0

@<TRIPOS>ATOM
      1 C          -0.3830    0.4500    0.0000 C.ar    1  LIG1        0.1068
      2 C          -0.7000    1.4210    0.0000 C.ar    1  LIG1        0.0727
      3 C          -1.7170    1.4210    0.0000 C.ar    1  LIG1       -0.0140
      4 C          -2.0170    0.4830    0.0000 C.ar    1  LIG1        0.0047
      5 S          -1.1920   -0.1210    0.0000 S.2     1  LIG1       -0.0750
      6 C          -3.0080    0.2580    0.0000 C.3     1  LIG1        0.0327
      7 C          -3.6630    1.0040    0.0000 C.3     1  LIG1        0.0055
      8 C          -3.3630    1.9710    0.0000 C.3     1  LIG1        0.0050
      9 C          -2.3750    2.1790    0.0000 C.3     1  LIG1        0.0268
     10 C          -0.0960    2.2210    0.0000 C.2     1  LIG1        0.2663
     11 N           0.9210    2.1130    0.0000 N.am    1  LIG1       -0.1988
     12 C           1.3000    1.1920    0.0000 C.3     1  LIG1        0.1509
     13 C           2.2920    1.0670    0.0000 C.3     1  LIG1        0.2063
     14 O           2.9000    1.8580    0.0000 O.3     1  LIG1       -0.2184
     15 C           2.6710    0.1540    0.0000 C.3     1  LIG1        0.2166
     16 O           3.6580    0.0250    0.0000 O.3     1  LIG1       -0.2175
     17 O          -0.4920    3.1290    0.0000 O.2     1  LIG1       -0.2683
     18 N           0.5670    0.1170    0.0000 N.am    1  LIG1       -0.1687
     19 C           0.7460   -0.8630    0.0000 C.2     1  LIG1        0.2694
     20 O           1.7040   -1.2170    0.0000 O.2     1  LIG1       -0.2680
     21 C           0.0130   -1.5330    0.0000 C.ar    1  LIG1        0.0554
     22 C           0.2000   -2.4920    0.0000 C.ar    1  LIG1        0.0046
     23 C          -0.5540   -3.1250    0.0000 C.ar    1  LIG1        0.0001
     24 C          -1.4880   -2.8000    0.0000 C.ar    1  LIG1        0.0000
     25 C          -1.6790   -1.8330    0.0000 C.ar    1  LIG1        0.0001
     26 C          -0.9330   -1.2000    0.0000 C.ar    1  LIG1        0.0046
@<TRIPOS>BOND
     1     1     2   ar
     2     1     5   ar
     3     1    18    1
     4     2     3   ar
     5     2    10    1
     6     3     4   ar
     7     3     9    1
     8     4     5   ar
     9     4     6    1
    10     6     7    1
    11     7     8    1
    12     8     9    1
    13    10    11   am
    14    10    17    2
    15    11    12    1
    16    12    13    1
    17    13    14    1
    18    13    15    1
    19    15    16    1
    20    18    19   am
    21    19    20    2
    22    19    21    1
    23    21    22   ar
    24    21    26   ar
    25    22    23   ar
    26    23    24   ar
    27    24    25   ar
    28    25    26   ar
