@<TRIPOS>MOLECULE
29281_ChemDiv_3341-1125
 35 39 0 0 0
SMALL
GASTEIGER
Energy = 0

@<TRIPOS>ATOM
      1 S           2.0080   -0.4540    0.0000 S.O2    1  LIG1        0.0766
      2 N           2.5540   -1.3330    0.0000 N.pl3   1  LIG1       -0.1909
      3 C           2.0630   -2.2080    0.0000 C.ar    1  LIG1        0.0648
      4 C           2.5540   -3.0460    0.0000 C.ar    1  LIG1       -0.0072
      5 C           3.5630   -3.0290    0.0000 C.3     1  LIG1        0.0295
      6 C           4.0500   -2.1710    0.0000 C.3     1  LIG1        0.0281
      7 C           3.5460   -1.3170    0.0000 C.3     1  LIG1        0.1162
      8 C           2.0710   -3.9210    0.0000 C.ar    1  LIG1       -0.0030
      9 C           1.1000   -3.9290    0.0000 C.ar    1  LIG1       -0.0002
     10 C           0.5960   -3.0750    0.0000 C.ar    1  LIG1        0.0013
     11 C           1.0580   -2.2170    0.0000 C.ar    1  LIG1        0.0158
     12 C           1.4960    0.4170    0.0000 C.ar    1  LIG1        0.1254
     13 C           0.5080    0.4170    0.0000 C.ar    1  LIG1        0.0203
     14 C           0.0040    1.2710    0.0000 C.ar    1  LIG1        0.0060
     15 C           0.4790    2.1580    0.0000 C.ar    1  LIG1        0.0555
     16 C          -0.0170    3.0290    0.0000 C.2     1  LIG1        0.2694
     17 N          -1.0330    3.0290    0.0000 N.am    1  LIG1       -0.1687
     18 C          -1.5290    2.1750    0.0000 C.ar    1  LIG1        0.1069
     19 C          -2.5000    2.0750    0.0000 C.ar    1  LIG1        0.0743
     20 C          -2.7130    1.0580    0.0000 C.ar    1  LIG1       -0.0139
     21 C          -1.8580    0.5750    0.0000 C.ar    1  LIG1        0.0047
     22 S          -1.1330    1.2710    0.0000 S.2     1  LIG1       -0.0750
     23 C          -1.6920   -0.3960    0.0000 C.3     1  LIG1        0.0327
     24 C          -2.3830   -1.1540    0.0000 C.3     1  LIG1        0.0052
     25 C          -3.3960   -1.0540    0.0000 C.3     1  LIG1        0.0007
     26 C          -3.9330   -0.2580    0.0000 C.3     1  LIG1        0.0047
     27 C          -3.6420    0.7080    0.0000 C.3     1  LIG1        0.0267
     28 C          -3.1420    2.8170    0.0000 C.2     1  LIG1        0.2856
     29 O          -2.8960    3.8540    0.0000 O.2     1  LIG1       -0.2666
     30 N          -4.0540    2.5670    0.0000 N.am    1  LIG1       -0.0837
     31 O           0.4630    3.9330    0.0000 O.2     1  LIG1       -0.2680
     32 C           1.5000    2.1580    0.0000 C.ar    1  LIG1        0.0060
     33 C           2.0250    1.2830    0.0000 C.ar    1  LIG1        0.0203
     34 O           2.8830    0.0670    0.0000 O.2     1  LIG1       -0.1497
     35 O           1.1420   -0.9540    0.0000 O.2     1  LIG1       -0.1497
@<TRIPOS>BOND
     1     1     2    1
     2     1    12    1
     3     1    34    2
     4     1    35    2
     5     2     3    1
     6     2     7    1
     7     3     4   ar
     8     3    11   ar
     9     4     5    1
    10     4     8   ar
    11     5     6    1
    12     6     7    1
    13     8     9   ar
    14     9    10   ar
    15    10    11   ar
    16    12    13   ar
    17    12    33   ar
    18    13    14   ar
    19    14    15   ar
    20    15    16    1
    21    15    32   ar
    22    16    17   am
    23    16    31    2
    24    17    18    1
    25    18    19   ar
    26    18    22   ar
    27    19    20   ar
    28    19    28    1
    29    20    21   ar
    30    20    27    1
    31    21    22   ar
    32    21    23    1
    33    23    24    1
    34    24    25    1
    35    25    26    1
    36    26    27    1
    37    28    29    2
    38    28    30   am
    39    32    33   ar
