@<TRIPOS>MOLECULE
29297_ChemDiv_K784-7031
 32 35 0 0 0
SMALL
GASTEIGER
Energy = 0

@<TRIPOS>ATOM
      1 N           1.2920   -1.4460    0.0000 N.am    1  LIG1       -0.2699
      2 C           2.1540   -0.9460    0.0000 C.2     1  LIG1        0.2464
      3 C           2.1540    0.0540    0.0000 C.3     1  LIG1        0.1794
      4 N           1.2920    0.5580    0.0000 N.am    1  LIG1       -0.2693
      5 C           0.4290    0.0540    0.0000 C.2     1  LIG1        0.2484
      6 C           0.4290   -0.9460    0.0000 C.3     1  LIG1        0.1750
      7 C          -0.4380   -1.4540    0.0000 C.ar    1  LIG1        0.0047
      8 C          -1.3080   -0.9460    0.0000 C.ar    1  LIG1        0.0009
      9 C          -2.1710   -1.4540    0.0000 C.ar    1  LIG1        0.0366
     10 C          -2.1710   -2.4580    0.0000 C.ar    1  LIG1        0.1387
     11 C          -1.2960   -2.9580    0.0000 C.ar    1  LIG1        0.0366
     12 C          -0.4330   -2.4540    0.0000 C.ar    1  LIG1        0.0009
     13 O          -3.0330   -2.9580    0.0000 O.3     1  LIG1       -0.4714
     14 C          -3.0330   -3.9540    0.0000 C.3     1  LIG1        0.2525
     15 O          -0.4380    0.5500    0.0000 O.2     1  LIG1       -0.2727
     16 C           1.2920    1.5540    0.0000 C.3     1  LIG1        0.0986
     17 C           2.1540    2.0630    0.0000 C.3     1  LIG1        0.0478
     18 C           2.1540    3.0630    0.0000 C.ar    1  LIG1       -0.0205
     19 C           1.2920    3.5500    0.0000 C.ar    1  LIG1       -0.0042
     20 C           1.2920    4.5460    0.0000 C.ar    1  LIG1       -0.0003
     21 C           2.1540    5.0540    0.0000 C.ar    1  LIG1       -0.0000
     22 C           3.0250    4.5460    0.0000 C.ar    1  LIG1       -0.0003
     23 C           3.0250    3.5630    0.0000 C.ar    1  LIG1       -0.0042
     24 O           3.0290   -1.4540    0.0000 O.2     1  LIG1       -0.2730
     25 C           1.2920   -2.4420    0.0000 C.3     1  LIG1        0.0761
     26 C           2.2130   -2.8330    0.0000 C.3     1  LIG1        0.0198
     27 C           2.6040   -3.7460    0.0000 C.3     1  LIG1        0.0017
     28 C           2.2130   -4.6670    0.0000 C.3     1  LIG1        0.0001
     29 C           1.2920   -5.0540    0.0000 C.3     1  LIG1        0.0000
     30 C           0.3670   -4.6670    0.0000 C.3     1  LIG1        0.0001
     31 C          -0.0080   -3.7540    0.0000 C.3     1  LIG1        0.0017
     32 C           0.3670   -2.8210    0.0000 C.3     1  LIG1        0.0198
@<TRIPOS>BOND
     1     1     2   am
     2     1     6    1
     3     1    25    1
     4     2     3    1
     5     2    24    2
     6     3     4    1
     7     4     5   am
     8     4    16    1
     9     5     6    1
    10     5    15    2
    11     6     7    1
    12     7     8   ar
    13     7    12   ar
    14     8     9   ar
    15     9    10   ar
    16    10    11   ar
    17    10    13    1
    18    11    12   ar
    19    13    14    1
    20    16    17    1
    21    17    18    1
    22    18    19   ar
    23    18    23   ar
    24    19    20   ar
    25    20    21   ar
    26    21    22   ar
    27    22    23   ar
    28    25    26    1
    29    25    32    1
    30    26    27    1
    31    27    28    1
    32    28    29    1
    33    29    30    1
    34    30    31    1
    35    31    32    1
