@<TRIPOS>MOLECULE
29291_ChemDiv_6049-1174
 29 31 0 0 0
SMALL
GASTEIGER
Energy = 0

@<TRIPOS>ATOM
      1 C          -0.9080   -1.4880    0.0000 C.ar    1  LIG1        0.1075
      2 C          -1.9000   -1.3500    0.0000 C.ar    1  LIG1        0.0748
      3 C          -2.0170   -0.3630    0.0000 C.ar    1  LIG1       -0.0033
      4 C          -1.1170    0.0920    0.0000 C.ar    1  LIG1        0.1025
      5 S          -0.3830   -0.6290    0.0000 S.2     1  LIG1       -0.0642
      6 C          -0.9500    1.0830    0.0000 C.2     1  LIG1        0.3469
      7 O          -1.7710    1.6250    0.0000 O.3     1  LIG1       -0.4489
      8 C          -1.6580    2.6460    0.0000 C.3     1  LIG1        0.1694
      9 C          -2.4710    3.2330    0.0000 C.3     1  LIG1        0.0473
     10 C          -0.7920    3.0920    0.0000 C.3     1  LIG1        0.0473
     11 O          -0.0080    1.4830    0.0000 O.2     1  LIG1       -0.2443
     12 C          -2.8460    0.1920    0.0000 C.3     1  LIG1        0.0320
     13 C          -2.6080   -2.0500    0.0000 C.2     1  LIG1        0.2856
     14 O          -3.5380   -1.7630    0.0000 O.2     1  LIG1       -0.2666
     15 N          -2.3790   -3.0380    0.0000 N.am    1  LIG1       -0.0837
     16 N          -0.4380   -2.3670    0.0000 N.am    1  LIG1       -0.1661
     17 C           0.5750   -2.3670    0.0000 C.2     1  LIG1        0.3043
     18 C           1.0540   -1.4920    0.0000 C.ar    1  LIG1        0.2037
     19 O           2.0580   -1.4710    0.0000 O.2     1  LIG1       -0.4163
     20 C           2.5290   -0.5920    0.0000 C.ar    1  LIG1        0.3458
     21 C           1.9670    0.2670    0.0000 C.ar    1  LIG1        0.0761
     22 C           1.0000    0.2170    0.0000 C.ar    1  LIG1        0.0094
     23 C           0.5380   -0.6710    0.0000 C.ar    1  LIG1        0.0426
     24 C           0.4670    1.0630    0.0000 C.ar    1  LIG1        0.0003
     25 C           0.8960    1.9540    0.0000 C.ar    1  LIG1        0.0000
     26 C           1.9170    1.9920    0.0000 C.ar    1  LIG1        0.0002
     27 C           2.4250    1.1540    0.0000 C.ar    1  LIG1        0.0065
     28 O           3.5330   -0.5290    0.0000 O.2     1  LIG1       -0.2445
     29 O           1.0920   -3.2290    0.0000 O.2     1  LIG1       -0.2646
@<TRIPOS>BOND
     1     1     2   ar
     2     1     5   ar
     3     1    16    1
     4     2     3   ar
     5     2    13    1
     6     3     4   ar
     7     3    12    1
     8     4     5   ar
     9     4     6    1
    10     6     7    1
    11     6    11    2
    12     7     8    1
    13     8     9    1
    14     8    10    1
    15    13    14    2
    16    13    15   am
    17    16    17   am
    18    17    18    1
    19    17    29    2
    20    18    19   ar
    21    18    23   ar
    22    19    20   ar
    23    20    21   ar
    24    20    28    2
    25    21    22   ar
    26    21    27   ar
    27    22    23   ar
    28    22    24   ar
    29    24    25   ar
    30    25    26   ar
    31    26    27   ar
