@<TRIPOS>MOLECULE
29299_ChemDiv_K784-7032
 34 38 0 0 0
SMALL
GASTEIGER
Energy = 0

@<TRIPOS>ATOM
      1 N           0.8670   -1.7580    0.0000 N.am    1  LIG1       -0.2661
      2 C           1.7420   -1.2630    0.0000 C.2     1  LIG1        0.2467
      3 C           1.7420   -0.2580    0.0000 C.3     1  LIG1        0.1794
      4 N           0.8670    0.2500    0.0000 N.am    1  LIG1       -0.2693
      5 C           0.0040   -0.2580    0.0000 C.2     1  LIG1        0.2484
      6 C           0.0040   -1.2630    0.0000 C.3     1  LIG1        0.1752
      7 C          -0.8580   -1.7630    0.0000 C.ar    1  LIG1        0.0047
      8 C          -1.7250   -1.2630    0.0000 C.ar    1  LIG1        0.0009
      9 C          -2.5960   -1.7630    0.0000 C.ar    1  LIG1        0.0366
     10 C          -2.5960   -2.7630    0.0000 C.ar    1  LIG1        0.1387
     11 C          -1.7210   -3.2710    0.0000 C.ar    1  LIG1        0.0366
     12 C          -0.8580   -2.7630    0.0000 C.ar    1  LIG1        0.0009
     13 O          -3.4580   -3.2630    0.0000 O.3     1  LIG1       -0.4714
     14 C          -3.4580   -4.2710    0.0000 C.3     1  LIG1        0.2525
     15 O          -0.8580    0.2500    0.0000 O.2     1  LIG1       -0.2727
     16 C           0.8670    1.2460    0.0000 C.3     1  LIG1        0.0986
     17 C           1.7420    1.7500    0.0000 C.3     1  LIG1        0.0478
     18 C           1.7420    2.7500    0.0000 C.ar    1  LIG1       -0.0205
     19 C           2.6080    3.2500    0.0000 C.ar    1  LIG1       -0.0042
     20 C           2.6080    4.2380    0.0000 C.ar    1  LIG1       -0.0003
     21 C           1.7420    4.7420    0.0000 C.ar    1  LIG1       -0.0000
     22 C           0.8670    4.2380    0.0000 C.ar    1  LIG1       -0.0003
     23 C           0.8790    3.2460    0.0000 C.ar    1  LIG1       -0.0042
     24 O           2.6080   -1.7630    0.0000 O.2     1  LIG1       -0.2730
     25 C           0.8670   -2.7460    0.0000 C.3     1  LIG1        0.0983
     26 C           1.7290   -3.2460    0.0000 C.ar    1  LIG1       -0.0082
     27 C           1.7290   -4.2460    0.0000 C.ar    1  LIG1       -0.0246
     28 C           0.8670   -4.7420    0.0000 C.3     1  LIG1        0.0262
     29 C           0.0040   -4.2460    0.0000 C.3     1  LIG1        0.0067
     30 C           0.0040   -3.2460    0.0000 C.3     1  LIG1        0.0247
     31 C           2.5880   -4.7420    0.0000 C.ar    1  LIG1       -0.0045
     32 C           3.4540   -4.2540    0.0000 C.ar    1  LIG1       -0.0003
     33 C           3.4540   -3.2460    0.0000 C.ar    1  LIG1       -0.0003
     34 C           2.5920   -2.7460    0.0000 C.ar    1  LIG1       -0.0030
@<TRIPOS>BOND
     1     1     2   am
     2     1     6    1
     3     1    25    1
     4     2     3    1
     5     2    24    2
     6     3     4    1
     7     4     5   am
     8     4    16    1
     9     5     6    1
    10     5    15    2
    11     6     7    1
    12     7     8   ar
    13     7    12   ar
    14     8     9   ar
    15     9    10   ar
    16    10    11   ar
    17    10    13    1
    18    11    12   ar
    19    13    14    1
    20    16    17    1
    21    17    18    1
    22    18    19   ar
    23    18    23   ar
    24    19    20   ar
    25    20    21   ar
    26    21    22   ar
    27    22    23   ar
    28    25    26    1
    29    25    30    1
    30    26    27   ar
    31    26    34   ar
    32    27    28    1
    33    27    31   ar
    34    28    29    1
    35    29    30    1
    36    31    32   ar
    37    32    33   ar
    38    33    34   ar
