@<TRIPOS>MOLECULE
29293_ChemDiv_6049-1185
 27 30 0 0 0
SMALL
GASTEIGER
Energy = 0

@<TRIPOS>ATOM
      1 C          -1.1000   -1.4710    0.0000 C.ar    1  LIG1        0.1121
      2 C          -2.1000   -1.4130    0.0000 C.ar    1  LIG1        0.0860
      3 C          -2.3330   -0.4080    0.0000 C.ar    1  LIG1       -0.0088
      4 C          -1.4540    0.1250    0.0000 C.ar    1  LIG1        0.0052
      5 S          -0.7040   -0.5710    0.0000 S.2     1  LIG1       -0.0744
      6 C          -1.4750    1.1580    0.0000 C.3     1  LIG1        0.0327
      7 C          -2.3460    1.6330    0.0000 C.3     1  LIG1        0.0052
      8 C          -3.2330    1.1080    0.0000 C.3     1  LIG1        0.0051
      9 C          -3.2170    0.1000    0.0000 C.3     1  LIG1        0.0273
     10 C          -2.3040    2.6500    0.0000 C.3     1  LIG1        0.0004
     11 C          -3.1420    3.1880    0.0000 C.3     1  LIG1        0.0000
     12 C          -2.7330   -2.1790    0.0000 C.1     1  LIG1        0.1019
     13 N          -3.3540   -2.9500    0.0000 N.1     1  LIG1       -0.1908
     14 N          -0.5920   -2.3290    0.0000 N.am    1  LIG1       -0.1656
     15 C           0.4080   -2.3290    0.0000 C.2     1  LIG1        0.3043
     16 C           0.8830   -1.4670    0.0000 C.ar    1  LIG1        0.2037
     17 O           1.8830   -1.4380    0.0000 O.2     1  LIG1       -0.4163
     18 C           2.3540   -0.5710    0.0000 C.ar    1  LIG1        0.3458
     19 C           1.7960    0.2790    0.0000 C.ar    1  LIG1        0.0761
     20 C           0.8330    0.2330    0.0000 C.ar    1  LIG1        0.0094
     21 C           0.3710   -0.6460    0.0000 C.ar    1  LIG1        0.0426
     22 C           0.3080    1.0710    0.0000 C.ar    1  LIG1        0.0003
     23 C           0.7290    1.9540    0.0000 C.ar    1  LIG1        0.0000
     24 C           1.7420    1.9920    0.0000 C.ar    1  LIG1        0.0002
     25 C           2.2460    1.1670    0.0000 C.ar    1  LIG1        0.0065
     26 O           3.3500   -0.5040    0.0000 O.2     1  LIG1       -0.2445
     27 O           0.9250   -3.1830    0.0000 O.2     1  LIG1       -0.2646
@<TRIPOS>BOND
     1     1     2   ar
     2     1     5   ar
     3     1    14    1
     4     2     3   ar
     5     2    12    1
     6     3     4   ar
     7     3     9    1
     8     4     5   ar
     9     4     6    1
    10     6     7    1
    11     7     8    1
    12     7    10    1
    13     8     9    1
    14    10    11    1
    15    12    13    3
    16    14    15   am
    17    15    16    1
    18    15    27    2
    19    16    17   ar
    20    16    21   ar
    21    17    18   ar
    22    18    19   ar
    23    18    26    2
    24    19    20   ar
    25    19    25   ar
    26    20    21   ar
    27    20    22   ar
    28    22    23   ar
    29    23    24   ar
    30    24    25   ar
