@<TRIPOS>MOLECULE
29295_ChemDiv_6049-1288
 27 30 0 0 0
SMALL
GASTEIGER
Energy = 0

@<TRIPOS>ATOM
      1 C          -0.9420   -1.1630    0.0000 C.ar    1  LIG1        0.1070
      2 C          -1.9210   -1.1330    0.0000 C.ar    1  LIG1        0.0743
      3 C          -2.1830   -0.1960    0.0000 C.ar    1  LIG1       -0.0139
      4 C          -1.3580    0.3790    0.0000 C.ar    1  LIG1        0.0047
      5 S          -0.6040   -0.2380    0.0000 S.2     1  LIG1       -0.0750
      6 C          -1.4380    1.4000    0.0000 C.3     1  LIG1        0.0327
      7 C          -2.3420    1.8880    0.0000 C.3     1  LIG1        0.0052
      8 C          -3.2170    1.2960    0.0000 C.3     1  LIG1        0.0050
      9 C          -3.1130    0.2880    0.0000 C.3     1  LIG1        0.0268
     10 C          -2.2630    2.9330    0.0000 C.3     1  LIG1        0.0004
     11 C          -2.5500   -1.9710    0.0000 C.2     1  LIG1        0.2856
     12 O          -2.1460   -2.9290    0.0000 O.2     1  LIG1       -0.2666
     13 N          -3.5500   -1.8290    0.0000 N.am    1  LIG1       -0.0837
     14 N          -0.3540   -2.0630    0.0000 N.am    1  LIG1       -0.1661
     15 C           0.6380   -2.0630    0.0000 C.2     1  LIG1        0.3043
     16 C           1.1080   -1.2040    0.0000 C.ar    1  LIG1        0.2037
     17 O           2.0960   -1.1830    0.0000 O.2     1  LIG1       -0.4163
     18 C           2.5580   -0.3250    0.0000 C.ar    1  LIG1        0.3458
     19 C           2.0040    0.5210    0.0000 C.ar    1  LIG1        0.0761
     20 C           1.0580    0.4710    0.0000 C.ar    1  LIG1        0.0094
     21 C           0.6000   -0.3960    0.0000 C.ar    1  LIG1        0.0426
     22 C           0.5330    1.3080    0.0000 C.ar    1  LIG1        0.0003
     23 C           0.9540    2.1750    0.0000 C.ar    1  LIG1        0.0000
     24 C           1.9540    2.2130    0.0000 C.ar    1  LIG1        0.0002
     25 C           2.4540    1.3960    0.0000 C.ar    1  LIG1        0.0065
     26 O           3.5460   -0.2630    0.0000 O.2     1  LIG1       -0.2445
     27 O           1.1460   -2.9130    0.0000 O.2     1  LIG1       -0.2646
@<TRIPOS>BOND
     1     1     2   ar
     2     1     5   ar
     3     1    14    1
     4     2     3   ar
     5     2    11    1
     6     3     4   ar
     7     3     9    1
     8     4     5   ar
     9     4     6    1
    10     6     7    1
    11     7     8    1
    12     7    10    1
    13     8     9    1
    14    11    12    2
    15    11    13   am
    16    14    15   am
    17    15    16    1
    18    15    27    2
    19    16    17   ar
    20    16    21   ar
    21    17    18   ar
    22    18    19   ar
    23    18    26    2
    24    19    20   ar
    25    19    25   ar
    26    20    21   ar
    27    20    22   ar
    28    22    23   ar
    29    23    24   ar
    30    24    25   ar
