@<TRIPOS>MOLECULE
29298_ChemDiv_K848-0605
 25 26 0 0 0
SMALL
GASTEIGER
Energy = 0

@<TRIPOS>ATOM
      1 C          -3.0210    0.7790    0.0000 C.3     1  LIG1        0.1510
      2 C          -3.8960    0.3040    0.0000 C.3     1  LIG1        0.0973
      3 C          -3.9210   -0.6830    0.0000 C.3     1  LIG1        0.1417
      4 N          -3.0670   -1.2040    0.0000 N.4     1  LIG1        0.3813
      5 C          -2.1920   -0.7290    0.0000 C.3     1  LIG1        0.1713
      6 C          -1.3380   -1.2500    0.0000 C.3     1  LIG1        0.2047
      7 O          -1.3540   -2.2540    0.0000 O.3     1  LIG1       -0.3411
      8 C          -2.2380   -2.7330    0.0000 C.3     1  LIG1        0.2047
      9 C          -3.0960   -2.2130    0.0000 C.3     1  LIG1        0.1713
     10 C          -2.1380    1.2540    0.0000 C.ar    1  LIG1        0.0054
     11 C          -1.2920    0.7330    0.0000 C.ar    1  LIG1        0.0012
     12 C          -0.4040    1.2170    0.0000 C.ar    1  LIG1        0.0367
     13 C          -0.3750    2.2170    0.0000 C.ar    1  LIG1        0.1385
     14 C          -1.2290    2.7380    0.0000 C.ar    1  LIG1        0.0367
     15 C          -2.1170    2.2630    0.0000 C.ar    1  LIG1        0.0012
     16 O           0.4960    2.6920    0.0000 O.3     1  LIG1       -0.4755
     17 C           1.3540    2.1710    0.0000 C.3     1  LIG1        0.2054
     18 C           2.2330    2.6540    0.0000 C.3     1  LIG1        0.0473
     19 C           3.0920    2.1250    0.0000 C.3     1  LIG1        0.0038
     20 C           3.0630    1.1290    0.0000 C.3     1  LIG1        0.0001
     21 C           3.9170    0.6040    0.0000 C.3     1  LIG1        0.0000
     22 O          -3.4920    1.6500    0.0000 O.3     1  LIG1       -0.2210
     23 C          -2.5460   -0.0960    0.0000 C.3     1  LIG1        0.0349
     24 C          -1.5420   -0.1380    0.0000 C.3     1  LIG1        0.0029
     25 C          -1.0630   -0.9880    0.0000 C.3     1  LIG1        0.0001
@<TRIPOS>BOND
     1     1     2    1
     2     1    10    1
     3     1    22    1
     4     1    23    1
     5     2     3    1
     6     3     4    1
     7     4     5    1
     8     4     9    1
     9     5     6    1
    10     6     7    1
    11     7     8    1
    12     8     9    1
    13    10    11   ar
    14    10    15   ar
    15    11    12   ar
    16    12    13   ar
    17    13    14   ar
    18    13    16    1
    19    14    15   ar
    20    16    17    1
    21    17    18    1
    22    18    19    1
    23    19    20    1
    24    20    21    1
    25    23    24    1
    26    24    25    1
