@<TRIPOS>MOLECULE
29303_ChemDiv_3347-7234
 20 22 0 0 0
SMALL
GASTEIGER
Energy = 0

@<TRIPOS>ATOM
      1 C           0.5460   -0.4580    0.0000 C.ar    1  LIG1        0.2744
      2 C           1.5540   -0.4040    0.0000 C.ar    1  LIG1        0.1959
      3 N           1.9080   -1.3250    0.0000 N.ar    1  LIG1       -0.1716
      4 S           1.1330   -1.9710    0.0000 S.2     1  LIG1        0.1206
      5 N           0.3000   -1.4250    0.0000 N.ar    1  LIG1       -0.1526
      6 N           2.2540    0.3080    0.0000 N.pl3   1  LIG1       -0.2838
      7 C           3.2250    0.0420    0.0000 C.3     1  LIG1        0.1244
      8 C           3.9290    0.7500    0.0000 C.3     1  LIG1        0.1636
      9 O           3.6710    1.7170    0.0000 O.3     1  LIG1       -0.3501
     10 C           2.7040    1.9750    0.0000 C.3     1  LIG1        0.1636
     11 C           1.9920    1.2750    0.0000 C.3     1  LIG1        0.1244
     12 O          -0.4420   -0.4580    0.0000 O.3     1  LIG1       -0.3884
     13 C          -0.9500    0.4040    0.0000 C.2     1  LIG1        0.4107
     14 N          -1.9380    0.4040    0.0000 N.am    1  LIG1       -0.2457
     15 C          -2.4460    1.2750    0.0000 C.3     1  LIG1        0.0967
     16 C          -3.4460    1.2750    0.0000 C.3     1  LIG1        0.0217
     17 C          -3.9330    0.4040    0.0000 C.3     1  LIG1        0.0035
     18 C          -3.4460   -0.4630    0.0000 C.3     1  LIG1        0.0217
     19 C          -2.4380   -0.4630    0.0000 C.3     1  LIG1        0.0967
     20 O          -0.4420    1.2750    0.0000 O.2     1  LIG1       -0.2257
@<TRIPOS>BOND
     1     1     2   ar
     2     1     5   ar
     3     1    12    1
     4     2     3   ar
     5     2     6    1
     6     3     4   ar
     7     4     5   ar
     8     6     7    1
     9     6    11    1
    10     7     8    1
    11     8     9    1
    12     9    10    1
    13    10    11    1
    14    12    13    1
    15    13    14   am
    16    13    20    2
    17    14    15    1
    18    14    19    1
    19    15    16    1
    20    16    17    1
    21    17    18    1
    22    18    19    1
