@<TRIPOS>MOLECULE
29305_ChemDiv_8014-2731
 21 23 0 0 0
SMALL
GASTEIGER
Energy = 0

@<TRIPOS>ATOM
      1 C           2.0710    0.5130    0.0000 C.ar    1  LIG1        0.1954
      2 C           1.4830    1.3250    0.0000 C.ar    1  LIG1        0.2665
      3 N           2.0710    2.1330    0.0000 N.ar    1  LIG1       -0.1530
      4 S           3.0210    1.8250    0.0000 S.2     1  LIG1        0.1206
      5 N           3.0210    0.8250    0.0000 N.ar    1  LIG1       -0.1716
      6 O           0.4790    1.3250    0.0000 O.3     1  LIG1       -0.4478
      7 C          -0.0290    0.4630    0.0000 C.3     1  LIG1        0.2914
      8 C          -1.0250    0.4670    0.0000 C.2     1  LIG1        0.2704
      9 N          -1.5290   -0.4000    0.0000 N.am    1  LIG1       -0.2714
     10 C          -2.5290   -0.4000    0.0000 C.3     1  LIG1        0.1256
     11 C          -3.0250   -1.2630    0.0000 C.3     1  LIG1        0.1636
     12 O          -2.5290   -2.1290    0.0000 O.3     1  LIG1       -0.3501
     13 C          -1.5290   -2.1290    0.0000 C.3     1  LIG1        0.1636
     14 C          -1.0250   -1.2630    0.0000 C.3     1  LIG1        0.1256
     15 O          -1.5290    1.3380    0.0000 O.2     1  LIG1       -0.2708
     16 N           1.5670   -0.3500    0.0000 N.pl3   1  LIG1       -0.2838
     17 C           0.5710   -0.3500    0.0000 C.3     1  LIG1        0.1244
     18 C           0.0710   -1.2170    0.0000 C.3     1  LIG1        0.1636
     19 O           0.5710   -2.0830    0.0000 O.3     1  LIG1       -0.3501
     20 C           1.5670   -2.0830    0.0000 C.3     1  LIG1        0.1636
     21 C           2.0710   -1.2170    0.0000 C.3     1  LIG1        0.1244
@<TRIPOS>BOND
     1     1     2   ar
     2     1     5   ar
     3     1    16    1
     4     2     3   ar
     5     2     6    1
     6     3     4   ar
     7     4     5   ar
     8     6     7    1
     9     7     8    1
    10     8     9   am
    11     8    15    2
    12     9    10    1
    13     9    14    1
    14    10    11    1
    15    11    12    1
    16    12    13    1
    17    13    14    1
    18    16    17    1
    19    16    21    1
    20    17    18    1
    21    18    19    1
    22    19    20    1
    23    20    21    1
