@<TRIPOS>MOLECULE
29308_ChemDiv_4192-0361
 19 21 0 0 0
SMALL
GASTEIGER
Energy = 0

@<TRIPOS>ATOM
      1 C          -1.7380    0.9920    0.0000 C.ar    1  LIG1        0.0067
      2 C          -0.8790    0.4880    0.0000 C.3     1  LIG1        0.1996
      3 O          -0.0080    1.0080    0.0000 O.3     1  LIG1       -0.3452
      4 C          -0.0080    2.0040    0.0000 C.3     1  LIG1        0.1474
      5 C          -0.8830    2.5000    0.0000 C.3     1  LIG1        0.0582
      6 C          -1.7380    1.9880    0.0000 C.ar    1  LIG1       -0.0212
      7 C          -2.6170    2.4920    0.0000 C.ar    1  LIG1       -0.0044
      8 C          -3.4670    1.9880    0.0000 C.ar    1  LIG1       -0.0003
      9 C          -3.4580    0.9790    0.0000 C.ar    1  LIG1       -0.0003
     10 C          -2.6040    0.4880    0.0000 C.ar    1  LIG1       -0.0020
     11 C          -0.8790   -0.4960    0.0000 C.3     1  LIG1        0.2355
     12 N          -0.0080   -1.0000    0.0000 N.4     1  LIG1        0.4542
     13 C           0.8710   -0.4960    0.0000 C.3     1  LIG1        0.2285
     14 C           1.7380   -1.0000    0.0000 C.ar    1  LIG1        0.0402
     15 C           2.5920   -0.4880    0.0000 C.ar    1  LIG1        0.0016
     16 C           3.4630   -0.9830    0.0000 C.ar    1  LIG1       -0.0001
     17 C           3.4630   -1.9790    0.0000 C.ar    1  LIG1       -0.0000
     18 C           2.5960   -2.4960    0.0000 C.ar    1  LIG1       -0.0001
     19 C           1.7380   -1.9960    0.0000 C.ar    1  LIG1        0.0016
@<TRIPOS>BOND
     1     1     2    1
     2     1     6   ar
     3     1    10   ar
     4     2     3    1
     5     2    11    1
     6     3     4    1
     7     4     5    1
     8     5     6    1
     9     6     7   ar
    10     7     8   ar
    11     8     9   ar
    12     9    10   ar
    13    11    12    1
    14    12    13    1
    15    13    14    1
    16    14    15   ar
    17    14    19   ar
    18    15    16   ar
    19    16    17   ar
    20    17    18   ar
    21    18    19   ar
