@<TRIPOS>MOLECULE
29301_ChemDiv_K784-7034
 28 30 0 0 0
SMALL
GASTEIGER
Energy = 0

@<TRIPOS>ATOM
      1 N           1.2920   -1.7630    0.0000 N.am    1  LIG1       -0.2682
      2 C           2.1630   -1.2630    0.0000 C.2     1  LIG1        0.2465
      3 C           2.1630   -0.2670    0.0000 C.3     1  LIG1        0.1794
      4 N           1.2920    0.2500    0.0000 N.am    1  LIG1       -0.2693
      5 C           0.4290   -0.2670    0.0000 C.2     1  LIG1        0.2484
      6 C           0.4290   -1.2630    0.0000 C.3     1  LIG1        0.1750
      7 C          -0.4330   -1.7630    0.0000 C.ar    1  LIG1        0.0047
      8 C          -0.4330   -2.7580    0.0000 C.ar    1  LIG1        0.0009
      9 C          -1.2960   -3.2750    0.0000 C.ar    1  LIG1        0.0366
     10 C          -2.1710   -2.7710    0.0000 C.ar    1  LIG1        0.1387
     11 C          -2.1710   -1.7630    0.0000 C.ar    1  LIG1        0.0366
     12 C          -1.3000   -1.2630    0.0000 C.ar    1  LIG1        0.0009
     13 O          -3.0330   -3.2710    0.0000 O.3     1  LIG1       -0.4714
     14 C          -3.0330   -4.2710    0.0000 C.3     1  LIG1        0.2525
     15 O          -0.4330    0.2380    0.0000 O.2     1  LIG1       -0.2727
     16 C           1.2920    1.2460    0.0000 C.3     1  LIG1        0.0986
     17 C           2.1630    1.7460    0.0000 C.3     1  LIG1        0.0478
     18 C           2.1630    2.7460    0.0000 C.ar    1  LIG1       -0.0205
     19 C           1.3000    3.2420    0.0000 C.ar    1  LIG1       -0.0042
     20 C           1.2920    4.2250    0.0000 C.ar    1  LIG1       -0.0003
     21 C           2.1630    4.7380    0.0000 C.ar    1  LIG1       -0.0000
     22 C           3.0290    4.2380    0.0000 C.ar    1  LIG1       -0.0003
     23 C           3.0290    3.2420    0.0000 C.ar    1  LIG1       -0.0042
     24 O           3.0290   -1.7630    0.0000 O.2     1  LIG1       -0.2730
     25 C           1.2920   -2.7540    0.0000 C.3     1  LIG1        0.0942
     26 C           2.1540   -3.2460    0.0000 C.3     1  LIG1        0.0215
     27 C           2.1540   -4.2420    0.0000 C.3     1  LIG1        0.0018
     28 C           3.0170   -4.7380    0.0000 C.3     1  LIG1        0.0001
@<TRIPOS>BOND
     1     1     2   am
     2     1     6    1
     3     1    25    1
     4     2     3    1
     5     2    24    2
     6     3     4    1
     7     4     5   am
     8     4    16    1
     9     5     6    1
    10     5    15    2
    11     6     7    1
    12     7     8   ar
    13     7    12   ar
    14     8     9   ar
    15     9    10   ar
    16    10    11   ar
    17    10    13    1
    18    11    12   ar
    19    13    14    1
    20    16    17    1
    21    17    18    1
    22    18    19   ar
    23    18    23   ar
    24    19    20   ar
    25    20    21   ar
    26    21    22   ar
    27    22    23   ar
    28    25    26    1
    29    26    27    1
    30    27    28    1
