@<TRIPOS>MOLECULE
29306_ChemDiv_4146-0648
 27 29 0 0 0
SMALL
GASTEIGER
Energy = 0

@<TRIPOS>ATOM
      1 C          -0.8960   -0.4960    0.0000 C.2     1  LIG1        0.2650
      2 C          -0.0380   -0.9960    0.0000 C.ar    1  LIG1        0.0583
      3 C           0.8130   -0.4960    0.0000 C.ar    1  LIG1        0.0446
      4 C           1.7420   -0.9960    0.0000 C.ar    1  LIG1        0.1725
      5 C           1.7420   -1.9960    0.0000 C.ar    1  LIG1        0.1722
      6 C           0.8130   -2.4920    0.0000 C.ar    1  LIG1        0.0402
      7 C          -0.0380   -1.9960    0.0000 C.ar    1  LIG1        0.0079
      8 O           2.5960   -2.4920    0.0000 O.3     1  LIG1       -0.4724
      9 C           3.4540   -1.9960    0.0000 C.3     1  LIG1        0.2056
     10 C           4.3080   -2.4920    0.0000 C.3     1  LIG1        0.0473
     11 C           5.2330   -1.9960    0.0000 C.3     1  LIG1        0.0038
     12 C           5.2330   -0.9960    0.0000 C.3     1  LIG1        0.0001
     13 O           2.5960   -0.4960    0.0000 O.3     1  LIG1       -0.4684
     14 C           3.4540   -0.9960    0.0000 C.3     1  LIG1        0.2526
     15 N          -1.8210   -0.9960    0.0000 N.am    1  LIG1       -0.1987
     16 C          -2.6790   -0.4960    0.0000 C.3     1  LIG1        0.1494
     17 C          -2.6790    0.5000    0.0000 C.3     1  LIG1        0.1587
     18 C          -3.5380    0.9960    0.0000 C.ar    1  LIG1        0.0024
     19 C          -3.5380    1.9920    0.0000 C.ar    1  LIG1       -0.0213
     20 C          -2.6790    2.4960    0.0000 C.3     1  LIG1        0.0582
     21 C          -1.8210    1.9920    0.0000 C.3     1  LIG1        0.1472
     22 O          -1.8210    0.9960    0.0000 O.3     1  LIG1       -0.3497
     23 C          -4.3880    2.4960    0.0000 C.ar    1  LIG1       -0.0044
     24 C          -5.2380    1.9920    0.0000 C.ar    1  LIG1       -0.0003
     25 C          -5.2380    0.9960    0.0000 C.ar    1  LIG1       -0.0003
     26 C          -4.3880    0.5000    0.0000 C.ar    1  LIG1       -0.0022
     27 O          -0.8960    0.5000    0.0000 O.2     1  LIG1       -0.2684
@<TRIPOS>BOND
     1     1     2    1
     2     1    15   am
     3     1    27    2
     4     2     3   ar
     5     2     7   ar
     6     3     4   ar
     7     4     5   ar
     8     4    13    1
     9     5     6   ar
    10     5     8    1
    11     6     7   ar
    12     8     9    1
    13     9    10    1
    14    10    11    1
    15    11    12    1
    16    13    14    1
    17    15    16    1
    18    16    17    1
    19    17    18    1
    20    17    22    1
    21    18    19   ar
    22    18    26   ar
    23    19    20    1
    24    19    23   ar
    25    20    21    1
    26    21    22    1
    27    23    24   ar
    28    24    25   ar
    29    25    26   ar
