@<TRIPOS>MOLECULE
29304_ChemDiv_4146-0647
 26 28 0 0 0
SMALL
GASTEIGER
Energy = 0

@<TRIPOS>ATOM
      1 C          -0.8880   -0.5290    0.0000 C.2     1  LIG1        0.2650
      2 C           0.0330   -1.0250    0.0000 C.ar    1  LIG1        0.0583
      3 C           0.8750   -0.5290    0.0000 C.ar    1  LIG1        0.0446
      4 C           1.7290   -1.0250    0.0000 C.ar    1  LIG1        0.1725
      5 C           1.7290   -2.0170    0.0000 C.ar    1  LIG1        0.1722
      6 C           0.8750   -2.5080    0.0000 C.ar    1  LIG1        0.0402
      7 C           0.0330   -2.0170    0.0000 C.ar    1  LIG1        0.0079
      8 O           2.5790   -2.5080    0.0000 O.3     1  LIG1       -0.4724
      9 C           3.4960   -2.0170    0.0000 C.3     1  LIG1        0.2056
     10 C           4.3500   -2.5080    0.0000 C.3     1  LIG1        0.0473
     11 C           5.1920   -2.0170    0.0000 C.3     1  LIG1        0.0040
     12 O           2.5790   -0.5290    0.0000 O.3     1  LIG1       -0.4684
     13 C           3.4960   -1.0250    0.0000 C.3     1  LIG1        0.2526
     14 N          -1.7380   -1.0250    0.0000 N.am    1  LIG1       -0.1987
     15 C          -2.5880   -0.5290    0.0000 C.3     1  LIG1        0.1494
     16 C          -2.5880    0.5330    0.0000 C.3     1  LIG1        0.1587
     17 C          -3.5080    1.0210    0.0000 C.ar    1  LIG1        0.0024
     18 C          -3.5080    2.0130    0.0000 C.ar    1  LIG1       -0.0213
     19 C          -2.5880    2.5130    0.0000 C.3     1  LIG1        0.0582
     20 C          -1.7380    2.0130    0.0000 C.3     1  LIG1        0.1472
     21 O          -1.7380    1.0210    0.0000 O.3     1  LIG1       -0.3497
     22 C          -4.3540    2.5130    0.0000 C.ar    1  LIG1       -0.0044
     23 C          -5.1960    2.0130    0.0000 C.ar    1  LIG1       -0.0003
     24 C          -5.1960    1.0210    0.0000 C.ar    1  LIG1       -0.0003
     25 C          -4.3540    0.5330    0.0000 C.ar    1  LIG1       -0.0022
     26 O          -0.8880    0.5330    0.0000 O.2     1  LIG1       -0.2684
@<TRIPOS>BOND
     1     1     2    1
     2     1    14   am
     3     1    26    2
     4     2     3   ar
     5     2     7   ar
     6     3     4   ar
     7     4     5   ar
     8     4    12    1
     9     5     6   ar
    10     5     8    1
    11     6     7   ar
    12     8     9    1
    13     9    10    1
    14    10    11    1
    15    12    13    1
    16    14    15    1
    17    15    16    1
    18    16    17    1
    19    16    21    1
    20    17    18   ar
    21    17    25   ar
    22    18    19    1
    23    18    22   ar
    24    19    20    1
    25    20    21    1
    26    22    23   ar
    27    23    24   ar
    28    24    25   ar
