@<TRIPOS>MOLECULE
29302_ChemDiv_3379-0448
 24 26 0 0 0
SMALL
GASTEIGER
Energy = 0

@<TRIPOS>ATOM
      1 C          -0.4170   -0.5130    0.0000 C.2     1  LIG1        0.2649
      2 N          -1.2920   -1.0040    0.0000 N.am    1  LIG1       -0.1987
      3 C          -2.1580   -0.5170    0.0000 C.3     1  LIG1        0.1494
      4 C          -2.1580    0.4880    0.0000 C.3     1  LIG1        0.1587
      5 C          -3.0130    0.9880    0.0000 C.ar    1  LIG1        0.0024
      6 C          -3.0290    1.9920    0.0000 C.ar    1  LIG1       -0.0213
      7 C          -2.1630    2.5040    0.0000 C.3     1  LIG1        0.0582
      8 C          -1.2920    2.0040    0.0000 C.3     1  LIG1        0.1472
      9 O          -1.2790    1.0000    0.0000 O.3     1  LIG1       -0.3497
     10 C          -3.9040    2.4880    0.0000 C.ar    1  LIG1       -0.0044
     11 C          -4.7710    1.9790    0.0000 C.ar    1  LIG1       -0.0003
     12 C          -4.7710    0.9880    0.0000 C.ar    1  LIG1       -0.0003
     13 C          -3.9040    0.4880    0.0000 C.ar    1  LIG1       -0.0022
     14 C           0.4500   -1.0040    0.0000 C.ar    1  LIG1        0.0550
     15 C           0.4500   -2.0040    0.0000 C.ar    1  LIG1        0.0042
     16 C           1.3040   -2.5000    0.0000 C.ar    1  LIG1       -0.0041
     17 C           2.1710   -1.9880    0.0000 C.ar    1  LIG1       -0.0222
     18 C           2.1540   -0.9960    0.0000 C.ar    1  LIG1       -0.0041
     19 C           1.3000   -0.5130    0.0000 C.ar    1  LIG1        0.0042
     20 C           3.0330   -2.5000    0.0000 C.3     1  LIG1        0.0263
     21 C           3.9080   -1.9880    0.0000 C.3     1  LIG1        0.0044
     22 C           3.8960   -0.9960    0.0000 C.3     1  LIG1        0.0003
     23 C           4.7670   -2.4920    0.0000 C.3     1  LIG1        0.0003
     24 O          -0.4170    0.4880    0.0000 O.2     1  LIG1       -0.2684
@<TRIPOS>BOND
     1     1     2   am
     2     1    14    1
     3     1    24    2
     4     2     3    1
     5     3     4    1
     6     4     5    1
     7     4     9    1
     8     5     6   ar
     9     5    13   ar
    10     6     7    1
    11     6    10   ar
    12     7     8    1
    13     8     9    1
    14    10    11   ar
    15    11    12   ar
    16    12    13   ar
    17    14    15   ar
    18    14    19   ar
    19    15    16   ar
    20    16    17   ar
    21    17    18   ar
    22    17    20    1
    23    18    19   ar
    24    20    21    1
    25    21    22    1
    26    21    23    1
