@<TRIPOS>MOLECULE
29307_ChemDiv_3347-7292
 13 15 0 0 0
SMALL
GASTEIGER
Energy = 0

@<TRIPOS>ATOM
      1 C           0.3380    0.0000    0.0000 C.ar    1  LIG1        0.1606
      2 N          -0.5170    0.4920    0.0000 N.ar    1  LIG1       -0.2690
      3 C          -0.5130    1.4880    0.0000 C.ar    1  LIG1        0.1805
      4 N           0.3540    1.9880    0.0000 N.ar    1  LIG1       -0.2199
      5 C           1.2040    1.4880    0.0000 C.ar    1  LIG1        0.1106
      6 C           1.2040    0.4920    0.0000 C.ar    1  LIG1        0.0876
      7 S           1.9580   -0.1830    0.0000 S.2     1  LIG1       -0.0211
      8 C           1.5460   -1.1080    0.0000 C.ar    1  LIG1        0.3121
      9 N           0.5330   -0.9880    0.0000 N.ar    1  LIG1       -0.1838
     10 O           2.0330   -1.9830    0.0000 O.2     1  LIG1       -0.2576
     11 S          -1.4710    1.8080    0.0000 S.2     1  LIG1       -0.0479
     12 C          -2.0380    1.0170    0.0000 C.ar    1  LIG1        0.0574
     13 C          -1.4710    0.1880    0.0000 C.ar    1  LIG1        0.0904
@<TRIPOS>BOND
     1     1     2   ar
     2     1     6   ar
     3     1     9   ar
     4     2     3   ar
     5     2    13   ar
     6     3     4   ar
     7     3    11   ar
     8     4     5   ar
     9     5     6   ar
    10     6     7   ar
    11     7     8   ar
    12     8     9   ar
    13     8    10    2
    14    11    12   ar
    15    12    13   ar
