@<TRIPOS>MOLECULE
29315_ChemDiv_6049-1405
 32 34 0 0 0
SMALL
GASTEIGER
Energy = 0

@<TRIPOS>ATOM
      1 C          -1.7290   -0.6580    0.0000 C.ar    1  LIG1        0.0938
      2 C          -0.7330   -0.8080    0.0000 C.ar    1  LIG1        0.1092
      3 S          -0.2130    0.0630    0.0000 S.2     1  LIG1       -0.0641
      4 C          -0.9460    0.7750    0.0000 C.ar    1  LIG1        0.1025
      5 C          -1.8460    0.3170    0.0000 C.ar    1  LIG1       -0.0015
      6 C          -2.6710    0.8830    0.0000 C.3     1  LIG1        0.0320
      7 C          -0.7750    1.7710    0.0000 C.2     1  LIG1        0.3469
      8 O          -1.5330    2.3630    0.0000 O.3     1  LIG1       -0.4489
      9 C          -1.4040    3.3580    0.0000 C.3     1  LIG1        0.1694
     10 C          -0.5130    3.7290    0.0000 C.3     1  LIG1        0.0473
     11 C          -2.1880    3.9920    0.0000 C.3     1  LIG1        0.0473
     12 O           0.1540    2.1790    0.0000 O.2     1  LIG1       -0.2443
     13 N          -0.2630   -1.6790    0.0000 N.am    1  LIG1       -0.1660
     14 C           0.7460   -1.6790    0.0000 C.2     1  LIG1        0.3043
     15 C           1.2290   -0.8080    0.0000 C.ar    1  LIG1        0.2037
     16 O           2.2380   -0.7790    0.0000 O.2     1  LIG1       -0.4163
     17 C           2.7130    0.1000    0.0000 C.ar    1  LIG1        0.3458
     18 C           2.1460    0.9630    0.0000 C.ar    1  LIG1        0.0761
     19 C           1.1750    0.9080    0.0000 C.ar    1  LIG1        0.0094
     20 C           0.7080    0.0210    0.0000 C.ar    1  LIG1        0.0426
     21 C           0.6420    1.7580    0.0000 C.ar    1  LIG1        0.0003
     22 C           1.0710    2.6500    0.0000 C.ar    1  LIG1        0.0000
     23 C           2.0920    2.6920    0.0000 C.ar    1  LIG1        0.0002
     24 C           2.6080    1.8500    0.0000 C.ar    1  LIG1        0.0065
     25 O           3.7170    0.1670    0.0000 O.2     1  LIG1       -0.2445
     26 O           1.2670   -2.5420    0.0000 O.2     1  LIG1       -0.2646
     27 C          -2.4380   -1.3670    0.0000 C.2     1  LIG1        0.3426
     28 O          -2.1080   -2.2960    0.0000 O.3     1  LIG1       -0.4492
     29 C          -2.7210   -3.0790    0.0000 C.3     1  LIG1        0.1694
     30 C          -2.3710   -3.9880    0.0000 C.3     1  LIG1        0.0473
     31 C          -3.7210   -2.9420    0.0000 C.3     1  LIG1        0.0473
     32 O          -3.4330   -1.1040    0.0000 O.2     1  LIG1       -0.2448
@<TRIPOS>BOND
     1     1     2   ar
     2     1     5   ar
     3     1    27    1
     4     2     3   ar
     5     2    13    1
     6     3     4   ar
     7     4     5   ar
     8     4     7    1
     9     5     6    1
    10     7     8    1
    11     7    12    2
    12     8     9    1
    13     9    10    1
    14     9    11    1
    15    13    14   am
    16    14    15    1
    17    14    26    2
    18    15    16   ar
    19    15    20   ar
    20    16    17   ar
    21    17    18   ar
    22    17    25    2
    23    18    19   ar
    24    18    24   ar
    25    19    20   ar
    26    19    21   ar
    27    21    22   ar
    28    22    23   ar
    29    23    24   ar
    30    27    28    1
    31    27    32    2
    32    28    29    1
    33    29    30    1
    34    29    31    1
