@<TRIPOS>MOLECULE
29319_ChemDiv_6049-1557
 30 33 0 0 0
SMALL
GASTEIGER
Energy = 0

@<TRIPOS>ATOM
      1 C          -0.8330   -0.6420    0.0000 C.ar    1  LIG1        0.1087
      2 C          -1.8040   -0.5500    0.0000 C.ar    1  LIG1        0.0933
      3 C          -2.0330    0.3960    0.0000 C.ar    1  LIG1       -0.0121
      4 C          -1.2130    0.9500    0.0000 C.ar    1  LIG1        0.0048
      5 S          -0.4460    0.2830    0.0000 S.2     1  LIG1       -0.0749
      6 C          -0.9670    1.9080    0.0000 C.3     1  LIG1        0.0327
      7 C          -1.5210    2.7830    0.0000 C.3     1  LIG1        0.0052
      8 C          -2.5000    3.0290    0.0000 C.3     1  LIG1        0.0004
      9 C          -3.3830    2.4920    0.0000 C.3     1  LIG1        0.0004
     10 C          -3.6000    1.5080    0.0000 C.3     1  LIG1        0.0047
     11 C          -3.0460    0.6540    0.0000 C.3     1  LIG1        0.0268
     12 C          -2.4830   -1.3080    0.0000 C.2     1  LIG1        0.3427
     13 O          -3.4960   -1.1380    0.0000 O.2     1  LIG1       -0.2448
     14 O          -2.0880   -2.1790    0.0000 O.3     1  LIG1       -0.4454
     15 C          -2.6420   -3.0250    0.0000 C.3     1  LIG1        0.2089
     16 C          -3.6290   -2.9750    0.0000 C.3     1  LIG1        0.0513
     17 N          -0.3210   -1.5250    0.0000 N.am    1  LIG1       -0.1660
     18 C           0.6830   -1.5250    0.0000 C.2     1  LIG1        0.3043
     19 C           1.1630   -0.6580    0.0000 C.ar    1  LIG1        0.2037
     20 O           2.1630   -0.6330    0.0000 O.2     1  LIG1       -0.4163
     21 C           2.6290    0.2380    0.0000 C.ar    1  LIG1        0.3458
     22 C           2.0710    1.0920    0.0000 C.ar    1  LIG1        0.0761
     23 C           1.1080    1.0420    0.0000 C.ar    1  LIG1        0.0094
     24 C           0.6460    0.1630    0.0000 C.ar    1  LIG1        0.0426
     25 C           0.5790    1.8830    0.0000 C.ar    1  LIG1        0.0003
     26 C           1.0080    2.7670    0.0000 C.ar    1  LIG1        0.0000
     27 C           2.0170    2.8040    0.0000 C.ar    1  LIG1        0.0002
     28 C           2.5210    1.9750    0.0000 C.ar    1  LIG1        0.0065
     29 O           3.6250    0.3080    0.0000 O.2     1  LIG1       -0.2445
     30 O           1.2040   -2.3830    0.0000 O.2     1  LIG1       -0.2646
@<TRIPOS>BOND
     1     1     2   ar
     2     1     5   ar
     3     1    17    1
     4     2     3   ar
     5     2    12    1
     6     3     4   ar
     7     3    11    1
     8     4     5   ar
     9     4     6    1
    10     6     7    1
    11     7     8    1
    12     8     9    1
    13     9    10    1
    14    10    11    1
    15    12    13    2
    16    12    14    1
    17    14    15    1
    18    15    16    1
    19    17    18   am
    20    18    19    1
    21    18    30    2
    22    19    20   ar
    23    19    24   ar
    24    20    21   ar
    25    21    22   ar
    26    21    29    2
    27    22    23   ar
    28    22    28   ar
    29    23    24   ar
    30    23    25   ar
    31    25    26   ar
    32    26    27   ar
    33    27    28   ar
