@<TRIPOS>MOLECULE
29313_ChemDiv_6049-1351
 28 31 0 0 0
SMALL
GASTEIGER
Energy = 0

@<TRIPOS>ATOM
      1 C          -0.9250   -1.4380    0.0000 C.ar    1  LIG1        0.1070
      2 C          -1.8710   -1.3540    0.0000 C.ar    1  LIG1        0.0743
      3 C          -2.0960   -0.3580    0.0000 C.ar    1  LIG1       -0.0139
      4 C          -1.2710    0.1500    0.0000 C.ar    1  LIG1        0.0047
      5 S          -0.4960   -0.5290    0.0000 S.2     1  LIG1       -0.0750
      6 C          -1.2710    1.1580    0.0000 C.3     1  LIG1        0.0327
      7 C          -2.1250    1.6540    0.0000 C.3     1  LIG1        0.0052
      8 C          -3.0080    1.1330    0.0000 C.3     1  LIG1        0.0050
      9 C          -3.0080    0.1380    0.0000 C.3     1  LIG1        0.0268
     10 C          -2.1250    2.6630    0.0000 C.3     1  LIG1        0.0004
     11 C          -2.9630    3.1920    0.0000 C.3     1  LIG1        0.0000
     12 C          -2.5380   -2.1460    0.0000 C.2     1  LIG1        0.2856
     13 O          -2.1710   -3.0670    0.0000 O.2     1  LIG1       -0.2666
     14 N          -3.5330   -1.9750    0.0000 N.am    1  LIG1       -0.0837
     15 N          -0.4250   -2.3290    0.0000 N.am    1  LIG1       -0.1661
     16 C           0.5790   -2.3290    0.0000 C.2     1  LIG1        0.3043
     17 C           1.0580   -1.4630    0.0000 C.ar    1  LIG1        0.2037
     18 O           2.0580   -1.4330    0.0000 O.2     1  LIG1       -0.4163
     19 C           2.5250   -0.5580    0.0000 C.ar    1  LIG1        0.3458
     20 C           1.9670    0.2920    0.0000 C.ar    1  LIG1        0.0761
     21 C           1.0040    0.2420    0.0000 C.ar    1  LIG1        0.0094
     22 C           0.5420   -0.6420    0.0000 C.ar    1  LIG1        0.0426
     23 C           0.4750    1.0880    0.0000 C.ar    1  LIG1        0.0003
     24 C           0.9040    1.9710    0.0000 C.ar    1  LIG1        0.0000
     25 C           1.9170    2.0080    0.0000 C.ar    1  LIG1        0.0002
     26 C           2.4210    1.1750    0.0000 C.ar    1  LIG1        0.0065
     27 O           3.5290   -0.5000    0.0000 O.2     1  LIG1       -0.2445
     28 O           1.1000   -3.1880    0.0000 O.2     1  LIG1       -0.2646
@<TRIPOS>BOND
     1     1     2   ar
     2     1     5   ar
     3     1    15    1
     4     2     3   ar
     5     2    12    1
     6     3     4   ar
     7     3     9    1
     8     4     5   ar
     9     4     6    1
    10     6     7    1
    11     7     8    1
    12     7    10    1
    13     8     9    1
    14    10    11    1
    15    12    13    2
    16    12    14   am
    17    15    16   am
    18    16    17    1
    19    16    28    2
    20    17    18   ar
    21    17    22   ar
    22    18    19   ar
    23    19    20   ar
    24    19    27    2
    25    20    21   ar
    26    20    26   ar
    27    21    22   ar
    28    21    23   ar
    29    23    24   ar
    30    24    25   ar
    31    25    26   ar
