@<TRIPOS>MOLECULE
29310_ChemDiv_4192-0478
 24 26 0 0 0
SMALL
GASTEIGER
Energy = 0

@<TRIPOS>ATOM
      1 C           0.0040   -0.5040    0.0000 C.2     1  LIG1        0.2650
      2 C           0.8580   -0.9880    0.0000 C.ar    1  LIG1        0.0583
      3 C           1.7130   -0.4880    0.0000 C.ar    1  LIG1        0.0446
      4 C           2.5920   -0.9750    0.0000 C.ar    1  LIG1        0.1725
      5 C           2.6000   -1.9880    0.0000 C.ar    1  LIG1        0.1724
      6 C           1.7250   -2.4920    0.0000 C.ar    1  LIG1        0.0402
      7 C           0.8580   -2.0000    0.0000 C.ar    1  LIG1        0.0079
      8 O           3.4670   -2.4880    0.0000 O.3     1  LIG1       -0.4684
      9 C           4.3250   -1.9880    0.0000 C.3     1  LIG1        0.2526
     10 O           3.4540   -0.4710    0.0000 O.3     1  LIG1       -0.4684
     11 C           3.4540    0.5170    0.0000 C.3     1  LIG1        0.2526
     12 N          -0.8750   -1.0040    0.0000 N.am    1  LIG1       -0.1987
     13 C          -1.7420   -0.5040    0.0000 C.3     1  LIG1        0.1494
     14 C          -1.7420    0.4880    0.0000 C.3     1  LIG1        0.1587
     15 C          -2.5920    0.9790    0.0000 C.ar    1  LIG1        0.0024
     16 C          -2.5920    1.9920    0.0000 C.ar    1  LIG1       -0.0213
     17 C          -1.7420    2.4960    0.0000 C.3     1  LIG1        0.0582
     18 C          -0.8630    2.0040    0.0000 C.3     1  LIG1        0.1472
     19 O          -0.8630    0.9920    0.0000 O.3     1  LIG1       -0.3497
     20 C          -3.4580    2.4920    0.0000 C.ar    1  LIG1       -0.0044
     21 C          -4.3130    2.0040    0.0000 C.ar    1  LIG1       -0.0003
     22 C          -4.3290    0.9920    0.0000 C.ar    1  LIG1       -0.0003
     23 C          -3.4630    0.4920    0.0000 C.ar    1  LIG1       -0.0022
     24 O          -0.0130    0.4920    0.0000 O.2     1  LIG1       -0.2684
@<TRIPOS>BOND
     1     1     2    1
     2     1    12   am
     3     1    24    2
     4     2     3   ar
     5     2     7   ar
     6     3     4   ar
     7     4     5   ar
     8     4    10    1
     9     5     6   ar
    10     5     8    1
    11     6     7   ar
    12     8     9    1
    13    10    11    1
    14    12    13    1
    15    13    14    1
    16    14    15    1
    17    14    19    1
    18    15    16   ar
    19    15    23   ar
    20    16    17    1
    21    16    20   ar
    22    17    18    1
    23    18    19    1
    24    20    21   ar
    25    21    22   ar
    26    22    23   ar
