@<TRIPOS>MOLECULE
29317_ChemDiv_6049-1453
 30 33 0 0 0
SMALL
GASTEIGER
Energy = 0

@<TRIPOS>ATOM
      1 C          -1.0750   -0.6130    0.0000 C.ar    1  LIG1        0.0933
      2 C          -0.0830   -0.7040    0.0000 C.ar    1  LIG1        0.1087
      3 S           0.3420    0.1920    0.0000 S.2     1  LIG1       -0.0749
      4 C          -0.4290    0.8830    0.0000 C.ar    1  LIG1        0.0048
      5 C          -1.2960    0.3830    0.0000 C.ar    1  LIG1       -0.0121
      6 C          -2.2290    0.7420    0.0000 C.3     1  LIG1        0.0268
      7 C          -2.5380    1.7210    0.0000 C.3     1  LIG1        0.0047
      8 C          -1.9670    2.5500    0.0000 C.3     1  LIG1        0.0007
      9 C          -0.9750    2.6380    0.0000 C.3     1  LIG1        0.0052
     10 C          -0.2750    1.8920    0.0000 C.3     1  LIG1        0.0327
     11 N           0.4460   -1.5750    0.0000 N.am    1  LIG1       -0.1660
     12 C           1.4460   -1.5750    0.0000 C.2     1  LIG1        0.3043
     13 C           1.9210   -0.7080    0.0000 C.ar    1  LIG1        0.2037
     14 O           2.9210   -0.6830    0.0000 O.2     1  LIG1       -0.4163
     15 C           3.3830    0.1880    0.0000 C.ar    1  LIG1        0.3458
     16 C           2.8290    1.0380    0.0000 C.ar    1  LIG1        0.0761
     17 C           1.8710    0.9830    0.0000 C.ar    1  LIG1        0.0094
     18 C           1.4080    0.1130    0.0000 C.ar    1  LIG1        0.0426
     19 C           1.3420    1.8290    0.0000 C.ar    1  LIG1        0.0003
     20 C           1.7670    2.7080    0.0000 C.ar    1  LIG1        0.0000
     21 C           2.7790    2.7460    0.0000 C.ar    1  LIG1        0.0002
     22 C           3.2790    1.9170    0.0000 C.ar    1  LIG1        0.0065
     23 O           4.3880    0.2500    0.0000 O.2     1  LIG1       -0.2445
     24 O           1.9630   -2.4330    0.0000 O.2     1  LIG1       -0.2646
     25 C          -1.7330   -1.3540    0.0000 C.2     1  LIG1        0.3426
     26 O          -2.6750   -1.0830    0.0000 O.3     1  LIG1       -0.4492
     27 C          -3.4290   -1.7710    0.0000 C.3     1  LIG1        0.1694
     28 C          -4.3920   -1.4920    0.0000 C.3     1  LIG1        0.0473
     29 C          -3.2130   -2.7420    0.0000 C.3     1  LIG1        0.0473
     30 O          -1.4170   -2.3290    0.0000 O.2     1  LIG1       -0.2448
@<TRIPOS>BOND
     1     1     2   ar
     2     1     5   ar
     3     1    25    1
     4     2     3   ar
     5     2    11    1
     6     3     4   ar
     7     4     5   ar
     8     4    10    1
     9     5     6    1
    10     6     7    1
    11     7     8    1
    12     8     9    1
    13     9    10    1
    14    11    12   am
    15    12    13    1
    16    12    24    2
    17    13    14   ar
    18    13    18   ar
    19    14    15   ar
    20    15    16   ar
    21    15    23    2
    22    16    17   ar
    23    16    22   ar
    24    17    18   ar
    25    17    19   ar
    26    19    20   ar
    27    20    21   ar
    28    21    22   ar
    29    25    26    1
    30    25    30    2
    31    26    27    1
    32    27    28    1
    33    27    29    1
