@<TRIPOS>MOLECULE
29312_ChemDiv_4431-0033
 21 23 0 0 0
SMALL
GASTEIGER
Energy = 0

@<TRIPOS>ATOM
      1 C           0.4080   -0.7580    0.0000 C.2     1  LIG1        0.2649
      2 N           0.4080    0.2580    0.0000 N.am    1  LIG1       -0.1987
      3 C          -0.4380    0.7500    0.0000 C.3     1  LIG1        0.1494
      4 C          -0.4380    1.7460    0.0000 C.3     1  LIG1        0.1587
      5 C          -1.3170    2.2380    0.0000 C.ar    1  LIG1        0.0024
      6 C          -1.3170    3.2500    0.0000 C.ar    1  LIG1       -0.0213
      7 C          -0.4380    3.7500    0.0000 C.3     1  LIG1        0.0582
      8 C           0.4330    3.2330    0.0000 C.3     1  LIG1        0.1472
      9 O           0.4330    2.2630    0.0000 O.3     1  LIG1       -0.3497
     10 C          -2.1580    3.7500    0.0000 C.ar    1  LIG1       -0.0044
     11 C          -3.0290    3.2330    0.0000 C.ar    1  LIG1       -0.0003
     12 C          -3.0290    2.2630    0.0000 C.ar    1  LIG1       -0.0003
     13 C          -2.1580    1.7460    0.0000 C.ar    1  LIG1       -0.0022
     14 C           1.2750   -1.2540    0.0000 C.ar    1  LIG1        0.0555
     15 C           1.2750   -2.2580    0.0000 C.ar    1  LIG1        0.0113
     16 C           2.1540   -2.7580    0.0000 C.ar    1  LIG1        0.0347
     17 BR          2.1540   -3.7460    0.0000 Br      1  LIG1       -0.0490
     18 C           3.0250   -2.2580    0.0000 C.ar    1  LIG1        0.0067
     19 C           3.0250   -1.2540    0.0000 C.ar    1  LIG1        0.0007
     20 C           2.1540   -0.7580    0.0000 C.ar    1  LIG1        0.0046
     21 O          -0.4630   -1.2710    0.0000 O.2     1  LIG1       -0.2684
@<TRIPOS>BOND
     1     1     2   am
     2     1    14    1
     3     1    21    2
     4     2     3    1
     5     3     4    1
     6     4     5    1
     7     4     9    1
     8     5     6   ar
     9     5    13   ar
    10     6     7    1
    11     6    10   ar
    12     7     8    1
    13     8     9    1
    14    10    11   ar
    15    11    12   ar
    16    12    13   ar
    17    14    15   ar
    18    14    20   ar
    19    15    16   ar
    20    16    17    1
    21    16    18   ar
    22    18    19   ar
    23    19    20   ar
