@<TRIPOS>MOLECULE
29321_ChemDiv_6049-1593
 33 35 0 0 0
SMALL
GASTEIGER
Energy = 0

@<TRIPOS>ATOM
      1 C          -1.7330   -0.6630    0.0000 C.ar    1  LIG1        0.0937
      2 C          -0.7420   -0.8080    0.0000 C.ar    1  LIG1        0.1092
      3 S          -0.2170    0.0540    0.0000 S.2     1  LIG1       -0.0660
      4 C          -0.9460    0.7540    0.0000 C.ar    1  LIG1        0.0805
      5 C          -1.8380    0.3040    0.0000 C.ar    1  LIG1       -0.0034
      6 C          -2.6670    0.8670    0.0000 C.3     1  LIG1        0.0320
      7 C          -0.7790    1.7460    0.0000 C.2     1  LIG1        0.2548
      8 N          -1.5290    2.3330    0.0000 N.am    1  LIG1       -0.2757
      9 C          -1.4000    3.3290    0.0000 C.3     1  LIG1        0.0938
     10 C          -2.1830    3.9750    0.0000 C.3     1  LIG1        0.0233
     11 C          -2.4630    1.9750    0.0000 C.3     1  LIG1        0.0938
     12 C          -3.4040    2.5880    0.0000 C.3     1  LIG1        0.0233
     13 O           0.1380    2.1540    0.0000 O.2     1  LIG1       -0.2694
     14 N          -0.2670   -1.6710    0.0000 N.am    1  LIG1       -0.1660
     15 C           0.7420   -1.6710    0.0000 C.2     1  LIG1        0.3043
     16 C           1.2210   -0.8040    0.0000 C.ar    1  LIG1        0.2037
     17 O           2.2250   -0.7750    0.0000 O.2     1  LIG1       -0.4163
     18 C           2.6960    0.1000    0.0000 C.ar    1  LIG1        0.3458
     19 C           2.1380    0.9630    0.0000 C.ar    1  LIG1        0.0761
     20 C           1.1670    0.9080    0.0000 C.ar    1  LIG1        0.0094
     21 C           0.7040    0.0210    0.0000 C.ar    1  LIG1        0.0426
     22 C           0.6380    1.7580    0.0000 C.ar    1  LIG1        0.0003
     23 C           1.0630    2.6460    0.0000 C.ar    1  LIG1        0.0000
     24 C           2.0880    2.6830    0.0000 C.ar    1  LIG1        0.0002
     25 C           2.5920    1.8500    0.0000 C.ar    1  LIG1        0.0065
     26 O           3.7000    0.1670    0.0000 O.2     1  LIG1       -0.2445
     27 O           1.2580   -2.5380    0.0000 O.2     1  LIG1       -0.2646
     28 C          -2.4330   -1.3630    0.0000 C.2     1  LIG1        0.3426
     29 O          -2.1040   -2.2920    0.0000 O.3     1  LIG1       -0.4492
     30 C          -2.7210   -3.0710    0.0000 C.3     1  LIG1        0.1694
     31 C          -2.3670   -3.9710    0.0000 C.3     1  LIG1        0.0473
     32 C          -3.7040   -2.9290    0.0000 C.3     1  LIG1        0.0473
     33 O          -3.4170   -1.1000    0.0000 O.2     1  LIG1       -0.2448
@<TRIPOS>BOND
     1     1     2   ar
     2     1     5   ar
     3     1    28    1
     4     2     3   ar
     5     2    14    1
     6     3     4   ar
     7     4     5   ar
     8     4     7    1
     9     5     6    1
    10     7     8   am
    11     7    13    2
    12     8     9    1
    13     8    11    1
    14     9    10    1
    15    11    12    1
    16    14    15   am
    17    15    16    1
    18    15    27    2
    19    16    17   ar
    20    16    21   ar
    21    17    18   ar
    22    18    19   ar
    23    18    26    2
    24    19    20   ar
    25    19    25   ar
    26    20    21   ar
    27    20    22   ar
    28    22    23   ar
    29    23    24   ar
    30    24    25   ar
    31    28    29    1
    32    28    33    2
    33    29    30    1
    34    30    31    1
    35    30    32    1
