@<TRIPOS>MOLECULE
29325_ChemDiv_C226-1253
 29 33 0 0 0
SMALL
GASTEIGER
Energy = 0

@<TRIPOS>ATOM
      1 C          -0.9670   -2.2830    0.0000 C.ar    1  LIG1        0.1069
      2 C          -1.7670   -2.8540    0.0000 C.ar    1  LIG1        0.0743
      3 C          -1.4790   -3.8080    0.0000 C.ar    1  LIG1       -0.0139
      4 C          -0.4880   -3.8380    0.0000 C.ar    1  LIG1        0.0047
      5 S          -0.1500   -2.8880    0.0000 S.2     1  LIG1       -0.0750
      6 C          -0.0080   -4.7080    0.0000 C.3     1  LIG1        0.0327
      7 C          -0.5420   -5.5670    0.0000 C.3     1  LIG1        0.0055
      8 C          -1.5250   -5.5330    0.0000 C.3     1  LIG1        0.0050
      9 C          -1.9960   -4.6540    0.0000 C.3     1  LIG1        0.0268
     10 C          -2.7040   -2.5130    0.0000 C.2     1  LIG1        0.2856
     11 O          -3.4710   -3.1540    0.0000 O.2     1  LIG1       -0.2666
     12 N          -2.8830   -1.5130    0.0000 N.am    1  LIG1       -0.0837
     13 N          -0.9670   -1.2710    0.0000 N.am    1  LIG1       -0.1673
     14 C          -0.1040   -0.7710    0.0000 C.2     1  LIG1        0.2905
     15 C          -0.1500    1.1040    0.0000 C.ar    1  LIG1        0.1781
     16 N          -0.9040    1.6790    0.0000 N.ar    1  LIG1       -0.0722
     17 O          -0.6040    2.5710    0.0000 O.2     1  LIG1       -0.3533
     18 C           0.3500    2.5710    0.0000 C.ar    1  LIG1        0.1771
     19 C           0.6420    1.6580    0.0000 C.ar    1  LIG1        0.0673
     20 C           0.8790    3.3460    0.0000 C.ar    1  LIG1        0.0404
     21 C           1.8290    3.2790    0.0000 C.ar    1  LIG1        0.0433
     22 C           2.3500    4.0540    0.0000 C.ar    1  LIG1        0.1765
     23 C           1.9540    4.9130    0.0000 C.ar    1  LIG1        0.1764
     24 O           2.6380    5.5670    0.0000 O.3     1  LIG1       -0.4346
     25 C           3.4670    5.1130    0.0000 C.3     1  LIG1        0.4294
     26 O           3.2880    4.1830    0.0000 O.3     1  LIG1       -0.4346
     27 C           1.0000    4.9880    0.0000 C.ar    1  LIG1        0.0403
     28 C           0.4750    4.2170    0.0000 C.ar    1  LIG1        0.0064
     29 O           0.7080   -1.2710    0.0000 O.2     1  LIG1       -0.2662
@<TRIPOS>BOND
     1     1     2   ar
     2     1     5   ar
     3     1    13    1
     4     2     3   ar
     5     2    10    1
     6     3     4   ar
     7     3     9    1
     8     4     5   ar
     9     4     6    1
    10     6     7    1
    11     7     8    1
    12     8     9    1
    13    10    11    2
    14    10    12   am
    15    13    14   am
    16    14    15    1
    17    14    29    2
    18    15    16   ar
    19    15    19   ar
    20    16    17   ar
    21    17    18   ar
    22    18    19   ar
    23    18    20    1
    24    20    21   ar
    25    20    28   ar
    26    21    22   ar
    27    22    23   ar
    28    22    26    1
    29    23    24    1
    30    23    27   ar
    31    24    25    1
    32    25    26    1
    33    27    28   ar
