@<TRIPOS>MOLECULE
29323_ChemDiv_6049-1624
 30 33 0 0 0
SMALL
GASTEIGER
Energy = 0

@<TRIPOS>ATOM
      1 C          -0.9710   -1.6750    0.0000 C.ar    1  LIG1        0.1070
      2 C          -1.9080   -1.6000    0.0000 C.ar    1  LIG1        0.0743
      3 C          -2.1710   -0.6000    0.0000 C.ar    1  LIG1       -0.0139
      4 C          -1.4040   -0.1170    0.0000 C.ar    1  LIG1        0.0047
      5 S          -0.6000   -0.7380    0.0000 S.2     1  LIG1       -0.0750
      6 C          -1.4040    0.8290    0.0000 C.3     1  LIG1        0.0327
      7 C          -2.2330    1.3290    0.0000 C.3     1  LIG1        0.0052
      8 C          -2.1830    2.3790    0.0000 C.3     1  LIG1        0.0003
      9 C          -1.2500    2.3170    0.0000 C.3     1  LIG1        0.0000
     10 C          -3.2290    2.4920    0.0000 C.3     1  LIG1        0.0000
     11 C          -2.0540    3.4290    0.0000 C.3     1  LIG1        0.0000
     12 C          -3.1580    0.7960    0.0000 C.3     1  LIG1        0.0050
     13 C          -3.0630   -0.1920    0.0000 C.3     1  LIG1        0.0268
     14 C          -2.5540   -2.4250    0.0000 C.2     1  LIG1        0.2856
     15 O          -2.2250   -3.3750    0.0000 O.2     1  LIG1       -0.2666
     16 N          -3.5540   -2.2500    0.0000 N.am    1  LIG1       -0.0837
     17 N          -0.4080   -2.5670    0.0000 N.am    1  LIG1       -0.1661
     18 C           0.5960   -2.5670    0.0000 C.2     1  LIG1        0.3043
     19 C           1.0750   -1.6960    0.0000 C.ar    1  LIG1        0.2037
     20 O           2.0790   -1.6710    0.0000 O.2     1  LIG1       -0.4163
     21 C           2.5460   -0.7960    0.0000 C.ar    1  LIG1        0.3458
     22 C           1.9880    0.0580    0.0000 C.ar    1  LIG1        0.0761
     23 C           1.0250    0.0040    0.0000 C.ar    1  LIG1        0.0094
     24 C           0.5580   -0.8790    0.0000 C.ar    1  LIG1        0.0426
     25 C           0.4920    0.8540    0.0000 C.ar    1  LIG1        0.0003
     26 C           0.9210    1.7380    0.0000 C.ar    1  LIG1        0.0000
     27 C           1.9330    1.7750    0.0000 C.ar    1  LIG1        0.0002
     28 C           2.4420    0.9420    0.0000 C.ar    1  LIG1        0.0065
     29 O           3.5500   -0.7330    0.0000 O.2     1  LIG1       -0.2445
     30 O           1.1130   -3.4250    0.0000 O.2     1  LIG1       -0.2646
@<TRIPOS>BOND
     1     1     2   ar
     2     1     5   ar
     3     1    17    1
     4     2     3   ar
     5     2    14    1
     6     3     4   ar
     7     3    13    1
     8     4     5   ar
     9     4     6    1
    10     6     7    1
    11     7     8    1
    12     7    12    1
    13     8     9    1
    14     8    10    1
    15     8    11    1
    16    12    13    1
    17    14    15    2
    18    14    16   am
    19    17    18   am
    20    18    19    1
    21    18    30    2
    22    19    20   ar
    23    19    24   ar
    24    20    21   ar
    25    21    22   ar
    26    21    29    2
    27    22    23   ar
    28    22    28   ar
    29    23    24   ar
    30    23    25   ar
    31    25    26   ar
    32    26    27   ar
    33    27    28   ar
