@<TRIPOS>MOLECULE
29335_ChemDiv_K286-3332
 35 39 0 0 0
SMALL
GASTEIGER
Energy = 0

@<TRIPOS>ATOM
      1 C          -1.4710    0.6290    0.0000 C.ar    1  LIG1        0.1612
      2 C          -1.4710    1.6290    0.0000 C.ar    1  LIG1        0.1219
      3 C          -0.6080    2.1290    0.0000 C.ar    1  LIG1        0.2714
      4 N           0.2540    1.6290    0.0000 N.ar    1  LIG1       -0.2727
      5 C           0.2540    0.6290    0.0000 C.ar    1  LIG1        0.1752
      6 N          -0.6080    0.1290    0.0000 N.ar    1  LIG1       -0.2042
      7 S           1.1330    0.1210    0.0000 S.3     1  LIG1       -0.0719
      8 C           2.0000    0.6290    0.0000 C.3     1  LIG1        0.1263
      9 C           2.8630    0.1290    0.0000 C.3     1  LIG1        0.2469
     10 O           2.9670   -0.8630    0.0000 O.3     1  LIG1       -0.3271
     11 C           3.9380   -1.0670    0.0000 C.3     1  LIG1        0.1769
     12 C           4.4380   -0.2040    0.0000 C.3     1  LIG1        0.1769
     13 O           3.7710    0.5420    0.0000 O.3     1  LIG1       -0.3271
     14 C           1.1330    2.1380    0.0000 C.3     1  LIG1        0.1403
     15 C           1.1290    3.1380    0.0000 C.3     1  LIG1        0.1379
     16 O           1.9330    3.7290    0.0000 O.3     1  LIG1       -0.3543
     17 C           1.6210    4.6710    0.0000 C.3     1  LIG1        0.1422
     18 C           0.6210    4.6710    0.0000 C.3     1  LIG1        0.0346
     19 C           0.3170    3.7210    0.0000 C.3     1  LIG1        0.0341
     20 O          -0.6080    3.1290    0.0000 O.2     1  LIG1       -0.2663
     21 S          -2.4170    1.9380    0.0000 S.2     1  LIG1       -0.0546
     22 C          -3.0040    1.1210    0.0000 C.ar    1  LIG1        0.1324
     23 N          -2.4170    0.3290    0.0000 N.ar    1  LIG1       -0.2803
     24 C          -2.6830   -0.6420    0.0000 C.ar    1  LIG1        0.0663
     25 C          -1.9880   -1.3380    0.0000 C.ar    1  LIG1        0.0178
     26 C          -2.2460   -2.3080    0.0000 C.ar    1  LIG1        0.0079
     27 C          -3.2130   -2.5670    0.0000 C.ar    1  LIG1        0.0757
     28 C          -3.4710   -3.5380    0.0000 C.2     1  LIG1        0.3412
     29 O          -4.4420   -3.7920    0.0000 O.2     1  LIG1       -0.2449
     30 O          -2.7670   -4.2330    0.0000 O.3     1  LIG1       -0.4454
     31 C          -1.8040   -3.9750    0.0000 C.3     1  LIG1        0.2089
     32 C          -1.0920   -4.6710    0.0000 C.3     1  LIG1        0.0513
     33 C          -3.9250   -1.8630    0.0000 C.ar    1  LIG1        0.0079
     34 C          -3.6540   -0.8960    0.0000 C.ar    1  LIG1        0.0178
     35 S          -4.0170    1.1040    0.0000 S.2     1  LIG1       -0.0244
@<TRIPOS>BOND
     1     1     2   ar
     2     1     6   ar
     3     1    23   ar
     4     2     3   ar
     5     2    21   ar
     6     3     4   ar
     7     3    20    2
     8     4     5   ar
     9     4    14    1
    10     5     6   ar
    11     5     7    1
    12     7     8    1
    13     8     9    1
    14     9    10    1
    15     9    13    1
    16    10    11    1
    17    11    12    1
    18    12    13    1
    19    14    15    1
    20    15    16    1
    21    15    19    1
    22    16    17    1
    23    17    18    1
    24    18    19    1
    25    21    22   ar
    26    22    23   ar
    27    22    35    2
    28    23    24    1
    29    24    25   ar
    30    24    34   ar
    31    25    26   ar
    32    26    27   ar
    33    27    28    1
    34    27    33   ar
    35    28    29    2
    36    28    30    1
    37    30    31    1
    38    31    32    1
    39    33    34   ar
