@<TRIPOS>MOLECULE
29332_ChemDiv_4640-0065
 23 25 0 0 0
SMALL
GASTEIGER
Energy = 0

@<TRIPOS>ATOM
      1 C           0.8710   -1.2460    0.0000 C.ar    1  LIG1        0.0941
      2 C           0.0130   -0.7420    0.0000 C.2     1  LIG1        0.2680
      3 N           0.0130    0.2710    0.0000 N.am    1  LIG1       -0.1986
      4 C          -0.8630    0.7630    0.0000 C.3     1  LIG1        0.1494
      5 C          -0.8630    1.7500    0.0000 C.3     1  LIG1        0.1587
      6 C          -1.7420    2.2540    0.0000 C.ar    1  LIG1        0.0024
      7 C          -1.7420    3.2670    0.0000 C.ar    1  LIG1       -0.0213
      8 C          -0.8630    3.7580    0.0000 C.3     1  LIG1        0.0582
      9 C           0.0130    3.2380    0.0000 C.3     1  LIG1        0.1472
     10 O           0.0130    2.2670    0.0000 O.3     1  LIG1       -0.3497
     11 C          -2.5920    3.7580    0.0000 C.ar    1  LIG1       -0.0044
     12 C          -3.4750    3.2380    0.0000 C.ar    1  LIG1       -0.0003
     13 C          -3.4750    2.2670    0.0000 C.ar    1  LIG1       -0.0003
     14 C          -2.5920    1.7500    0.0000 C.ar    1  LIG1       -0.0022
     15 O          -0.8420   -1.2630    0.0000 O.2     1  LIG1       -0.2683
     16 C           0.8710   -2.2420    0.0000 C.ar    1  LIG1        0.2031
     17 C           1.7380   -2.7420    0.0000 C.ar    1  LIG1        0.0790
     18 C           2.6170   -2.2580    0.0000 C.ar    1  LIG1        0.1419
     19 C           2.6040   -1.2460    0.0000 C.ar    1  LIG1        0.0373
     20 C           1.7380   -0.7580    0.0000 C.ar    1  LIG1        0.0109
     21 O           3.4710   -2.7630    0.0000 O.3     1  LIG1       -0.4713
     22 C           3.4580   -3.7540    0.0000 C.3     1  LIG1        0.2525
     23 O           0.0130   -2.7420    0.0000 O.3     1  LIG1       -0.2863
@<TRIPOS>BOND
     1     1     2    1
     2     1    16   ar
     3     1    20   ar
     4     2     3   am
     5     2    15    2
     6     3     4    1
     7     4     5    1
     8     5     6    1
     9     5    10    1
    10     6     7   ar
    11     6    14   ar
    12     7     8    1
    13     7    11   ar
    14     8     9    1
    15     9    10    1
    16    11    12   ar
    17    12    13   ar
    18    13    14   ar
    19    16    17   ar
    20    16    23    1
    21    17    18   ar
    22    18    19   ar
    23    18    21    1
    24    19    20   ar
    25    21    22    1
