@<TRIPOS>MOLECULE
29339_ChemDiv_K286-3767
 20 22 0 0 0
SMALL
GASTEIGER
Energy = 0

@<TRIPOS>ATOM
      1 C          -0.8960   -0.7790    0.0000 C.ar    1  LIG1        0.1574
      2 C          -0.8960    0.2210    0.0000 C.ar    1  LIG1        0.1219
      3 C          -0.0330    0.7210    0.0000 C.ar    1  LIG1        0.2751
      4 N           0.8290    0.2210    0.0000 N.ar    1  LIG1       -0.2531
      5 C           0.8290   -0.7790    0.0000 C.ar    1  LIG1        0.1891
      6 N          -0.0330   -1.2750    0.0000 N.ar    1  LIG1       -0.2035
      7 S           1.6960   -1.2750    0.0000 S.2     1  LIG1       -0.0105
      8 C           1.6960    0.7210    0.0000 C.ar    1  LIG1        0.0687
      9 C           1.6960    1.7250    0.0000 C.ar    1  LIG1        0.0177
     10 C           2.5580    2.2330    0.0000 C.ar    1  LIG1        0.0015
     11 C           3.4330    1.7250    0.0000 C.ar    1  LIG1        0.0001
     12 C           3.4330    0.7210    0.0000 C.ar    1  LIG1        0.0015
     13 C           2.5580    0.2210    0.0000 C.ar    1  LIG1        0.0177
     14 O          -0.0330    1.7210    0.0000 O.2     1  LIG1       -0.2659
     15 S          -1.8460    0.5290    0.0000 S.2     1  LIG1       -0.0549
     16 C          -2.4380   -0.2710    0.0000 C.ar    1  LIG1        0.1285
     17 N          -1.8460   -1.0790    0.0000 N.ar    1  LIG1       -0.3017
     18 C          -2.1630   -2.0330    0.0000 C.3     1  LIG1        0.1085
     19 C          -3.1380   -2.2290    0.0000 C.3     1  LIG1        0.0266
     20 S          -3.4380   -0.2630    0.0000 S.2     1  LIG1       -0.0247
@<TRIPOS>BOND
     1     1     2   ar
     2     1     6   ar
     3     1    17   ar
     4     2     3   ar
     5     2    15   ar
     6     3     4   ar
     7     3    14    2
     8     4     5   ar
     9     4     8    1
    10     5     6   ar
    11     5     7    2
    12     8     9   ar
    13     8    13   ar
    14     9    10   ar
    15    10    11   ar
    16    11    12   ar
    17    12    13   ar
    18    15    16   ar
    19    16    17   ar
    20    16    20    2
    21    17    18    1
    22    18    19    1
