@<TRIPOS>MOLECULE
29338_ChemDiv_5504-0708
 26 28 0 0 0
SMALL
GASTEIGER
Energy = 0

@<TRIPOS>ATOM
      1 C          -0.8670   -0.5000    0.0000 C.2     1  LIG1        0.2649
      2 N          -1.7420   -1.0000    0.0000 N.am    1  LIG1       -0.1987
      3 C          -2.6080   -0.5000    0.0000 C.3     1  LIG1        0.1494
      4 C          -2.6080    0.5040    0.0000 C.3     1  LIG1        0.1587
      5 C          -3.4710    0.9960    0.0000 C.ar    1  LIG1        0.0024
      6 C          -3.4630    1.9960    0.0000 C.ar    1  LIG1       -0.0213
      7 C          -2.6080    2.5000    0.0000 C.3     1  LIG1        0.0582
      8 C          -1.7380    2.0130    0.0000 C.3     1  LIG1        0.1472
      9 O          -1.7420    0.9960    0.0000 O.3     1  LIG1       -0.3497
     10 C          -4.3380    2.5000    0.0000 C.ar    1  LIG1       -0.0044
     11 C          -5.1920    2.0130    0.0000 C.ar    1  LIG1       -0.0003
     12 C          -5.1920    0.9960    0.0000 C.ar    1  LIG1       -0.0003
     13 C          -4.3380    0.5040    0.0000 C.ar    1  LIG1       -0.0022
     14 C           0.0000   -1.0000    0.0000 C.ar    1  LIG1        0.0552
     15 C           0.0000   -1.9920    0.0000 C.ar    1  LIG1        0.0077
     16 C           0.8630   -2.4960    0.0000 C.ar    1  LIG1        0.0370
     17 C           1.7330   -1.9880    0.0000 C.ar    1  LIG1        0.1386
     18 C           1.7330   -0.9880    0.0000 C.ar    1  LIG1        0.0370
     19 C           0.8540   -0.4830    0.0000 C.ar    1  LIG1        0.0077
     20 O           2.6040   -2.4790    0.0000 O.3     1  LIG1       -0.4755
     21 C           3.4580   -1.9710    0.0000 C.3     1  LIG1        0.2054
     22 C           3.4580   -0.9710    0.0000 C.3     1  LIG1        0.0473
     23 C           4.3250   -0.4710    0.0000 C.3     1  LIG1        0.0037
     24 C           4.3250    0.5250    0.0000 C.3     1  LIG1        0.0001
     25 C           5.1880   -0.9710    0.0000 C.3     1  LIG1        0.0001
     26 O          -0.8670    0.5040    0.0000 O.2     1  LIG1       -0.2684
@<TRIPOS>BOND
     1     1     2   am
     2     1    14    1
     3     1    26    2
     4     2     3    1
     5     3     4    1
     6     4     5    1
     7     4     9    1
     8     5     6   ar
     9     5    13   ar
    10     6     7    1
    11     6    10   ar
    12     7     8    1
    13     8     9    1
    14    10    11   ar
    15    11    12   ar
    16    12    13   ar
    17    14    15   ar
    18    14    19   ar
    19    15    16   ar
    20    16    17   ar
    21    17    18   ar
    22    17    20    1
    23    18    19   ar
    24    20    21    1
    25    21    22    1
    26    22    23    1
    27    23    24    1
    28    23    25    1
