@<TRIPOS>MOLECULE
29333_ChemDiv_K286-3233
 32 35 0 0 0
SMALL
GASTEIGER
Energy = 0

@<TRIPOS>ATOM
      1 C          -1.2420    0.6040    0.0000 C.ar    1  LIG1        0.1612
      2 C          -1.2420    1.6000    0.0000 C.ar    1  LIG1        0.1219
      3 C          -0.3790    2.1000    0.0000 C.ar    1  LIG1        0.2714
      4 N           0.4960    1.6000    0.0000 N.ar    1  LIG1       -0.2726
      5 C           0.4960    0.6040    0.0000 C.ar    1  LIG1        0.1760
      6 N          -0.3790    0.0960    0.0000 N.ar    1  LIG1       -0.2042
      7 S           1.3630    0.0960    0.0000 S.3     1  LIG1       -0.0606
      8 C           2.2250    0.6040    0.0000 C.3     1  LIG1        0.1698
      9 C           3.1040    0.1040    0.0000 C.1     1  LIG1        0.0856
     10 N           3.9830   -0.3880    0.0000 N.1     1  LIG1       -0.1949
     11 C           1.3460    2.1000    0.0000 C.3     1  LIG1        0.1403
     12 C           1.3460    3.1000    0.0000 C.3     1  LIG1        0.1379
     13 O           2.1500    3.6920    0.0000 O.3     1  LIG1       -0.3543
     14 C           1.8330    4.6330    0.0000 C.3     1  LIG1        0.1422
     15 C           0.8330    4.6330    0.0000 C.3     1  LIG1        0.0346
     16 C           0.5290    3.6880    0.0000 C.3     1  LIG1        0.0341
     17 O          -0.3790    3.1000    0.0000 O.2     1  LIG1       -0.2663
     18 S          -2.1960    1.9130    0.0000 S.2     1  LIG1       -0.0546
     19 C          -2.7830    1.1040    0.0000 C.ar    1  LIG1        0.1324
     20 N          -2.1960    0.2960    0.0000 N.ar    1  LIG1       -0.2803
     21 C          -2.4080   -0.6830    0.0000 C.ar    1  LIG1        0.0663
     22 C          -3.3580   -0.9920    0.0000 C.ar    1  LIG1        0.0178
     23 C          -3.5750   -1.9710    0.0000 C.ar    1  LIG1        0.0079
     24 C          -2.8290   -2.6380    0.0000 C.ar    1  LIG1        0.0757
     25 C          -3.0420   -3.6130    0.0000 C.2     1  LIG1        0.3412
     26 O          -3.9880   -3.9250    0.0000 O.2     1  LIG1       -0.2449
     27 O          -2.3000   -4.2750    0.0000 O.3     1  LIG1       -0.4454
     28 C          -1.3500   -3.9710    0.0000 C.3     1  LIG1        0.2089
     29 C          -0.6080   -4.6330    0.0000 C.3     1  LIG1        0.0513
     30 C          -1.8830   -2.3250    0.0000 C.ar    1  LIG1        0.0079
     31 C          -1.6710   -1.3540    0.0000 C.ar    1  LIG1        0.0178
     32 S          -3.7830    1.1130    0.0000 S.2     1  LIG1       -0.0244
@<TRIPOS>BOND
     1     1     2   ar
     2     1     6   ar
     3     1    20   ar
     4     2     3   ar
     5     2    18   ar
     6     3     4   ar
     7     3    17    2
     8     4     5   ar
     9     4    11    1
    10     5     6   ar
    11     5     7    1
    12     7     8    1
    13     8     9    1
    14     9    10    3
    15    11    12    1
    16    12    13    1
    17    12    16    1
    18    13    14    1
    19    14    15    1
    20    15    16    1
    21    18    19   ar
    22    19    20   ar
    23    19    32    2
    24    20    21    1
    25    21    22   ar
    26    21    31   ar
    27    22    23   ar
    28    23    24   ar
    29    24    25    1
    30    24    30   ar
    31    25    26    2
    32    25    27    1
    33    27    28    1
    34    28    29    1
    35    30    31   ar
