@<TRIPOS>MOLECULE
29331_ChemDiv_K286-0441
 34 37 0 0 0
SMALL
GASTEIGER
Energy = 0

@<TRIPOS>ATOM
      1 C          -4.3830    0.3290    0.0000 C.ar    1  LIG1        0.1613
      2 C          -4.3830    1.3250    0.0000 C.ar    1  LIG1        0.1236
      3 S          -5.3250    1.6380    0.0000 S.2     1  LIG1       -0.0545
      4 C          -5.9130    0.8380    0.0000 C.ar    1  LIG1        0.1324
      5 N          -5.3250    0.0210    0.0000 N.ar    1  LIG1       -0.2803
      6 C          -5.6380   -0.9330    0.0000 C.ar    1  LIG1        0.0663
      7 C          -6.6040   -1.1420    0.0000 C.ar    1  LIG1        0.0176
      8 C          -6.9080   -2.0830    0.0000 C.ar    1  LIG1        0.0015
      9 C          -6.2420   -2.8210    0.0000 C.ar    1  LIG1        0.0001
     10 C          -5.2750   -2.6080    0.0000 C.ar    1  LIG1        0.0015
     11 C          -4.9710   -1.6630    0.0000 C.ar    1  LIG1        0.0176
     12 S          -6.9080    0.8380    0.0000 S.2     1  LIG1       -0.0244
     13 C          -3.5210    1.8250    0.0000 C.ar    1  LIG1        0.2900
     14 N          -2.6460    1.3250    0.0000 N.ar    1  LIG1       -0.1822
     15 C          -2.6460    0.3290    0.0000 C.ar    1  LIG1        0.1946
     16 N          -3.5210   -0.1710    0.0000 N.ar    1  LIG1       -0.2027
     17 S          -1.7790   -0.1710    0.0000 S.3     1  LIG1       -0.0657
     18 C          -0.9170    0.3380    0.0000 C.3     1  LIG1        0.1516
     19 C          -0.0380   -0.1630    0.0000 C.2     1  LIG1        0.2528
     20 O          -0.0290   -1.1630    0.0000 O.2     1  LIG1       -0.2724
     21 N           0.8250    0.3380    0.0000 N.am    1  LIG1       -0.2043
     22 C           1.6880   -0.1630    0.0000 C.3     1  LIG1        0.1198
     23 C           2.5630    0.3380    0.0000 C.3     1  LIG1        0.0498
     24 C           3.4290   -0.1630    0.0000 C.ar    1  LIG1       -0.0203
     25 C           3.4290   -1.1630    0.0000 C.ar    1  LIG1       -0.0028
     26 C           4.2920   -1.6630    0.0000 C.ar    1  LIG1        0.0197
     27 C           5.1540   -1.1630    0.0000 C.ar    1  LIG1        0.1250
     28 S           6.0330   -1.6750    0.0000 S.O2    1  LIG1        0.0935
     29 O           5.5170   -2.5500    0.0000 O.2     1  LIG1       -0.1503
     30 O           6.5420   -0.8000    0.0000 O.2     1  LIG1       -0.1503
     31 N           6.9080   -2.1880    0.0000 N.3     1  LIG1        0.0392
     32 C           5.1540   -0.1630    0.0000 C.ar    1  LIG1        0.0197
     33 C           4.2920    0.3380    0.0000 C.ar    1  LIG1       -0.0028
     34 O          -3.5210    2.8250    0.0000 O.2     1  LIG1       -0.2645
@<TRIPOS>BOND
     1     1     2   ar
     2     1     5   ar
     3     1    16   ar
     4     2     3   ar
     5     2    13   ar
     6     3     4   ar
     7     4     5   ar
     8     4    12    2
     9     5     6    1
    10     6     7   ar
    11     6    11   ar
    12     7     8   ar
    13     8     9   ar
    14     9    10   ar
    15    10    11   ar
    16    13    14   ar
    17    13    34    2
    18    14    15   ar
    19    15    16   ar
    20    15    17    1
    21    17    18    1
    22    18    19    1
    23    19    20    2
    24    19    21   am
    25    21    22    1
    26    22    23    1
    27    23    24    1
    28    24    25   ar
    29    24    33   ar
    30    25    26   ar
    31    26    27   ar
    32    27    28    1
    33    27    32   ar
    34    28    29    2
    35    28    30    2
    36    28    31    1
    37    32    33   ar
