@<TRIPOS>MOLECULE
29337_ChemDiv_K286-3555
 31 34 0 0 0
SMALL
GASTEIGER
Energy = 0

@<TRIPOS>ATOM
      1 C          -0.9920    1.6500    0.0000 C.ar    1  LIG1        0.1614
      2 N          -1.9420    1.3420    0.0000 N.ar    1  LIG1       -0.2773
      3 C          -2.5250    2.1580    0.0000 C.ar    1  LIG1        0.1325
      4 S          -1.9420    2.9670    0.0000 S.2     1  LIG1       -0.0545
      5 C          -0.9920    2.6580    0.0000 C.ar    1  LIG1        0.1236
      6 C          -0.1290    3.1580    0.0000 C.ar    1  LIG1        0.2900
      7 N           0.7500    2.6580    0.0000 N.ar    1  LIG1       -0.1822
      8 C           0.7500    1.6630    0.0000 C.ar    1  LIG1        0.1946
      9 N          -0.1130    1.1580    0.0000 N.ar    1  LIG1       -0.2027
     10 S           1.6210    1.1750    0.0000 S.3     1  LIG1       -0.0657
     11 C           1.6250    0.1750    0.0000 C.3     1  LIG1        0.1520
     12 C           2.5000   -0.3250    0.0000 C.2     1  LIG1        0.2584
     13 N           2.5040   -1.3210    0.0000 N.am    1  LIG1       -0.1564
     14 C           3.3210   -1.8960    0.0000 C.ar    1  LIG1        0.1958
     15 N           4.2750   -1.5790    0.0000 N.ar    1  LIG1       -0.0604
     16 O           4.8750   -2.3790    0.0000 O.2     1  LIG1       -0.3565
     17 C           4.2880   -3.1960    0.0000 C.ar    1  LIG1        0.1563
     18 C           3.3380   -2.8960    0.0000 C.ar    1  LIG1        0.0751
     19 C           4.6080   -4.1500    0.0000 C.3     1  LIG1        0.0754
     20 O           3.3500    0.1790    0.0000 O.2     1  LIG1       -0.2720
     21 O          -0.1290    4.1500    0.0000 O.2     1  LIG1       -0.2645
     22 S          -3.5330    2.1580    0.0000 S.2     1  LIG1       -0.0244
     23 C          -2.2500    0.3920    0.0000 C.ar    1  LIG1        0.1009
     24 C          -1.5960   -0.3380    0.0000 C.ar    1  LIG1        0.0321
     25 C          -1.9000   -1.2920    0.0000 C.ar    1  LIG1        0.0593
     26 C          -2.8830   -1.5000    0.0000 C.ar    1  LIG1        0.0146
     27 C          -3.5460   -0.7460    0.0000 C.ar    1  LIG1        0.0393
     28 C          -3.2330    0.1960    0.0000 C.ar    1  LIG1        0.1548
     29 O          -3.9000    0.9460    0.0000 O.3     1  LIG1       -0.4700
     30 C          -4.8790    0.7500    0.0000 C.3     1  LIG1        0.2525
     31 CL         -1.2330   -2.0290    0.0000 Cl      1  LIG1       -0.0822
@<TRIPOS>BOND
     1     1     2   ar
     2     1     5   ar
     3     1     9   ar
     4     2     3   ar
     5     2    23    1
     6     3     4   ar
     7     3    22    2
     8     4     5   ar
     9     5     6   ar
    10     6     7   ar
    11     6    21    2
    12     7     8   ar
    13     8     9   ar
    14     8    10    1
    15    10    11    1
    16    11    12    1
    17    12    13   am
    18    12    20    2
    19    13    14    1
    20    14    15   ar
    21    14    18   ar
    22    15    16   ar
    23    16    17   ar
    24    17    18   ar
    25    17    19    1
    26    23    24   ar
    27    23    28   ar
    28    24    25   ar
    29    25    26   ar
    30    25    31    1
    31    26    27   ar
    32    27    28   ar
    33    28    29    1
    34    29    30    1
