@<TRIPOS>MOLECULE
29330_ChemDiv_4640-0060
 26 28 0 0 0
SMALL
GASTEIGER
Energy = 0

@<TRIPOS>ATOM
      1 C           2.1790   -2.0330    0.0000 C.ar    1  LIG1        0.2061
      2 C           1.2960   -2.5250    0.0000 C.ar    1  LIG1        0.1756
      3 C           0.4380   -2.0080    0.0000 C.ar    1  LIG1        0.0448
      4 C           0.4380   -1.0210    0.0000 C.ar    1  LIG1        0.0613
      5 C          -0.4330   -0.5130    0.0000 C.2     1  LIG1        0.2651
      6 N          -0.4330    0.5040    0.0000 N.am    1  LIG1       -0.1987
      7 C          -1.2880    1.0000    0.0000 C.3     1  LIG1        0.1494
      8 C          -1.2880    2.0040    0.0000 C.3     1  LIG1        0.1587
      9 C          -2.1500    2.4830    0.0000 C.ar    1  LIG1        0.0024
     10 C          -2.1500    3.5080    0.0000 C.ar    1  LIG1       -0.0213
     11 C          -1.2880    4.0000    0.0000 C.3     1  LIG1        0.0582
     12 C          -0.4000    3.5080    0.0000 C.3     1  LIG1        0.1472
     13 O          -0.4000    2.4830    0.0000 O.3     1  LIG1       -0.3497
     14 C          -3.0170    4.0000    0.0000 C.ar    1  LIG1       -0.0044
     15 C          -3.8920    3.5080    0.0000 C.ar    1  LIG1       -0.0003
     16 C          -3.8920    2.4830    0.0000 C.ar    1  LIG1       -0.0003
     17 C          -3.0170    2.0040    0.0000 C.ar    1  LIG1       -0.0022
     18 O          -1.3080   -1.0210    0.0000 O.2     1  LIG1       -0.2684
     19 C           1.2960   -0.5380    0.0000 C.ar    1  LIG1        0.0448
     20 C           2.1790   -1.0290    0.0000 C.ar    1  LIG1        0.1756
     21 O           3.0330   -0.5380    0.0000 O.3     1  LIG1       -0.4683
     22 C           3.8880   -1.0210    0.0000 C.3     1  LIG1        0.2526
     23 O           1.2960   -3.5170    0.0000 O.3     1  LIG1       -0.4683
     24 C           0.4420   -4.0000    0.0000 C.3     1  LIG1        0.2526
     25 O           3.0330   -2.5250    0.0000 O.3     1  LIG1       -0.4654
     26 C           3.0330   -3.5040    0.0000 C.3     1  LIG1        0.2528
@<TRIPOS>BOND
     1     1     2   ar
     2     1    20   ar
     3     1    25    1
     4     2     3   ar
     5     2    23    1
     6     3     4   ar
     7     4     5    1
     8     4    19   ar
     9     5     6   am
    10     5    18    2
    11     6     7    1
    12     7     8    1
    13     8     9    1
    14     8    13    1
    15     9    10   ar
    16     9    17   ar
    17    10    11    1
    18    10    14   ar
    19    11    12    1
    20    12    13    1
    21    14    15   ar
    22    15    16   ar
    23    16    17   ar
    24    19    20   ar
    25    20    21    1
    26    21    22    1
    27    23    24    1
    28    25    26    1
