@<TRIPOS>MOLECULE
29334_ChemDiv_4640-0138
 23 25 0 0 0
SMALL
GASTEIGER
Energy = 0

@<TRIPOS>ATOM
      1 C          -2.1670    2.2460    0.0000 C.ar    1  LIG1        0.0067
      2 C          -1.2960    1.7420    0.0000 C.3     1  LIG1        0.1996
      3 O          -0.4130    2.2460    0.0000 O.3     1  LIG1       -0.3452
      4 C          -0.4130    3.2420    0.0000 C.3     1  LIG1        0.1474
      5 C          -1.2960    3.7380    0.0000 C.3     1  LIG1        0.0582
      6 C          -2.1670    3.2420    0.0000 C.ar    1  LIG1       -0.0212
      7 C          -3.0250    3.7380    0.0000 C.ar    1  LIG1       -0.0044
      8 C          -3.8920    3.2420    0.0000 C.ar    1  LIG1       -0.0003
      9 C          -3.8920    2.2460    0.0000 C.ar    1  LIG1       -0.0003
     10 C          -3.0250    1.7420    0.0000 C.ar    1  LIG1       -0.0020
     11 C          -1.2960    0.7250    0.0000 C.3     1  LIG1        0.2355
     12 N          -0.4130    0.2330    0.0000 N.4     1  LIG1        0.4542
     13 C          -0.4130   -0.7710    0.0000 C.3     1  LIG1        0.2286
     14 C           0.4290   -1.2710    0.0000 C.ar    1  LIG1        0.0434
     15 C           1.3130   -0.7710    0.0000 C.ar    1  LIG1        0.0417
     16 C           2.1790   -1.2710    0.0000 C.ar    1  LIG1        0.1723
     17 C           2.1790   -2.2670    0.0000 C.ar    1  LIG1        0.1724
     18 C           1.2920   -2.7830    0.0000 C.ar    1  LIG1        0.0399
     19 C           0.4290   -2.2670    0.0000 C.ar    1  LIG1        0.0050
     20 O           3.0380   -2.7580    0.0000 O.3     1  LIG1       -0.4684
     21 C           3.0500   -3.7330    0.0000 C.3     1  LIG1        0.2526
     22 O           3.0380   -0.7830    0.0000 O.3     1  LIG1       -0.4684
     23 C           3.8880   -1.2630    0.0000 C.3     1  LIG1        0.2526
@<TRIPOS>BOND
     1     1     2    1
     2     1     6   ar
     3     1    10   ar
     4     2     3    1
     5     2    11    1
     6     3     4    1
     7     4     5    1
     8     5     6    1
     9     6     7   ar
    10     7     8   ar
    11     8     9   ar
    12     9    10   ar
    13    11    12    1
    14    12    13    1
    15    13    14    1
    16    14    15   ar
    17    14    19   ar
    18    15    16   ar
    19    16    17   ar
    20    16    22    1
    21    17    18   ar
    22    17    20    1
    23    18    19   ar
    24    20    21    1
    25    22    23    1
