@<TRIPOS>MOLECULE
29348_ChemDiv_3389-0957
 25 28 0 0 0
SMALL
GASTEIGER
Energy = 0

@<TRIPOS>ATOM
      1 N          -0.2250    0.5000    0.0000 N.am    1  LIG1       -0.2344
      2 C          -0.4580   -0.5000    0.0000 C.2     1  LIG1        0.2594
      3 C           0.2880   -1.1540    0.0000 C.ar    1  LIG1        0.0881
      4 C           0.0920   -2.1250    0.0000 C.ar    1  LIG1        0.1430
      5 O          -0.8580   -2.4670    0.0000 O.3     1  LIG1       -0.4713
      6 C          -1.6250   -1.8420    0.0000 C.3     1  LIG1        0.2525
      7 C           0.8290   -2.7540    0.0000 C.ar    1  LIG1        0.0371
      8 C           1.7750   -2.4420    0.0000 C.ar    1  LIG1        0.0031
      9 C           1.9710   -1.4670    0.0000 C.ar    1  LIG1        0.0003
     10 C           1.2040   -0.8170    0.0000 C.ar    1  LIG1        0.0076
     11 O          -1.4040   -0.8170    0.0000 O.2     1  LIG1       -0.2691
     12 C           0.7380    0.7330    0.0000 C.ar    1  LIG1        0.0544
     13 C           1.1670    1.6420    0.0000 C.ar    1  LIG1       -0.0078
     14 C           0.7380    2.5380    0.0000 C.3     1  LIG1        0.0323
     15 C          -0.2250    2.7580    0.0000 C.3     1  LIG1        0.0323
     16 C          -1.0000    2.1290    0.0000 C.ar    1  LIG1       -0.0078
     17 C          -1.0000    1.1290    0.0000 C.ar    1  LIG1        0.0544
     18 C          -1.8580    0.6130    0.0000 C.ar    1  LIG1        0.0149
     19 C          -2.7460    1.1080    0.0000 C.ar    1  LIG1        0.0013
     20 C          -2.7460    2.1630    0.0000 C.ar    1  LIG1       -0.0002
     21 C          -1.8580    2.6420    0.0000 C.ar    1  LIG1       -0.0030
     22 C           2.1670    1.7330    0.0000 C.ar    1  LIG1       -0.0030
     23 C           2.7420    0.9000    0.0000 C.ar    1  LIG1       -0.0002
     24 C           2.3130    0.0170    0.0000 C.ar    1  LIG1        0.0013
     25 C           1.2880   -0.0710    0.0000 C.ar    1  LIG1        0.0149
@<TRIPOS>BOND
     1     1     2   am
     2     1    12    1
     3     1    17    1
     4     2     3    1
     5     2    11    2
     6     3     4   ar
     7     3    10   ar
     8     4     5    1
     9     4     7   ar
    10     5     6    1
    11     7     8   ar
    12     8     9   ar
    13     9    10   ar
    14    12    13   ar
    15    12    25   ar
    16    13    14    1
    17    13    22   ar
    18    14    15    1
    19    15    16    1
    20    16    17   ar
    21    16    21   ar
    22    17    18   ar
    23    18    19   ar
    24    19    20   ar
    25    20    21   ar
    26    22    23   ar
    27    23    24   ar
    28    24    25   ar
