@<TRIPOS>MOLECULE
29345_ChemDiv_D038-0680
 34 37 0 0 0
SMALL
GASTEIGER
Energy = 0

@<TRIPOS>ATOM
      1 C           0.2960    0.3630    0.0000 C.ar    1  LIG1        0.0845
      2 C          -0.3000    1.1670    0.0000 C.ar    1  LIG1        0.0709
      3 C          -1.2500    0.8710    0.0000 C.ar    1  LIG1       -0.0140
      4 C          -1.2500   -0.1380    0.0000 C.ar    1  LIG1        0.0047
      5 S          -0.3040   -0.4420    0.0000 S.2     1  LIG1       -0.0767
      6 C          -2.1040   -0.6330    0.0000 C.3     1  LIG1        0.0327
      7 C          -2.9880   -0.1380    0.0000 C.3     1  LIG1        0.0055
      8 C          -2.9750    0.8710    0.0000 C.3     1  LIG1        0.0050
      9 C          -2.1040    1.3630    0.0000 C.3     1  LIG1        0.0268
     10 C           0.0130    2.1210    0.0000 C.2     1  LIG1        0.2662
     11 O          -0.6580    2.8630    0.0000 O.2     1  LIG1       -0.2683
     12 N           0.9920    2.3330    0.0000 N.am    1  LIG1       -0.2015
     13 C           1.3040    3.2830    0.0000 C.3     1  LIG1        0.1181
     14 C           0.5920    3.9830    0.0000 C.3     1  LIG1        0.0555
     15 C           0.8460    4.9540    0.0000 C.3     1  LIG1        0.1440
     16 O           0.1460    5.6540    0.0000 O.3     1  LIG1       -0.3537
     17 C          -0.8130    5.4000    0.0000 C.3     1  LIG1        0.1422
     18 C          -1.5130    6.0960    0.0000 C.3     1  LIG1        0.0346
     19 N           1.2920    0.3630    0.0000 N.am    1  LIG1       -0.2786
     20 C           1.7920   -0.5040    0.0000 C.2     1  LIG1        0.2310
     21 C           1.2830   -1.3750    0.0000 C.3     1  LIG1        0.1149
     22 C           1.7750   -2.2420    0.0000 C.ar    1  LIG1        0.0272
     23 C           1.3670   -3.1670    0.0000 C.ar    1  LIG1        0.0301
     24 C           2.1170   -3.8460    0.0000 C.ar    1  LIG1        0.1445
     25 O           2.9830   -3.3460    0.0000 O.2     1  LIG1       -0.4508
     26 C           2.7880   -2.3710    0.0000 C.ar    1  LIG1        0.1757
     27 C           1.9040   -4.8170    0.0000 C.ar    1  LIG1        0.0332
     28 C           0.9500   -5.1210    0.0000 C.ar    1  LIG1       -0.0191
     29 C           0.2080   -4.4580    0.0000 C.ar    1  LIG1       -0.0083
     30 C           0.4210   -3.4710    0.0000 C.ar    1  LIG1       -0.0194
     31 C          -0.3210   -2.8080    0.0000 C.3     1  LIG1        0.0311
     32 C           0.7380   -6.0960    0.0000 C.3     1  LIG1        0.0311
     33 O           2.7920   -0.5210    0.0000 O.2     1  LIG1       -0.2744
     34 H           1.8000    1.2170    0.0000 H       1  LIG1        0.1553
@<TRIPOS>BOND
     1     1     2   ar
     2     1     5   ar
     3     1    19    1
     4     2     3   ar
     5     2    10    1
     6     3     4   ar
     7     3     9    1
     8     4     5   ar
     9     4     6    1
    10     6     7    1
    11     7     8    1
    12     8     9    1
    13    10    11    2
    14    10    12   am
    15    12    13    1
    16    13    14    1
    17    14    15    1
    18    15    16    1
    19    16    17    1
    20    17    18    1
    21    19    20   am
    22    19    34    1
    23    20    21    1
    24    20    33    2
    25    21    22    1
    26    22    23   ar
    27    22    26   ar
    28    23    24   ar
    29    23    30   ar
    30    24    25   ar
    31    24    27   ar
    32    25    26   ar
    33    27    28   ar
    34    28    29   ar
    35    28    32    1
    36    29    30   ar
    37    30    31    1
