@<TRIPOS>MOLECULE
29344_ChemDiv_6136-0067
 33 36 0 0 0
SMALL
GASTEIGER
Energy = 0

@<TRIPOS>ATOM
      1 C           2.2880   -0.3500    0.0000 C.2     1  LIG1        0.2691
      2 C           3.0000   -1.0630    0.0000 C.ar    1  LIG1        0.0586
      3 C           3.9540   -0.8000    0.0000 C.ar    1  LIG1        0.0446
      4 C           4.6630   -1.5000    0.0000 C.ar    1  LIG1        0.1725
      5 C           4.4080   -2.4710    0.0000 C.ar    1  LIG1        0.1724
      6 C           3.4380   -2.7290    0.0000 C.ar    1  LIG1        0.0402
      7 C           2.7380   -2.0250    0.0000 C.ar    1  LIG1        0.0079
      8 O           5.1130   -3.1790    0.0000 O.3     1  LIG1       -0.4684
      9 C           4.8540   -4.1460    0.0000 C.3     1  LIG1        0.2526
     10 O           5.6290   -1.2420    0.0000 O.3     1  LIG1       -0.4684
     11 C           6.3290   -1.9420    0.0000 C.3     1  LIG1        0.2526
     12 N           1.4250   -0.8630    0.0000 N.am    1  LIG1       -0.1754
     13 C           0.5630   -0.3630    0.0000 C.ar    1  LIG1        0.0737
     14 C          -0.3040   -0.8500    0.0000 C.ar    1  LIG1        0.0168
     15 C          -1.1670   -0.3500    0.0000 C.ar    1  LIG1        0.0059
     16 C          -1.1540    0.6380    0.0000 C.ar    1  LIG1        0.0551
     17 C          -2.0170    1.1380    0.0000 C.2     1  LIG1        0.2649
     18 N          -2.8830    0.6330    0.0000 N.am    1  LIG1       -0.1987
     19 C          -3.7460    1.1330    0.0000 C.3     1  LIG1        0.1494
     20 C          -3.7420    2.1330    0.0000 C.3     1  LIG1        0.1587
     21 C          -4.6080    2.6330    0.0000 C.ar    1  LIG1        0.0024
     22 C          -4.6040    3.6460    0.0000 C.ar    1  LIG1       -0.0213
     23 C          -3.7420    4.1460    0.0000 C.3     1  LIG1        0.0582
     24 C          -2.8630    3.6460    0.0000 C.3     1  LIG1        0.1472
     25 O          -2.8630    2.6330    0.0000 O.3     1  LIG1       -0.3497
     26 C          -5.4710    4.1420    0.0000 C.ar    1  LIG1       -0.0044
     27 C          -6.3290    3.6460    0.0000 C.ar    1  LIG1       -0.0003
     28 C          -6.3290    2.6380    0.0000 C.ar    1  LIG1       -0.0003
     29 C          -5.4710    2.1380    0.0000 C.ar    1  LIG1       -0.0022
     30 O          -2.0290    2.1380    0.0000 O.2     1  LIG1       -0.2684
     31 C          -0.3040    1.1380    0.0000 C.ar    1  LIG1        0.0059
     32 C           0.5630    0.6500    0.0000 C.ar    1  LIG1        0.0168
     33 O           2.4170    0.6380    0.0000 O.2     1  LIG1       -0.2680
@<TRIPOS>BOND
     1     1     2    1
     2     1    12   am
     3     1    33    2
     4     2     3   ar
     5     2     7   ar
     6     3     4   ar
     7     4     5   ar
     8     4    10    1
     9     5     6   ar
    10     5     8    1
    11     6     7   ar
    12     8     9    1
    13    10    11    1
    14    12    13    1
    15    13    14   ar
    16    13    32   ar
    17    14    15   ar
    18    15    16   ar
    19    16    17    1
    20    16    31   ar
    21    17    18   am
    22    17    30    2
    23    18    19    1
    24    19    20    1
    25    20    21    1
    26    20    25    1
    27    21    22   ar
    28    21    29   ar
    29    22    23    1
    30    22    26   ar
    31    23    24    1
    32    24    25    1
    33    26    27   ar
    34    27    28   ar
    35    28    29   ar
    36    31    32   ar
