@<TRIPOS>MOLECULE
29346_ChemDiv_3389-0679
 25 28 0 0 0
SMALL
GASTEIGER
Energy = 0

@<TRIPOS>ATOM
      1 N          -0.6630    0.5250    0.0000 N.am    1  LIG1       -0.2345
      2 C          -0.8920   -0.4710    0.0000 C.2     1  LIG1        0.2566
      3 C          -0.1460   -1.1460    0.0000 C.ar    1  LIG1        0.0572
      4 C           0.8000   -0.8380    0.0000 C.ar    1  LIG1        0.0414
      5 C           1.5250   -1.5000    0.0000 C.ar    1  LIG1        0.1389
      6 O           2.4580   -1.2210    0.0000 O.3     1  LIG1       -0.4714
      7 C           3.1830   -1.8830    0.0000 C.3     1  LIG1        0.2525
      8 C           1.3170   -2.4630    0.0000 C.ar    1  LIG1        0.0369
      9 C           0.3670   -2.7880    0.0000 C.ar    1  LIG1        0.0033
     10 C          -0.3790   -2.1250    0.0000 C.ar    1  LIG1        0.0047
     11 O          -1.8500   -0.7880    0.0000 O.2     1  LIG1       -0.2692
     12 C           0.3130    0.7540    0.0000 C.ar    1  LIG1        0.0544
     13 C           0.7540    1.6540    0.0000 C.ar    1  LIG1       -0.0078
     14 C           0.3130    2.5540    0.0000 C.3     1  LIG1        0.0323
     15 C          -0.6630    2.7920    0.0000 C.3     1  LIG1        0.0323
     16 C          -1.4330    2.1710    0.0000 C.ar    1  LIG1       -0.0078
     17 C          -1.4330    1.1670    0.0000 C.ar    1  LIG1        0.0544
     18 C          -2.3080    0.6540    0.0000 C.ar    1  LIG1        0.0149
     19 C          -3.1880    1.1420    0.0000 C.ar    1  LIG1        0.0013
     20 C          -3.1880    2.1710    0.0000 C.ar    1  LIG1       -0.0002
     21 C          -2.3080    2.6630    0.0000 C.ar    1  LIG1       -0.0030
     22 C           1.7290    1.7380    0.0000 C.ar    1  LIG1       -0.0030
     23 C           2.2960    0.9130    0.0000 C.ar    1  LIG1       -0.0002
     24 C           1.8580    0.0080    0.0000 C.ar    1  LIG1        0.0013
     25 C           0.8500   -0.0670    0.0000 C.ar    1  LIG1        0.0149
@<TRIPOS>BOND
     1     1     2   am
     2     1    12    1
     3     1    17    1
     4     2     3    1
     5     2    11    2
     6     3     4   ar
     7     3    10   ar
     8     4     5   ar
     9     5     6    1
    10     5     8   ar
    11     6     7    1
    12     8     9   ar
    13     9    10   ar
    14    12    13   ar
    15    12    25   ar
    16    13    14    1
    17    13    22   ar
    18    14    15    1
    19    15    16    1
    20    16    17   ar
    21    16    21   ar
    22    17    18   ar
    23    18    19   ar
    24    19    20   ar
    25    20    21   ar
    26    22    23   ar
    27    23    24   ar
    28    24    25   ar
