@<TRIPOS>MOLECULE
29340_ChemDiv_6136-0062
 31 34 0 0 0
SMALL
GASTEIGER
Energy = 0

@<TRIPOS>ATOM
      1 C           2.4210   -0.8380    0.0000 C.2     1  LIG1        0.2690
      2 N           1.5540   -1.3460    0.0000 N.am    1  LIG1       -0.1754
      3 C           0.6920   -0.8460    0.0000 C.ar    1  LIG1        0.0737
      4 C          -0.1830   -1.3380    0.0000 C.ar    1  LIG1        0.0168
      5 C          -1.0330   -0.8380    0.0000 C.ar    1  LIG1        0.0059
      6 C          -1.0290    0.1540    0.0000 C.ar    1  LIG1        0.0551
      7 C          -1.8920    0.6540    0.0000 C.2     1  LIG1        0.2649
      8 N          -2.7580    0.1500    0.0000 N.am    1  LIG1       -0.1987
      9 C          -3.6210    0.6500    0.0000 C.3     1  LIG1        0.1494
     10 C          -3.6210    1.6500    0.0000 C.3     1  LIG1        0.1587
     11 C          -4.4830    2.1500    0.0000 C.ar    1  LIG1        0.0024
     12 C          -4.4830    3.1630    0.0000 C.ar    1  LIG1       -0.0213
     13 C          -3.6130    3.6670    0.0000 C.3     1  LIG1        0.0582
     14 C          -2.7420    3.1630    0.0000 C.3     1  LIG1        0.1472
     15 O          -2.7420    2.1500    0.0000 O.3     1  LIG1       -0.3497
     16 C          -5.3460    3.6630    0.0000 C.ar    1  LIG1       -0.0044
     17 C          -6.2080    3.1540    0.0000 C.ar    1  LIG1       -0.0003
     18 C          -6.2080    2.1540    0.0000 C.ar    1  LIG1       -0.0003
     19 C          -5.3460    1.6630    0.0000 C.ar    1  LIG1       -0.0022
     20 O          -1.9000    1.6630    0.0000 O.2     1  LIG1       -0.2684
     21 C          -0.1710    0.6540    0.0000 C.ar    1  LIG1        0.0059
     22 C           0.6830    0.1630    0.0000 C.ar    1  LIG1        0.0168
     23 C           3.1210   -1.5500    0.0000 C.ar    1  LIG1        0.0556
     24 C           2.8630   -2.5130    0.0000 C.ar    1  LIG1        0.0077
     25 C           3.5630   -3.2170    0.0000 C.ar    1  LIG1        0.0370
     26 C           4.5290   -2.9580    0.0000 C.ar    1  LIG1        0.1387
     27 C           4.7880   -1.9880    0.0000 C.ar    1  LIG1        0.0370
     28 C           4.0880   -1.2880    0.0000 C.ar    1  LIG1        0.0077
     29 O           5.2420   -3.6630    0.0000 O.3     1  LIG1       -0.4714
     30 C           6.2080   -3.3960    0.0000 C.3     1  LIG1        0.2525
     31 O           2.5460    0.1540    0.0000 O.2     1  LIG1       -0.2680
@<TRIPOS>BOND
     1     1     2   am
     2     1    23    1
     3     1    31    2
     4     2     3    1
     5     3     4   ar
     6     3    22   ar
     7     4     5   ar
     8     5     6   ar
     9     6     7    1
    10     6    21   ar
    11     7     8   am
    12     7    20    2
    13     8     9    1
    14     9    10    1
    15    10    11    1
    16    10    15    1
    17    11    12   ar
    18    11    19   ar
    19    12    13    1
    20    12    16   ar
    21    13    14    1
    22    14    15    1
    23    16    17   ar
    24    17    18   ar
    25    18    19   ar
    26    21    22   ar
    27    23    24   ar
    28    23    28   ar
    29    24    25   ar
    30    25    26   ar
    31    26    27   ar
    32    26    29    1
    33    27    28   ar
    34    29    30    1
