@<TRIPOS>MOLECULE
29349_ChemDiv_D103-1280
 34 37 0 0 0
SMALL
GASTEIGER
Energy = 0

@<TRIPOS>ATOM
      1 C          -1.8540   -1.5330    0.0000 C.ar    1  LIG1        0.0848
      2 C          -2.4460   -0.7290    0.0000 C.ar    1  LIG1        0.0709
      3 C          -3.4000   -1.0250    0.0000 C.ar    1  LIG1       -0.0140
      4 C          -3.4000   -2.0330    0.0000 C.ar    1  LIG1        0.0047
      5 S          -2.4540   -2.3380    0.0000 S.2     1  LIG1       -0.0767
      6 C          -4.2540   -2.5290    0.0000 C.3     1  LIG1        0.0327
      7 C          -5.1330   -2.0330    0.0000 C.3     1  LIG1        0.0055
      8 C          -5.1210   -1.0250    0.0000 C.3     1  LIG1        0.0050
      9 C          -4.2540   -0.5290    0.0000 C.3     1  LIG1        0.0268
     10 C          -2.1380    0.2250    0.0000 C.2     1  LIG1        0.2662
     11 O          -2.8080    0.9670    0.0000 O.2     1  LIG1       -0.2683
     12 N          -1.1540    0.4380    0.0000 N.am    1  LIG1       -0.2015
     13 C          -0.8460    1.3880    0.0000 C.3     1  LIG1        0.1181
     14 C          -1.5580    2.0880    0.0000 C.3     1  LIG1        0.0555
     15 C          -1.3040    3.0630    0.0000 C.3     1  LIG1        0.1440
     16 O          -2.0040    3.7580    0.0000 O.3     1  LIG1       -0.3537
     17 C          -2.9630    3.5040    0.0000 C.3     1  LIG1        0.1422
     18 C          -3.6630    4.2000    0.0000 C.3     1  LIG1        0.0346
     19 N          -0.8580   -1.5330    0.0000 N.am    1  LIG1       -0.2728
     20 C          -0.3580   -2.4130    0.0000 C.2     1  LIG1        0.2847
     21 C           0.6420   -2.4210    0.0000 C.ar    1  LIG1        0.2017
     22 C           1.1500   -1.5670    0.0000 C.ar    1  LIG1        0.0843
     23 C           2.1630   -1.5750    0.0000 C.ar    1  LIG1        0.2018
     24 C           2.6460   -2.4580    0.0000 C.ar    1  LIG1        0.0744
     25 C           2.1250   -3.3130    0.0000 C.ar    1  LIG1        0.1486
     26 O           1.1290   -3.3040    0.0000 O.2     1  LIG1       -0.4487
     27 C           2.6130   -4.1790    0.0000 C.ar    1  LIG1        0.0385
     28 C           3.6210   -4.2000    0.0000 C.ar    1  LIG1        0.0145
     29 C           4.1380   -3.3330    0.0000 C.ar    1  LIG1        0.0580
     30 C           3.6420   -2.4630    0.0000 C.ar    1  LIG1        0.0176
     31 CL          5.1290   -3.3540    0.0000 Cl      1  LIG1       -0.0822
     32 O           2.6670   -0.7080    0.0000 O.2     1  LIG1       -0.2864
     33 O          -0.8580   -3.2830    0.0000 O.2     1  LIG1       -0.2664
     34 H          -0.3500   -0.6790    0.0000 H       1  LIG1        0.1557
@<TRIPOS>BOND
     1     1     2   ar
     2     1     5   ar
     3     1    19    1
     4     2     3   ar
     5     2    10    1
     6     3     4   ar
     7     3     9    1
     8     4     5   ar
     9     4     6    1
    10     6     7    1
    11     7     8    1
    12     8     9    1
    13    10    11    2
    14    10    12   am
    15    12    13    1
    16    13    14    1
    17    14    15    1
    18    15    16    1
    19    16    17    1
    20    17    18    1
    21    19    20   am
    22    19    34    1
    23    20    21    1
    24    20    33    2
    25    21    22   ar
    26    21    26   ar
    27    22    23   ar
    28    23    24   ar
    29    23    32    2
    30    24    25   ar
    31    24    30   ar
    32    25    26   ar
    33    25    27   ar
    34    27    28   ar
    35    28    29   ar
    36    29    30   ar
    37    29    31    1
