@<TRIPOS>MOLECULE
29347_ChemDiv_D103-1239
 32 34 0 0 0
SMALL
GASTEIGER
Energy = 0

@<TRIPOS>ATOM
      1 C          -1.4460   -0.4830    0.0000 C.ar    1  LIG1        0.0872
      2 C          -2.0380    0.3290    0.0000 C.ar    1  LIG1        0.0920
      3 C          -2.9790    0.0250    0.0000 C.ar    1  LIG1       -0.0016
      4 C          -2.9920   -0.9750    0.0000 C.ar    1  LIG1        0.1025
      5 S          -2.0420   -1.2920    0.0000 S.2     1  LIG1       -0.0659
      6 C          -3.8540   -1.4710    0.0000 C.2     1  LIG1        0.3470
      7 O          -4.7170   -0.9580    0.0000 O.2     1  LIG1       -0.2443
      8 O          -3.8580   -2.4710    0.0000 O.3     1  LIG1       -0.4451
      9 C          -4.5710   -3.1710    0.0000 C.3     1  LIG1        0.2089
     10 C          -5.5330   -2.9080    0.0000 C.3     1  LIG1        0.0513
     11 C          -3.7830    0.6170    0.0000 C.3     1  LIG1        0.0320
     12 C          -1.7250    1.2830    0.0000 C.2     1  LIG1        0.3426
     13 O          -2.3920    2.0250    0.0000 O.2     1  LIG1       -0.2448
     14 O          -0.7500    1.4830    0.0000 O.3     1  LIG1       -0.4454
     15 C          -0.4330    2.4330    0.0000 C.3     1  LIG1        0.2089
     16 C          -1.1040    3.1750    0.0000 C.3     1  LIG1        0.0513
     17 N          -0.4460   -0.4920    0.0000 N.am    1  LIG1       -0.2727
     18 C           0.0500   -1.3540    0.0000 C.2     1  LIG1        0.2847
     19 C           1.0460   -1.3670    0.0000 C.ar    1  LIG1        0.2017
     20 C           1.5540   -0.5040    0.0000 C.ar    1  LIG1        0.0843
     21 C           2.5630   -0.5210    0.0000 C.ar    1  LIG1        0.2018
     22 C           3.0460   -1.3920    0.0000 C.ar    1  LIG1        0.0744
     23 C           2.5330   -2.2460    0.0000 C.ar    1  LIG1        0.1486
     24 O           1.5380   -2.2420    0.0000 O.2     1  LIG1       -0.4487
     25 C           3.0210   -3.1250    0.0000 C.ar    1  LIG1        0.0385
     26 C           4.0210   -3.1420    0.0000 C.ar    1  LIG1        0.0145
     27 C           4.5290   -2.2790    0.0000 C.ar    1  LIG1        0.0580
     28 C           4.0460   -1.4000    0.0000 C.ar    1  LIG1        0.0176
     29 CL          5.5290   -2.2880    0.0000 Cl      1  LIG1       -0.0822
     30 O           3.0670    0.3420    0.0000 O.2     1  LIG1       -0.2864
     31 O          -0.4500   -2.2250    0.0000 O.2     1  LIG1       -0.2664
     32 H           0.0540    0.3750    0.0000 H       1  LIG1        0.1557
@<TRIPOS>BOND
     1     1     2   ar
     2     1     5   ar
     3     1    17    1
     4     2     3   ar
     5     2    12    1
     6     3     4   ar
     7     3    11    1
     8     4     5   ar
     9     4     6    1
    10     6     7    2
    11     6     8    1
    12     8     9    1
    13     9    10    1
    14    12    13    2
    15    12    14    1
    16    14    15    1
    17    15    16    1
    18    17    18   am
    19    17    32    1
    20    18    19    1
    21    18    31    2
    22    19    20   ar
    23    19    24   ar
    24    20    21   ar
    25    21    22   ar
    26    21    30    2
    27    22    23   ar
    28    22    28   ar
    29    23    24   ar
    30    23    25   ar
    31    25    26   ar
    32    26    27   ar
    33    27    28   ar
    34    27    29    1
