@<TRIPOS>MOLECULE
29342_ChemDiv_6136-0065
 33 36 0 0 0
SMALL
GASTEIGER
Energy = 0

@<TRIPOS>ATOM
      1 C           2.6750    0.4750    0.0000 C.2     1  LIG1        0.2690
      2 N           1.8130   -0.0250    0.0000 N.am    1  LIG1       -0.1754
      3 C           0.9500    0.4750    0.0000 C.ar    1  LIG1        0.0737
      4 C           0.0750   -0.0250    0.0000 C.ar    1  LIG1        0.0168
      5 C          -0.7750    0.4750    0.0000 C.ar    1  LIG1        0.0059
      6 C          -0.7710    1.4750    0.0000 C.ar    1  LIG1        0.0551
      7 C          -1.6330    1.9750    0.0000 C.2     1  LIG1        0.2649
      8 N          -2.5000    1.4670    0.0000 N.am    1  LIG1       -0.1987
      9 C          -3.3630    1.9670    0.0000 C.3     1  LIG1        0.1494
     10 C          -3.3630    2.9670    0.0000 C.3     1  LIG1        0.1587
     11 C          -4.2250    3.4670    0.0000 C.ar    1  LIG1        0.0024
     12 C          -4.2250    4.4710    0.0000 C.ar    1  LIG1       -0.0213
     13 C          -3.3500    4.9830    0.0000 C.3     1  LIG1        0.0582
     14 C          -2.4830    4.4710    0.0000 C.3     1  LIG1        0.1472
     15 O          -2.4830    3.4670    0.0000 O.3     1  LIG1       -0.3497
     16 C          -5.0880    4.9710    0.0000 C.ar    1  LIG1       -0.0044
     17 C          -5.9500    4.4710    0.0000 C.ar    1  LIG1       -0.0003
     18 C          -5.9500    3.4750    0.0000 C.ar    1  LIG1       -0.0003
     19 C          -5.0880    2.9750    0.0000 C.ar    1  LIG1       -0.0022
     20 O          -1.6420    2.9750    0.0000 O.2     1  LIG1       -0.2684
     21 C           0.0880    1.9750    0.0000 C.ar    1  LIG1        0.0059
     22 C           0.9380    1.4750    0.0000 C.ar    1  LIG1        0.0168
     23 C           3.3790   -0.2290    0.0000 C.ar    1  LIG1        0.0556
     24 C           3.1210   -1.1880    0.0000 C.ar    1  LIG1        0.0077
     25 C           3.8170   -1.9000    0.0000 C.ar    1  LIG1        0.0370
     26 C           4.7880   -1.6420    0.0000 C.ar    1  LIG1        0.1386
     27 C           5.0420   -0.6710    0.0000 C.ar    1  LIG1        0.0370
     28 C           4.3420    0.0380    0.0000 C.ar    1  LIG1        0.0077
     29 O           5.4960   -2.3420    0.0000 O.3     1  LIG1       -0.4755
     30 C           5.2420   -3.3080    0.0000 C.3     1  LIG1        0.2054
     31 C           5.9460   -4.0210    0.0000 C.3     1  LIG1        0.0473
     32 C           5.6880   -4.9830    0.0000 C.3     1  LIG1        0.0040
     33 O           2.8000    1.4750    0.0000 O.2     1  LIG1       -0.2680
@<TRIPOS>BOND
     1     1     2   am
     2     1    23    1
     3     1    33    2
     4     2     3    1
     5     3     4   ar
     6     3    22   ar
     7     4     5   ar
     8     5     6   ar
     9     6     7    1
    10     6    21   ar
    11     7     8   am
    12     7    20    2
    13     8     9    1
    14     9    10    1
    15    10    11    1
    16    10    15    1
    17    11    12   ar
    18    11    19   ar
    19    12    13    1
    20    12    16   ar
    21    13    14    1
    22    14    15    1
    23    16    17   ar
    24    17    18   ar
    25    18    19   ar
    26    21    22   ar
    27    23    24   ar
    28    23    28   ar
    29    24    25   ar
    30    25    26   ar
    31    26    27   ar
    32    26    29    1
    33    27    28   ar
    34    29    30    1
    35    30    31    1
    36    31    32    1
