@<TRIPOS>MOLECULE
29356_ChemDiv_3389-0885
 28 32 0 0 0
SMALL
GASTEIGER
Energy = 0

@<TRIPOS>ATOM
      1 N           0.8000   -0.6170    0.0000 N.am    1  LIG1       -0.2136
      2 C           0.1080   -1.3040    0.0000 C.2     1  LIG1        0.2555
      3 C           0.5380   -2.2380    0.0000 C.ar    1  LIG1        0.0584
      4 C           1.2580   -2.0290    0.0000 C.ar    1  LIG1        0.0584
      5 C           1.4880   -1.0540    0.0000 C.2     1  LIG1        0.2555
      6 O           2.3880   -0.4500    0.0000 O.2     1  LIG1       -0.2695
      7 C           1.9580   -2.7420    0.0000 C.ar    1  LIG1        0.0047
      8 C           1.7630   -3.7460    0.0000 C.ar    1  LIG1        0.0001
      9 C           0.9540   -3.9420    0.0000 C.ar    1  LIG1        0.0001
     10 C           0.2880   -3.1920    0.0000 C.ar    1  LIG1        0.0047
     11 O          -0.8460   -1.0540    0.0000 O.2     1  LIG1       -0.2695
     12 C           0.8830    0.3880    0.0000 C.3     1  LIG1        0.1871
     13 C          -0.0170    0.8920    0.0000 C.2     1  LIG1        0.2539
     14 N          -0.0170    1.8960    0.0000 N.am    1  LIG1       -0.2350
     15 C          -0.8750    2.4000    0.0000 C.ar    1  LIG1        0.0641
     16 C          -0.8750    3.4460    0.0000 C.ar    1  LIG1        0.0435
     17 S          -0.0170    3.9460    0.0000 S.3     1  LIG1       -0.0844
     18 C           0.8830    3.4460    0.0000 C.ar    1  LIG1        0.0435
     19 C           0.8830    2.4420    0.0000 C.ar    1  LIG1        0.0641
     20 C           1.7920    1.9380    0.0000 C.ar    1  LIG1        0.0157
     21 C           2.6830    2.4420    0.0000 C.ar    1  LIG1        0.0013
     22 C           2.6830    3.4040    0.0000 C.ar    1  LIG1        0.0006
     23 C           1.7920    3.9460    0.0000 C.ar    1  LIG1        0.0077
     24 C          -1.7750    3.9460    0.0000 C.ar    1  LIG1        0.0077
     25 C          -2.6880    3.4460    0.0000 C.ar    1  LIG1        0.0006
     26 C          -2.6880    2.4420    0.0000 C.ar    1  LIG1        0.0013
     27 C          -1.7750    1.8960    0.0000 C.ar    1  LIG1        0.0157
     28 O          -0.9290    0.3250    0.0000 O.2     1  LIG1       -0.2723
@<TRIPOS>BOND
     1     1     2   am
     2     1     5   am
     3     1    12    1
     4     2     3    1
     5     2    11    2
     6     3     4   ar
     7     3    10   ar
     8     4     5    1
     9     4     7   ar
    10     5     6    2
    11     7     8   ar
    12     8     9   ar
    13     9    10   ar
    14    12    13    1
    15    13    14   am
    16    13    28    2
    17    14    15    1
    18    14    19    1
    19    15    16   ar
    20    15    27   ar
    21    16    17    1
    22    16    24   ar
    23    17    18    1
    24    18    19   ar
    25    18    23   ar
    26    19    20   ar
    27    20    21   ar
    28    21    22   ar
    29    22    23   ar
    30    24    25   ar
    31    25    26   ar
    32    26    27   ar
