@<TRIPOS>MOLECULE
29355_ChemDiv_D223-0613
 34 37 0 0 0
SMALL
GASTEIGER
Energy = 0

@<TRIPOS>ATOM
      1 C          -1.4380   -0.4750    0.0000 C.ar    1  LIG1        0.0848
      2 C          -2.0170    0.3420    0.0000 C.ar    1  LIG1        0.0709
      3 C          -2.9710    0.0290    0.0000 C.ar    1  LIG1       -0.0140
      4 C          -2.9710   -0.9750    0.0000 C.ar    1  LIG1        0.0047
      5 S          -2.0290   -1.2790    0.0000 S.2     1  LIG1       -0.0767
      6 C          -3.8380   -1.4710    0.0000 C.3     1  LIG1        0.0327
      7 C          -4.7080   -0.9710    0.0000 C.3     1  LIG1        0.0055
      8 C          -4.7080    0.0290    0.0000 C.3     1  LIG1        0.0050
      9 C          -3.8380    0.5420    0.0000 C.3     1  LIG1        0.0268
     10 C          -1.7130    1.2880    0.0000 C.2     1  LIG1        0.2663
     11 O          -0.7330    1.4920    0.0000 O.2     1  LIG1       -0.2683
     12 N          -2.3790    2.0290    0.0000 N.am    1  LIG1       -0.1989
     13 C          -3.3630    1.8250    0.0000 C.3     1  LIG1        0.1474
     14 C          -4.0290    2.5670    0.0000 C.3     1  LIG1        0.1656
     15 O          -5.0000    2.3630    0.0000 O.3     1  LIG1       -0.3492
     16 C          -5.6670    3.1130    0.0000 C.3     1  LIG1        0.1742
     17 N          -0.4380   -0.4750    0.0000 N.am    1  LIG1       -0.2739
     18 C           0.0630   -1.3380    0.0000 C.2     1  LIG1        0.2725
     19 C           1.0630   -1.3830    0.0000 C.ar    1  LIG1        0.1933
     20 N           1.6000   -0.5380    0.0000 N.ar    1  LIG1       -0.1572
     21 N           2.5920   -0.5790    0.0000 N.ar    1  LIG1       -0.2279
     22 C           3.0580   -1.4580    0.0000 C.ar    1  LIG1        0.1037
     23 C           2.5250   -2.3080    0.0000 C.ar    1  LIG1        0.0645
     24 C           1.5290   -2.2630    0.0000 C.ar    1  LIG1        0.2209
     25 O           0.9960   -3.1080    0.0000 O.2     1  LIG1       -0.2847
     26 C           3.1210    0.2580    0.0000 C.ar    1  LIG1        0.0825
     27 C           4.1210    0.2210    0.0000 C.ar    1  LIG1        0.0149
     28 C           4.6580    1.0580    0.0000 C.ar    1  LIG1       -0.0204
     29 C           4.1960    1.9540    0.0000 C.ar    1  LIG1       -0.0042
     30 C           3.1920    1.9920    0.0000 C.ar    1  LIG1        0.0012
     31 C           2.6500    1.1460    0.0000 C.ar    1  LIG1        0.0191
     32 C           5.6630    1.0130    0.0000 C.3     1  LIG1        0.0311
     33 O          -0.4000   -2.2170    0.0000 O.2     1  LIG1       -0.2680
     34 H           0.0630    0.3880    0.0000 H       1  LIG1        0.1557
@<TRIPOS>BOND
     1     1     2   ar
     2     1     5   ar
     3     1    17    1
     4     2     3   ar
     5     2    10    1
     6     3     4   ar
     7     3     9    1
     8     4     5   ar
     9     4     6    1
    10     6     7    1
    11     7     8    1
    12     8     9    1
    13    10    11    2
    14    10    12   am
    15    12    13    1
    16    13    14    1
    17    14    15    1
    18    15    16    1
    19    17    18   am
    20    17    34    1
    21    18    19    1
    22    18    33    2
    23    19    20   ar
    24    19    24   ar
    25    20    21   ar
    26    21    22   ar
    27    21    26    1
    28    22    23   ar
    29    23    24   ar
    30    24    25    2
    31    26    27   ar
    32    26    31   ar
    33    27    28   ar
    34    28    29   ar
    35    28    32    1
    36    29    30   ar
    37    30    31   ar
