@<TRIPOS>MOLECULE
29352_ChemDiv_3389-0764
 28 31 0 0 0
SMALL
GASTEIGER
Energy = 0

@<TRIPOS>ATOM
      1 S          -0.6880   -2.5000    0.0000 S.O2    1  LIG1        0.0765
      2 N          -0.7290   -1.5170    0.0000 N.pl3   1  LIG1       -0.1925
      3 C          -1.5710   -1.0000    0.0000 C.ar    1  LIG1        0.0663
      4 C          -1.5710    0.0040    0.0000 C.ar    1  LIG1        0.0123
      5 C          -0.7290    0.5130    0.0000 C.3     1  LIG1        0.1175
      6 C           0.1250    0.0040    0.0000 C.3     1  LIG1        0.0477
      7 C           0.1250   -1.0000    0.0000 C.3     1  LIG1        0.0981
      8 C           1.0670   -1.4710    0.0000 C.3     1  LIG1        0.0234
      9 N          -0.6880    1.5040    0.0000 N.pl3   1  LIG1       -0.2348
     10 C          -1.5210    2.0330    0.0000 C.ar    1  LIG1        0.0656
     11 C          -2.3750    1.5420    0.0000 C.ar    1  LIG1        0.0161
     12 C          -3.2210    2.0630    0.0000 C.ar    1  LIG1        0.0013
     13 C          -3.2210    3.0040    0.0000 C.ar    1  LIG1        0.0001
     14 C          -2.3750    3.5330    0.0000 C.ar    1  LIG1        0.0013
     15 C          -1.4830    3.0630    0.0000 C.ar    1  LIG1        0.0161
     16 C          -2.4630    0.5130    0.0000 C.ar    1  LIG1       -0.0013
     17 C          -3.3170    0.0040    0.0000 C.ar    1  LIG1       -0.0002
     18 C          -3.3170   -1.0000    0.0000 C.ar    1  LIG1        0.0013
     19 C          -2.4630   -1.5170    0.0000 C.ar    1  LIG1        0.0159
     20 C           0.3130   -2.5000    0.0000 C.ar    1  LIG1        0.1254
     21 C           0.8710   -1.6460    0.0000 C.ar    1  LIG1        0.0207
     22 C           1.8630   -1.6460    0.0000 C.ar    1  LIG1        0.0081
     23 C           2.3330   -2.5000    0.0000 C.ar    1  LIG1        0.0346
     24 C           1.8130   -3.3540    0.0000 C.ar    1  LIG1        0.0081
     25 C           0.8330   -3.3540    0.0000 C.ar    1  LIG1        0.0207
     26 BR          3.3130   -2.4580    0.0000 Br      1  LIG1       -0.0490
     27 O          -1.7170   -2.5500    0.0000 O.2     1  LIG1       -0.1497
     28 O          -0.6880   -3.5290    0.0000 O.2     1  LIG1       -0.1497
@<TRIPOS>BOND
     1     1     2    1
     2     1    20    1
     3     1    27    2
     4     1    28    2
     5     2     3    1
     6     2     7    1
     7     3     4   ar
     8     3    19   ar
     9     4     5    1
    10     4    16   ar
    11     5     6    1
    12     5     9    1
    13     6     7    1
    14     7     8    1
    15     9    10    1
    16    10    11   ar
    17    10    15   ar
    18    11    12   ar
    19    12    13   ar
    20    13    14   ar
    21    14    15   ar
    22    16    17   ar
    23    17    18   ar
    24    18    19   ar
    25    20    21   ar
    26    20    25   ar
    27    21    22   ar
    28    22    23   ar
    29    23    24   ar
    30    23    26    1
    31    24    25   ar
