@<TRIPOS>MOLECULE
29359_ChemDiv_5867-0841
 32 36 0 0 0
SMALL
GASTEIGER
Energy = 0

@<TRIPOS>ATOM
      1 S           2.4750    2.3960    0.0000 S.O2    1  LIG1        0.0637
      2 N           1.9750    1.5330    0.0000 N.3     1  LIG1       -0.1433
      3 C           2.4880    0.6670    0.0000 C.3     1  LIG1        0.1585
      4 C           1.9880   -0.2080    0.0000 C.3     1  LIG1        0.1586
      5 N           0.9880   -0.1960    0.0000 N.4     1  LIG1        0.3830
      6 C           0.4960   -1.0630    0.0000 C.3     1  LIG1        0.1664
      7 C           1.0040   -1.9290    0.0000 C.ar    1  LIG1        0.0376
      8 C           1.9880   -1.9210    0.0000 C.ar    1  LIG1        0.0416
      9 C           2.5000   -2.7790    0.0000 C.ar    1  LIG1        0.1763
     10 C           2.0040   -3.6420    0.0000 C.ar    1  LIG1        0.1764
     11 O           2.6710   -4.3880    0.0000 O.3     1  LIG1       -0.4346
     12 C           3.5920   -3.9750    0.0000 C.3     1  LIG1        0.4294
     13 O           3.4750   -2.9750    0.0000 O.3     1  LIG1       -0.4346
     14 C           1.0040   -3.6580    0.0000 C.ar    1  LIG1        0.0401
     15 C           0.5000   -2.7920    0.0000 C.ar    1  LIG1        0.0048
     16 C           0.4880    0.6540    0.0000 C.3     1  LIG1        0.1586
     17 C           0.9830    1.5210    0.0000 C.3     1  LIG1        0.1585
     18 C           1.6080    2.9000    0.0000 C.ar    1  LIG1        0.1224
     19 C           0.7380    2.3880    0.0000 C.ar    1  LIG1        0.0230
     20 C          -0.1250    2.8830    0.0000 C.ar    1  LIG1        0.0389
     21 C          -0.1250    3.8830    0.0000 C.ar    1  LIG1        0.1454
     22 O          -1.0000    4.3830    0.0000 O.3     1  LIG1       -0.4535
     23 C          -1.8670    3.8750    0.0000 C.ar    1  LIG1        0.1453
     24 C          -2.7290    4.3710    0.0000 C.ar    1  LIG1        0.0375
     25 C          -3.5960    3.8750    0.0000 C.ar    1  LIG1        0.0031
     26 C          -3.5960    2.8670    0.0000 C.ar    1  LIG1        0.0002
     27 C          -2.7290    2.3670    0.0000 C.ar    1  LIG1        0.0031
     28 C          -1.8670    2.8670    0.0000 C.ar    1  LIG1        0.0375
     29 C           0.7290    4.3880    0.0000 C.ar    1  LIG1        0.0389
     30 C           1.5960    3.9000    0.0000 C.ar    1  LIG1        0.0230
     31 O           2.9710    3.2630    0.0000 O.2     1  LIG1       -0.1528
     32 O           3.3380    1.9000    0.0000 O.2     1  LIG1       -0.1528
@<TRIPOS>BOND
     1     1     2    1
     2     1    18    1
     3     1    31    2
     4     1    32    2
     5     2     3    1
     6     2    17    1
     7     3     4    1
     8     4     5    1
     9     5     6    1
    10     5    16    1
    11     6     7    1
    12     7     8   ar
    13     7    15   ar
    14     8     9   ar
    15     9    10   ar
    16     9    13    1
    17    10    11    1
    18    10    14   ar
    19    11    12    1
    20    12    13    1
    21    14    15   ar
    22    16    17    1
    23    18    19   ar
    24    18    30   ar
    25    19    20   ar
    26    20    21   ar
    27    21    22    1
    28    21    29   ar
    29    22    23    1
    30    23    24   ar
    31    23    28   ar
    32    24    25   ar
    33    25    26   ar
    34    26    27   ar
    35    27    28   ar
    36    29    30   ar
