@<TRIPOS>MOLECULE
29353_ChemDiv_D103-1946
 36 40 0 0 0
SMALL
GASTEIGER
Energy = 0

@<TRIPOS>ATOM
      1 C          -1.7920   -1.1710    0.0000 C.ar    1  LIG1        0.0848
      2 C          -2.3790   -0.3630    0.0000 C.ar    1  LIG1        0.0709
      3 C          -3.3210   -0.6630    0.0000 C.ar    1  LIG1       -0.0140
      4 C          -3.3380   -1.6540    0.0000 C.ar    1  LIG1        0.0047
      5 S          -2.3880   -1.9710    0.0000 S.2     1  LIG1       -0.0767
      6 C          -4.1380   -2.2380    0.0000 C.3     1  LIG1        0.0327
      7 C          -5.0420   -1.8210    0.0000 C.3     1  LIG1        0.0055
      8 C          -5.1420   -0.8380    0.0000 C.3     1  LIG1        0.0050
      9 C          -4.4330   -0.1290    0.0000 C.3     1  LIG1        0.0268
     10 C          -2.0710    0.5880    0.0000 C.2     1  LIG1        0.2665
     11 N          -2.7330    1.3250    0.0000 N.am    1  LIG1       -0.1967
     12 C          -2.4210    2.2630    0.0000 C.3     1  LIG1        0.1433
     13 C          -3.0960    3.0080    0.0000 C.ar    1  LIG1        0.0186
     14 C          -2.7790    3.9420    0.0000 C.ar    1  LIG1        0.0963
     15 N          -3.4420    4.6750    0.0000 N.ar    1  LIG1       -0.2426
     16 C          -4.4210    4.4790    0.0000 C.ar    1  LIG1        0.0989
     17 C          -4.7210    3.5250    0.0000 C.ar    1  LIG1        0.0204
     18 C          -4.0580    2.8000    0.0000 C.ar    1  LIG1        0.0006
     19 O          -1.1000    0.7880    0.0000 O.2     1  LIG1       -0.2683
     20 N          -0.7960   -1.1750    0.0000 N.am    1  LIG1       -0.2728
     21 C          -0.3130   -2.0330    0.0000 C.2     1  LIG1        0.2847
     22 C           0.6830   -2.0460    0.0000 C.ar    1  LIG1        0.2017
     23 C           1.1880   -1.1880    0.0000 C.ar    1  LIG1        0.0843
     24 C           2.1880   -1.2040    0.0000 C.ar    1  LIG1        0.2018
     25 C           2.6710   -2.0710    0.0000 C.ar    1  LIG1        0.0732
     26 C           2.1580   -2.9210    0.0000 C.ar    1  LIG1        0.1482
     27 O           1.1750   -2.9170    0.0000 O.2     1  LIG1       -0.4487
     28 C           2.6380   -3.7920    0.0000 C.ar    1  LIG1        0.0330
     29 C           3.6330   -3.8080    0.0000 C.ar    1  LIG1       -0.0228
     30 C           4.1460   -2.9500    0.0000 C.ar    1  LIG1       -0.0255
     31 C           3.6630   -2.0790    0.0000 C.ar    1  LIG1        0.0017
     32 C           5.1380   -2.9630    0.0000 C.3     1  LIG1        0.0307
     33 C           4.1130   -4.6750    0.0000 C.3     1  LIG1        0.0308
     34 O           2.6960   -0.3460    0.0000 O.2     1  LIG1       -0.2864
     35 O          -0.8080   -2.9000    0.0000 O.2     1  LIG1       -0.2664
     36 H          -0.3000   -0.3170    0.0000 H       1  LIG1        0.1557
@<TRIPOS>BOND
     1     1     2   ar
     2     1     5   ar
     3     1    20    1
     4     2     3   ar
     5     2    10    1
     6     3     4   ar
     7     3     9    1
     8     4     5   ar
     9     4     6    1
    10     6     7    1
    11     7     8    1
    12     8     9    1
    13    10    11   am
    14    10    19    2
    15    11    12    1
    16    12    13    1
    17    13    14   ar
    18    13    18   ar
    19    14    15   ar
    20    15    16   ar
    21    16    17   ar
    22    17    18   ar
    23    20    21   am
    24    20    36    1
    25    21    22    1
    26    21    35    2
    27    22    23   ar
    28    22    27   ar
    29    23    24   ar
    30    24    25   ar
    31    24    34    2
    32    25    26   ar
    33    25    31   ar
    34    26    27   ar
    35    26    28   ar
    36    28    29   ar
    37    29    30   ar
    38    29    33    1
    39    30    31   ar
    40    30    32    1
