@<TRIPOS>MOLECULE
29354_ChemDiv_3389-0771
 27 30 0 0 0
SMALL
GASTEIGER
Energy = 0

@<TRIPOS>ATOM
      1 S          -0.0080    1.2290    0.0000 S.O2    1  LIG1        0.0801
      2 N          -0.0080    2.2500    0.0000 N.pl3   1  LIG1       -0.1683
      3 C           0.8460    2.7460    0.0000 C.ar    1  LIG1        0.0796
      4 C           0.8460    3.7830    0.0000 C.ar    1  LIG1        0.0448
      5 S          -0.0080    4.2670    0.0000 S.3     1  LIG1       -0.0843
      6 C          -0.8670    3.7830    0.0000 C.ar    1  LIG1        0.0448
      7 C          -0.8670    2.7460    0.0000 C.ar    1  LIG1        0.0796
      8 C          -1.7130    2.2500    0.0000 C.ar    1  LIG1        0.0170
      9 C          -2.5630    2.7460    0.0000 C.ar    1  LIG1        0.0014
     10 C          -2.5630    3.7830    0.0000 C.ar    1  LIG1        0.0006
     11 C          -1.7130    4.2670    0.0000 C.ar    1  LIG1        0.0078
     12 C           1.7080    4.2670    0.0000 C.ar    1  LIG1        0.0078
     13 C           2.5580    3.7830    0.0000 C.ar    1  LIG1        0.0006
     14 C           2.5580    2.7460    0.0000 C.ar    1  LIG1        0.0014
     15 C           1.7080    2.2500    0.0000 C.ar    1  LIG1        0.0170
     16 C          -0.0080    0.2250    0.0000 C.ar    1  LIG1        0.1258
     17 C           0.8460   -0.2580    0.0000 C.ar    1  LIG1        0.0215
     18 C           0.8460   -1.2420    0.0000 C.ar    1  LIG1        0.0180
     19 C          -0.0080   -1.7500    0.0000 C.ar    1  LIG1        0.0734
     20 N          -0.0080   -2.7790    0.0000 N.am    1  LIG1       -0.1792
     21 C           0.8460   -3.2670    0.0000 C.2     1  LIG1        0.2461
     22 O           0.8460   -4.2670    0.0000 O.2     1  LIG1       -0.2730
     23 C           1.7080   -2.7790    0.0000 C.3     1  LIG1        0.0968
     24 C          -0.8670   -1.2420    0.0000 C.ar    1  LIG1        0.0180
     25 C          -0.8670   -0.2580    0.0000 C.ar    1  LIG1        0.0215
     26 O           1.0330    1.2290    0.0000 O.2     1  LIG1       -0.1494
     27 O          -1.0380    1.2290    0.0000 O.2     1  LIG1       -0.1494
@<TRIPOS>BOND
     1     1     2    1
     2     1    16    1
     3     1    26    2
     4     1    27    2
     5     2     3    1
     6     2     7    1
     7     3     4   ar
     8     3    15   ar
     9     4     5    1
    10     4    12   ar
    11     5     6    1
    12     6     7   ar
    13     6    11   ar
    14     7     8   ar
    15     8     9   ar
    16     9    10   ar
    17    10    11   ar
    18    12    13   ar
    19    13    14   ar
    20    14    15   ar
    21    16    17   ar
    22    16    25   ar
    23    17    18   ar
    24    18    19   ar
    25    19    20    1
    26    19    24   ar
    27    20    21   am
    28    21    22    2
    29    21    23    1
    30    24    25   ar
