@<TRIPOS>MOLECULE
29357_ChemDiv_3330-0599
 29 33 0 0 0
SMALL
GASTEIGER
Energy = 0

@<TRIPOS>ATOM
      1 S          -1.6080    0.2880    0.0000 S.O2    1  LIG1        0.0651
      2 C          -2.5920    0.0580    0.0000 C.ar    1  LIG1        0.1397
      3 C          -3.2790    0.7790    0.0000 C.ar    1  LIG1        0.0998
      4 N          -3.0290    1.7380    0.0000 N.ar    1  LIG1       -0.2425
      5 C          -3.7500    2.4580    0.0000 C.ar    1  LIG1        0.0989
      6 C          -4.7130    2.2000    0.0000 C.ar    1  LIG1        0.0207
      7 C          -4.9710    1.2380    0.0000 C.ar    1  LIG1        0.0031
      8 C          -4.2710    0.5210    0.0000 C.ar    1  LIG1        0.0190
      9 C          -4.5250   -0.4420    0.0000 C.ar    1  LIG1        0.0016
     10 C          -3.8210   -1.1540    0.0000 C.ar    1  LIG1        0.0015
     11 C          -2.8460   -0.8830    0.0000 C.ar    1  LIG1        0.0215
     12 N          -0.6380    0.5210    0.0000 N.3     1  LIG1       -0.1433
     13 C          -0.3460    1.4880    0.0000 C.3     1  LIG1        0.1585
     14 C           0.6250    1.7170    0.0000 C.3     1  LIG1        0.1586
     15 N           1.3130    1.0080    0.0000 N.4     1  LIG1        0.3830
     16 C           2.2920    1.2540    0.0000 C.3     1  LIG1        0.1664
     17 C           3.0000    0.5210    0.0000 C.ar    1  LIG1        0.0376
     18 C           2.7500   -0.4250    0.0000 C.ar    1  LIG1        0.0416
     19 C           3.4580   -1.1330    0.0000 C.ar    1  LIG1        0.1763
     20 C           4.4130   -0.8580    0.0000 C.ar    1  LIG1        0.1764
     21 O           4.9670   -1.6500    0.0000 O.3     1  LIG1       -0.4346
     22 C           4.3920   -2.4540    0.0000 C.3     1  LIG1        0.4294
     23 O           3.4130   -2.1210    0.0000 O.3     1  LIG1       -0.4346
     24 C           4.6790    0.0880    0.0000 C.ar    1  LIG1        0.0401
     25 C           3.9580    0.8040    0.0000 C.ar    1  LIG1        0.0048
     26 C           1.0330    0.0380    0.0000 C.3     1  LIG1        0.1586
     27 C           0.0500   -0.1960    0.0000 C.3     1  LIG1        0.1585
     28 O          -1.8420    1.2790    0.0000 O.2     1  LIG1       -0.1527
     29 O          -1.3790   -0.6710    0.0000 O.2     1  LIG1       -0.1527
@<TRIPOS>BOND
     1     1     2    1
     2     1    12    1
     3     1    28    2
     4     1    29    2
     5     2     3   ar
     6     2    11   ar
     7     3     4   ar
     8     3     8   ar
     9     4     5   ar
    10     5     6   ar
    11     6     7   ar
    12     7     8   ar
    13     8     9   ar
    14     9    10   ar
    15    10    11   ar
    16    12    13    1
    17    12    27    1
    18    13    14    1
    19    14    15    1
    20    15    16    1
    21    15    26    1
    22    16    17    1
    23    17    18   ar
    24    17    25   ar
    25    18    19   ar
    26    19    20   ar
    27    19    23    1
    28    20    21    1
    29    20    24   ar
    30    21    22    1
    31    22    23    1
    32    24    25   ar
    33    26    27    1
