@<TRIPOS>MOLECULE
29351_ChemDiv_D103-1798
 29 32 0 0 0
SMALL
GASTEIGER
Energy = 0

@<TRIPOS>ATOM
      1 C          -1.3580    0.5130    0.0000 C.ar    1  LIG1        0.0849
      2 C          -1.9500    1.3250    0.0000 C.ar    1  LIG1        0.0725
      3 C          -2.8920    1.0210    0.0000 C.ar    1  LIG1       -0.0140
      4 C          -2.9040    0.0210    0.0000 C.ar    1  LIG1        0.0047
      5 S          -1.9540   -0.2960    0.0000 S.2     1  LIG1       -0.0767
      6 C          -3.7670   -0.4710    0.0000 C.3     1  LIG1        0.0327
      7 C          -4.6290    0.0380    0.0000 C.3     1  LIG1        0.0055
      8 C          -4.6210    1.0380    0.0000 C.3     1  LIG1        0.0050
      9 C          -3.7500    1.5210    0.0000 C.3     1  LIG1        0.0268
     10 C          -1.6380    2.2790    0.0000 C.2     1  LIG1        0.2856
     11 O          -2.3040    3.0210    0.0000 O.2     1  LIG1       -0.2666
     12 N          -0.6630    2.4830    0.0000 N.am    1  LIG1       -0.0837
     13 N          -0.3580    0.5080    0.0000 N.am    1  LIG1       -0.2728
     14 C           0.1380   -0.3580    0.0000 C.2     1  LIG1        0.2847
     15 C           1.1380   -0.3710    0.0000 C.ar    1  LIG1        0.2017
     16 O           1.6250   -1.2460    0.0000 O.2     1  LIG1       -0.4490
     17 C           2.6210   -1.2500    0.0000 C.ar    1  LIG1        0.1442
     18 C           3.1380   -0.3960    0.0000 C.ar    1  LIG1        0.0732
     19 C           2.6500    0.4750    0.0000 C.ar    1  LIG1        0.2018
     20 C           1.6420    0.4920    0.0000 C.ar    1  LIG1        0.0843
     21 O           3.1580    1.3420    0.0000 O.2     1  LIG1       -0.2864
     22 C           4.1380   -0.4000    0.0000 C.ar    1  LIG1        0.0059
     23 C           4.6250   -1.2790    0.0000 C.ar    1  LIG1       -0.0043
     24 C           4.1130   -2.1460    0.0000 C.ar    1  LIG1       -0.0229
     25 C           3.1130   -2.1290    0.0000 C.ar    1  LIG1        0.0089
     26 C           2.5960   -2.9790    0.0000 C.3     1  LIG1        0.0339
     27 C           4.5960   -3.0170    0.0000 C.3     1  LIG1        0.0308
     28 O          -0.3630   -1.2290    0.0000 O.2     1  LIG1       -0.2664
     29 H           0.1420    1.3710    0.0000 H       1  LIG1        0.1557
@<TRIPOS>BOND
     1     1     2   ar
     2     1     5   ar
     3     1    13    1
     4     2     3   ar
     5     2    10    1
     6     3     4   ar
     7     3     9    1
     8     4     5   ar
     9     4     6    1
    10     6     7    1
    11     7     8    1
    12     8     9    1
    13    10    11    2
    14    10    12   am
    15    13    14   am
    16    13    29    1
    17    14    15    1
    18    14    28    2
    19    15    16   ar
    20    15    20   ar
    21    16    17   ar
    22    17    18   ar
    23    17    25   ar
    24    18    19   ar
    25    18    22   ar
    26    19    20   ar
    27    19    21    2
    28    22    23   ar
    29    23    24   ar
    30    24    25   ar
    31    24    27    1
    32    25    26    1
