@<TRIPOS>MOLECULE
29367_ChemDiv_3448-5501
 26 28 0 0 0
SMALL
GASTEIGER
Energy = 0

@<TRIPOS>ATOM
      1 C          -1.4830   -0.7080    0.0000 C.ar    1  LIG1        0.1090
      2 C          -2.4880   -0.5630    0.0000 C.ar    1  LIG1        0.1278
      3 N          -2.9080   -1.4750    0.0000 N.ar    1  LIG1       -0.0772
      4 O          -2.2130   -2.1710    0.0000 O.2     1  LIG1       -0.3576
      5 C          -1.3330   -1.6920    0.0000 C.ar    1  LIG1        0.1592
      6 C          -0.4290   -2.1500    0.0000 C.3     1  LIG1        0.0755
      7 C          -2.9540    0.3080    0.0000 C.ar    1  LIG1        0.0316
      8 C          -3.9380    0.3250    0.0000 C.ar    1  LIG1        0.0592
      9 CL         -4.4420   -0.5290    0.0000 Cl      1  LIG1       -0.0822
     10 C          -4.4290    1.1790    0.0000 C.ar    1  LIG1        0.0114
     11 C          -3.9500    2.0420    0.0000 C.ar    1  LIG1        0.0009
     12 C          -2.9540    2.0250    0.0000 C.ar    1  LIG1        0.0001
     13 C          -2.4630    1.1710    0.0000 C.ar    1  LIG1        0.0024
     14 C          -0.7210   -0.0710    0.0000 C.2     1  LIG1        0.2733
     15 N           0.2380   -0.4170    0.0000 N.am    1  LIG1       -0.1753
     16 C           0.9960    0.2250    0.0000 C.ar    1  LIG1        0.0739
     17 C           1.9330   -0.1170    0.0000 C.ar    1  LIG1        0.0209
     18 C           2.7170    0.5210    0.0000 C.ar    1  LIG1        0.0542
     19 C           3.6830    0.1880    0.0000 C.2     1  LIG1        0.0760
     20 O           4.4380    0.8250    0.0000 O.co2   1  LIG1       -0.5445
     21 O           3.8710   -0.8080    0.0000 O.co2   1  LIG1       -0.5445
     22 C           2.5460    1.5170    0.0000 C.ar    1  LIG1        0.1968
     23 C           1.5880    1.8540    0.0000 C.ar    1  LIG1        0.0434
     24 C           0.8250    1.2080    0.0000 C.ar    1  LIG1        0.0199
     25 O           3.3330    2.1750    0.0000 O.3     1  LIG1       -0.2865
     26 O          -0.8710    0.9130    0.0000 O.2     1  LIG1       -0.2679
@<TRIPOS>BOND
     1     1     2   ar
     2     1     5   ar
     3     1    14    1
     4     2     3   ar
     5     2     7    1
     6     3     4   ar
     7     4     5   ar
     8     5     6    1
     9     7     8   ar
    10     7    13   ar
    11     8     9    1
    12     8    10   ar
    13    10    11   ar
    14    11    12   ar
    15    12    13   ar
    16    14    15   am
    17    14    26    2
    18    15    16    1
    19    16    17   ar
    20    16    24   ar
    21    17    18   ar
    22    18    19    1
    23    18    22   ar
    24    19    20   ar
    25    19    21   ar
    26    22    23   ar
    27    22    25    1
    28    23    24   ar
