@<TRIPOS>MOLECULE
29364_ChemDiv_6136-0076
 28 31 0 0 0
SMALL
GASTEIGER
Energy = 0

@<TRIPOS>ATOM
      1 C           3.2330   -1.1750    0.0000 C.2     1  LIG1        0.3037
      2 C           3.9460   -1.8880    0.0000 C.ar    1  LIG1        0.2005
      3 O           3.7920   -2.8710    0.0000 O.2     1  LIG1       -0.4457
      4 C           4.6830   -3.3250    0.0000 C.ar    1  LIG1        0.1798
      5 C           5.3830   -2.6130    0.0000 C.ar    1  LIG1        0.0440
      6 C           4.9290   -1.7290    0.0000 C.ar    1  LIG1        0.0455
      7 N           2.3710   -1.6830    0.0000 N.am    1  LIG1       -0.1728
      8 C           1.5080   -1.1830    0.0000 C.ar    1  LIG1        0.0738
      9 C           1.5080   -0.1750    0.0000 C.ar    1  LIG1        0.0168
     10 C           0.6460    0.3170    0.0000 C.ar    1  LIG1        0.0059
     11 C          -0.2080   -0.1830    0.0000 C.ar    1  LIG1        0.0551
     12 C          -1.0710    0.3170    0.0000 C.2     1  LIG1        0.2649
     13 N          -1.9330   -0.1880    0.0000 N.am    1  LIG1       -0.1987
     14 C          -2.8000    0.3080    0.0000 C.3     1  LIG1        0.1494
     15 C          -2.7920    1.3080    0.0000 C.3     1  LIG1        0.1587
     16 C          -3.6630    1.8080    0.0000 C.ar    1  LIG1        0.0024
     17 C          -3.6580    2.8250    0.0000 C.ar    1  LIG1       -0.0213
     18 C          -2.7920    3.3290    0.0000 C.3     1  LIG1        0.0582
     19 C          -1.9170    2.8250    0.0000 C.3     1  LIG1        0.1472
     20 O          -1.9170    1.8080    0.0000 O.3     1  LIG1       -0.3497
     21 C          -4.5250    3.3250    0.0000 C.ar    1  LIG1       -0.0044
     22 C          -5.3880    2.8130    0.0000 C.ar    1  LIG1       -0.0003
     23 C          -5.3880    1.8130    0.0000 C.ar    1  LIG1       -0.0003
     24 C          -4.5250    1.3130    0.0000 C.ar    1  LIG1       -0.0022
     25 O          -1.0830    1.3130    0.0000 O.2     1  LIG1       -0.2684
     26 C          -0.2210   -1.1750    0.0000 C.ar    1  LIG1        0.0059
     27 C           0.6460   -1.6750    0.0000 C.ar    1  LIG1        0.0168
     28 O           3.3670   -0.1830    0.0000 O.2     1  LIG1       -0.2646
@<TRIPOS>BOND
     1     1     2    1
     2     1     7   am
     3     1    28    2
     4     2     3   ar
     5     2     6   ar
     6     3     4   ar
     7     4     5   ar
     8     5     6   ar
     9     7     8    1
    10     8     9   ar
    11     8    27   ar
    12     9    10   ar
    13    10    11   ar
    14    11    12    1
    15    11    26   ar
    16    12    13   am
    17    12    25    2
    18    13    14    1
    19    14    15    1
    20    15    16    1
    21    15    20    1
    22    16    17   ar
    23    16    24   ar
    24    17    18    1
    25    17    21   ar
    26    18    19    1
    27    19    20    1
    28    21    22   ar
    29    22    23   ar
    30    23    24   ar
    31    26    27   ar
