@<TRIPOS>MOLECULE
29368_ChemDiv_6504-0218
 21 23 0 0 0
SMALL
GASTEIGER
Energy = 0

@<TRIPOS>ATOM
      1 C           0.4290   -0.4960    0.0000 C.2     1  LIG1        0.2649
      2 N          -0.4380   -0.9960    0.0000 N.am    1  LIG1       -0.1987
      3 C          -1.3040   -0.4960    0.0000 C.3     1  LIG1        0.1494
      4 C          -1.3040    0.5000    0.0000 C.3     1  LIG1        0.1587
      5 C          -2.1710    1.0000    0.0000 C.ar    1  LIG1        0.0024
      6 C          -2.1710    2.0000    0.0000 C.ar    1  LIG1       -0.0213
      7 C          -1.3040    2.5000    0.0000 C.3     1  LIG1        0.0582
      8 C          -0.4380    2.0000    0.0000 C.3     1  LIG1        0.1472
      9 O          -0.4380    1.0000    0.0000 O.3     1  LIG1       -0.3497
     10 C          -3.0420    2.5000    0.0000 C.ar    1  LIG1       -0.0044
     11 C          -3.9000    2.0000    0.0000 C.ar    1  LIG1       -0.0003
     12 C          -3.9000    1.0000    0.0000 C.ar    1  LIG1       -0.0003
     13 C          -3.0420    0.5000    0.0000 C.ar    1  LIG1       -0.0022
     14 C           1.2960   -0.9960    0.0000 C.ar    1  LIG1        0.0550
     15 C           1.2960   -1.9920    0.0000 C.ar    1  LIG1        0.0042
     16 C           2.1630   -2.4960    0.0000 C.ar    1  LIG1       -0.0041
     17 C           3.0330   -1.9920    0.0000 C.ar    1  LIG1       -0.0218
     18 C           3.0330   -0.9960    0.0000 C.ar    1  LIG1       -0.0041
     19 C           2.1630   -0.4960    0.0000 C.ar    1  LIG1        0.0042
     20 C           3.8960   -2.4920    0.0000 C.3     1  LIG1        0.0310
     21 O           0.4290    0.5000    0.0000 O.2     1  LIG1       -0.2684
@<TRIPOS>BOND
     1     1     2   am
     2     1    14    1
     3     1    21    2
     4     2     3    1
     5     3     4    1
     6     4     5    1
     7     4     9    1
     8     5     6   ar
     9     5    13   ar
    10     6     7    1
    11     6    10   ar
    12     7     8    1
    13     8     9    1
    14    10    11   ar
    15    11    12   ar
    16    12    13   ar
    17    14    15   ar
    18    14    19   ar
    19    15    16   ar
    20    16    17   ar
    21    17    18   ar
    22    17    20    1
    23    18    19   ar
