@<TRIPOS>MOLECULE
29362_ChemDiv_6136-0074
 30 33 0 0 0
SMALL
GASTEIGER
Energy = 0

@<TRIPOS>ATOM
      1 C           2.6380   -1.0630    0.0000 C.2     1  LIG1        0.2690
      2 N           1.7750   -1.5710    0.0000 N.am    1  LIG1       -0.1754
      3 C           0.9130   -1.0710    0.0000 C.ar    1  LIG1        0.0737
      4 C           0.9130   -0.0630    0.0000 C.ar    1  LIG1        0.0168
      5 C           0.0500    0.4290    0.0000 C.ar    1  LIG1        0.0059
      6 C          -0.8040   -0.0710    0.0000 C.ar    1  LIG1        0.0551
      7 C          -1.6670    0.4290    0.0000 C.2     1  LIG1        0.2649
      8 N          -2.5290   -0.0750    0.0000 N.am    1  LIG1       -0.1987
      9 C          -3.3920    0.4250    0.0000 C.3     1  LIG1        0.1494
     10 C          -3.3880    1.4250    0.0000 C.3     1  LIG1        0.1587
     11 C          -4.2580    1.9210    0.0000 C.ar    1  LIG1        0.0024
     12 C          -4.2500    2.9380    0.0000 C.ar    1  LIG1       -0.0213
     13 C          -3.3880    3.4420    0.0000 C.3     1  LIG1        0.0582
     14 C          -2.5130    2.9380    0.0000 C.3     1  LIG1        0.1472
     15 O          -2.5130    1.9210    0.0000 O.3     1  LIG1       -0.3497
     16 C          -5.1210    3.4380    0.0000 C.ar    1  LIG1       -0.0044
     17 C          -5.9830    2.9290    0.0000 C.ar    1  LIG1       -0.0003
     18 C          -5.9830    1.9290    0.0000 C.ar    1  LIG1       -0.0003
     19 C          -5.1210    1.4290    0.0000 C.ar    1  LIG1       -0.0022
     20 O          -1.6790    1.4290    0.0000 O.2     1  LIG1       -0.2684
     21 C          -0.8130   -1.0630    0.0000 C.ar    1  LIG1        0.0059
     22 C           0.0500   -1.5580    0.0000 C.ar    1  LIG1        0.0168
     23 C           3.3500   -1.7710    0.0000 C.ar    1  LIG1        0.0559
     24 C           4.3040   -1.5080    0.0000 C.ar    1  LIG1        0.0113
     25 C           5.0170   -2.2130    0.0000 C.ar    1  LIG1        0.0347
     26 BR          5.9790   -1.9500    0.0000 Br      1  LIG1       -0.0490
     27 C           4.7580   -3.1790    0.0000 C.ar    1  LIG1        0.0067
     28 C           3.7880   -3.4380    0.0000 C.ar    1  LIG1        0.0007
     29 C           3.0880   -2.7380    0.0000 C.ar    1  LIG1        0.0046
     30 O           2.7710   -0.0710    0.0000 O.2     1  LIG1       -0.2680
@<TRIPOS>BOND
     1     1     2   am
     2     1    23    1
     3     1    30    2
     4     2     3    1
     5     3     4   ar
     6     3    22   ar
     7     4     5   ar
     8     5     6   ar
     9     6     7    1
    10     6    21   ar
    11     7     8   am
    12     7    20    2
    13     8     9    1
    14     9    10    1
    15    10    11    1
    16    10    15    1
    17    11    12   ar
    18    11    19   ar
    19    12    13    1
    20    12    16   ar
    21    13    14    1
    22    14    15    1
    23    16    17   ar
    24    17    18   ar
    25    18    19   ar
    26    21    22   ar
    27    23    24   ar
    28    23    29   ar
    29    24    25   ar
    30    25    26    1
    31    25    27   ar
    32    27    28   ar
    33    28    29   ar
