@<TRIPOS>MOLECULE
29366_ChemDiv_6136-0081
 31 34 0 0 0
SMALL
GASTEIGER
Energy = 0

@<TRIPOS>ATOM
      1 C          -1.5750   -0.4040    0.0000 C.2     1  LIG1        0.2649
      2 N          -2.4380   -0.9170    0.0000 N.am    1  LIG1       -0.1987
      3 C          -3.3080   -0.4170    0.0000 C.3     1  LIG1        0.1494
      4 C          -3.2960    0.5920    0.0000 C.3     1  LIG1        0.1587
      5 C          -4.1670    1.0880    0.0000 C.ar    1  LIG1        0.0024
      6 C          -4.1540    2.0960    0.0000 C.ar    1  LIG1       -0.0213
      7 C          -3.2920    2.6080    0.0000 C.3     1  LIG1        0.0582
      8 C          -2.4170    2.0960    0.0000 C.3     1  LIG1        0.1472
      9 O          -2.4170    1.0880    0.0000 O.3     1  LIG1       -0.3497
     10 C          -5.0250    2.5960    0.0000 C.ar    1  LIG1       -0.0044
     11 C          -5.8880    2.0880    0.0000 C.ar    1  LIG1       -0.0003
     12 C          -5.8880    1.0880    0.0000 C.ar    1  LIG1       -0.0003
     13 C          -5.0250    0.5920    0.0000 C.ar    1  LIG1       -0.0022
     14 C          -0.7170   -0.9130    0.0000 C.ar    1  LIG1        0.0551
     15 C           0.1420   -0.4040    0.0000 C.ar    1  LIG1        0.0059
     16 C           1.0040   -0.9000    0.0000 C.ar    1  LIG1        0.0167
     17 C           1.0130   -1.9130    0.0000 C.ar    1  LIG1        0.0735
     18 N           1.8750   -2.4080    0.0000 N.am    1  LIG1       -0.1761
     19 C           2.7330   -1.9040    0.0000 C.2     1  LIG1        0.2901
     20 O           2.8670   -0.9130    0.0000 O.2     1  LIG1       -0.2689
     21 C           3.4420   -2.6040    0.0000 C.3     1  LIG1        0.2915
     22 O           4.4080   -2.3500    0.0000 O.3     1  LIG1       -0.4656
     23 C           4.6630   -1.3830    0.0000 C.ar    1  LIG1        0.1393
     24 C           5.6290   -1.1210    0.0000 C.ar    1  LIG1        0.0369
     25 C           5.8830   -0.1580    0.0000 C.ar    1  LIG1        0.0031
     26 C           5.1750    0.5460    0.0000 C.ar    1  LIG1        0.0002
     27 C           4.2080    0.2790    0.0000 C.ar    1  LIG1        0.0031
     28 C           3.9540   -0.6750    0.0000 C.ar    1  LIG1        0.0369
     29 C           0.1420   -2.4040    0.0000 C.ar    1  LIG1        0.0167
     30 C          -0.7170   -1.9040    0.0000 C.ar    1  LIG1        0.0059
     31 O          -1.5790    0.5920    0.0000 O.2     1  LIG1       -0.2684
@<TRIPOS>BOND
     1     1     2   am
     2     1    14    1
     3     1    31    2
     4     2     3    1
     5     3     4    1
     6     4     5    1
     7     4     9    1
     8     5     6   ar
     9     5    13   ar
    10     6     7    1
    11     6    10   ar
    12     7     8    1
    13     8     9    1
    14    10    11   ar
    15    11    12   ar
    16    12    13   ar
    17    14    15   ar
    18    14    30   ar
    19    15    16   ar
    20    16    17   ar
    21    17    18    1
    22    17    29   ar
    23    18    19   am
    24    19    20    2
    25    19    21    1
    26    21    22    1
    27    22    23    1
    28    23    24   ar
    29    23    28   ar
    30    24    25   ar
    31    25    26   ar
    32    26    27   ar
    33    27    28   ar
    34    29    30   ar
