@<TRIPOS>MOLECULE
29360_ChemDiv_3389-1409
 33 37 0 0 0
SMALL
GASTEIGER
Energy = 0

@<TRIPOS>ATOM
      1 N          -0.5790   -1.7830    0.0000 N.am    1  LIG1       -0.2207
      2 C          -1.3380   -2.4080    0.0000 C.2     1  LIG1        0.2317
      3 C          -1.0130   -3.2210    0.0000 C.3     1  LIG1        0.0857
      4 C          -0.0130   -3.1290    0.0000 C.3     1  LIG1        0.0857
      5 C           0.2040   -2.3250    0.0000 C.2     1  LIG1        0.2317
      6 O           1.1540   -1.8580    0.0000 O.2     1  LIG1       -0.2745
      7 C           0.5290   -4.0830    0.0000 C.3     1  LIG1        0.0096
      8 C           0.1420   -4.9500    0.0000 C.3     1  LIG1        0.0005
      9 C          -0.9420   -5.0040    0.0000 C.3     1  LIG1        0.0005
     10 C          -1.4170   -4.1920    0.0000 C.3     1  LIG1        0.0096
     11 O          -2.4210   -2.0750    0.0000 O.2     1  LIG1       -0.2745
     12 C          -0.6330   -0.7460    0.0000 C.3     1  LIG1        0.1861
     13 C           0.1790   -0.2040    0.0000 C.2     1  LIG1        0.2499
     14 N           0.1710    0.7710    0.0000 N.am    1  LIG1       -0.2607
     15 C           0.9920    1.2210    0.0000 C.3     1  LIG1        0.0651
     16 C           0.9920    2.1750    0.0000 C.3     1  LIG1        0.0267
     17 C           0.1710    2.6830    0.0000 C.3     1  LIG1        0.0404
     18 C          -0.6880    2.1750    0.0000 C.ar    1  LIG1       -0.0053
     19 C          -0.6880    1.2210    0.0000 C.ar    1  LIG1        0.0500
     20 C          -1.5000    0.7710    0.0000 C.ar    1  LIG1        0.0146
     21 C          -2.3210    1.2210    0.0000 C.ar    1  LIG1        0.0013
     22 C          -2.3210    2.1750    0.0000 C.ar    1  LIG1       -0.0002
     23 C          -1.5000    2.6830    0.0000 C.ar    1  LIG1       -0.0027
     24 C           0.8210    3.3880    0.0000 C.ar    1  LIG1       -0.0189
     25 C           1.7500    3.1250    0.0000 C.ar    1  LIG1       -0.0040
     26 C           2.4170    3.8710    0.0000 C.ar    1  LIG1       -0.0003
     27 C           2.1290    4.7880    0.0000 C.ar    1  LIG1       -0.0000
     28 C           1.1790    5.0040    0.0000 C.ar    1  LIG1       -0.0003
     29 C           0.5290    4.3000    0.0000 C.ar    1  LIG1       -0.0040
     30 C          -0.7710    3.4750    0.0000 C.3     1  LIG1        0.0089
     31 C           2.1540    1.7080    0.0000 C.3     1  LIG1        0.0203
     32 C           2.0750    0.6630    0.0000 C.3     1  LIG1        0.0203
     33 O           1.0380   -0.7750    0.0000 O.2     1  LIG1       -0.2727
@<TRIPOS>BOND
     1     1     2   am
     2     1     5   am
     3     1    12    1
     4     2     3    1
     5     2    11    2
     6     3     4    1
     7     3    10    1
     8     4     5    1
     9     4     7    1
    10     5     6    2
    11     7     8    1
    12     8     9    1
    13     9    10    1
    14    12    13    1
    15    13    14   am
    16    13    33    2
    17    14    15    1
    18    14    19    1
    19    15    16    1
    20    15    31    1
    21    15    32    1
    22    16    17    1
    23    17    18    1
    24    17    24    1
    25    17    30    1
    26    18    19   ar
    27    18    23   ar
    28    19    20   ar
    29    20    21   ar
    30    21    22   ar
    31    22    23   ar
    32    24    25   ar
    33    24    29   ar
    34    25    26   ar
    35    26    27   ar
    36    27    28   ar
    37    28    29   ar
