@<TRIPOS>MOLECULE
29377_ChemDiv_C113-0185
 28 32 0 0 0
SMALL
GASTEIGER
Energy = 0

@<TRIPOS>ATOM
      1 S           0.4880    2.0500    0.0000 S.O2    1  LIG1        0.0653
      2 C           0.4880    3.0460    0.0000 C.ar    1  LIG1        0.1446
      3 C           1.3500    3.5460    0.0000 C.ar    1  LIG1        0.1616
      4 C           1.3500    4.5420    0.0000 C.ar    1  LIG1        0.1445
      5 N           2.2960    4.8460    0.0000 N.ar    1  LIG1       -0.0482
      6 O           2.8790    4.0420    0.0000 O.2     1  LIG1       -0.2415
      7 N           2.2960    3.2460    0.0000 N.ar    1  LIG1       -0.0469
      8 C           0.4880    5.0380    0.0000 C.ar    1  LIG1        0.0242
      9 C          -0.3790    4.5420    0.0000 C.ar    1  LIG1        0.0031
     10 C          -0.3790    3.5460    0.0000 C.ar    1  LIG1        0.0217
     11 N           0.4880    1.0500    0.0000 N.3     1  LIG1       -0.1433
     12 C          -0.3790    0.5500    0.0000 C.3     1  LIG1        0.1585
     13 C          -0.3790   -0.4460    0.0000 C.3     1  LIG1        0.1586
     14 N           0.4880   -0.9500    0.0000 N.4     1  LIG1        0.3830
     15 C           0.4710   -1.9460    0.0000 C.3     1  LIG1        0.1664
     16 C          -0.3920   -2.4420    0.0000 C.ar    1  LIG1        0.0376
     17 C          -0.3920   -3.4460    0.0000 C.ar    1  LIG1        0.0416
     18 C          -1.2580   -3.9460    0.0000 C.ar    1  LIG1        0.1763
     19 C          -2.1420   -3.4290    0.0000 C.ar    1  LIG1        0.1764
     20 O          -2.8830   -4.1130    0.0000 O.3     1  LIG1       -0.4346
     21 C          -2.4580   -5.0380    0.0000 C.3     1  LIG1        0.4294
     22 O          -1.4790   -4.9290    0.0000 O.3     1  LIG1       -0.4346
     23 C          -2.1250   -2.4290    0.0000 C.ar    1  LIG1        0.0401
     24 C          -1.2580   -1.9290    0.0000 C.ar    1  LIG1        0.0048
     25 C           1.3540   -0.4460    0.0000 C.3     1  LIG1        0.1586
     26 C           1.3540    0.5500    0.0000 C.3     1  LIG1        0.1585
     27 O           1.4880    2.0500    0.0000 O.2     1  LIG1       -0.1527
     28 O          -0.5130    2.0500    0.0000 O.2     1  LIG1       -0.1527
@<TRIPOS>BOND
     1     1     2    1
     2     1    11    1
     3     1    27    2
     4     1    28    2
     5     2     3   ar
     6     2    10   ar
     7     3     4   ar
     8     3     7   ar
     9     4     5   ar
    10     4     8   ar
    11     5     6   ar
    12     6     7   ar
    13     8     9   ar
    14     9    10   ar
    15    11    12    1
    16    11    26    1
    17    12    13    1
    18    13    14    1
    19    14    15    1
    20    14    25    1
    21    15    16    1
    22    16    17   ar
    23    16    24   ar
    24    17    18   ar
    25    18    19   ar
    26    18    22    1
    27    19    20    1
    28    19    23   ar
    29    20    21    1
    30    21    22    1
    31    23    24   ar
    32    25    26    1
