@<TRIPOS>MOLECULE
29376_ChemDiv_3379-0499
 19 20 0 0 0
SMALL
GASTEIGER
Energy = 0

@<TRIPOS>ATOM
      1 C          -0.8080    0.6960    0.0000 C.3     1  LIG1        0.1083
      2 C           0.0290    0.2250    0.0000 C.2     1  LIG1        0.3199
      3 O           0.8580    0.7130    0.0000 O.2     1  LIG1       -0.2498
      4 O           0.0250   -0.7290    0.0000 O.3     1  LIG1       -0.4417
      5 C           0.8580   -1.2130    0.0000 C.3     1  LIG1        0.2705
      6 C           1.6920   -0.7290    0.0000 C.3     1  LIG1        0.1874
      7 N           2.5290   -1.2130    0.0000 N.4     1  LIG1        0.3897
      8 C           2.5290   -2.1580    0.0000 C.3     1  LIG1        0.2027
      9 C           3.3290   -0.7290    0.0000 C.3     1  LIG1        0.2027
     10 C          -1.6380    0.2250    0.0000 C.ar    1  LIG1       -0.0128
     11 C          -2.4880    0.7250    0.0000 C.ar    1  LIG1       -0.0038
     12 C          -3.3290    0.2460    0.0000 C.ar    1  LIG1       -0.0003
     13 C          -3.3330   -0.7130    0.0000 C.ar    1  LIG1       -0.0000
     14 C          -2.5040   -1.2250    0.0000 C.ar    1  LIG1       -0.0003
     15 C          -1.6540   -0.7290    0.0000 C.ar    1  LIG1       -0.0038
     16 C          -1.6380    1.1830    0.0000 C.3     1  LIG1        0.0147
     17 C          -1.6380    2.1630    0.0000 C.3     1  LIG1        0.0009
     18 C           0.0290    2.1630    0.0000 C.3     1  LIG1        0.0009
     19 C           0.0290    1.1830    0.0000 C.3     1  LIG1        0.0147
@<TRIPOS>BOND
     1     1     2    1
     2     1    10    1
     3     1    16    1
     4     1    19    1
     5     2     3    2
     6     2     4    1
     7     4     5    1
     8     5     6    1
     9     6     7    1
    10     7     8    1
    11     7     9    1
    12    10    11   ar
    13    10    15   ar
    14    11    12   ar
    15    12    13   ar
    16    13    14   ar
    17    14    15   ar
    18    16    17    1
    19    17    18    1
    20    18    19    1
