@<TRIPOS>MOLECULE
29373_ChemDiv_4606-2660
 30 33 0 0 0
SMALL
GASTEIGER
Energy = 0

@<TRIPOS>ATOM
      1 S           2.5500    1.5040    0.0000 S.O2    1  LIG1        0.0634
      2 N           3.1790    2.3170    0.0000 N.3     1  LIG1       -0.1504
      3 C           4.1540    2.1710    0.0000 C.3     1  LIG1        0.1279
      4 C           4.7790    2.9790    0.0000 C.3     1  LIG1        0.1613
      5 O           4.4040    3.8750    0.0000 O.3     1  LIG1       -0.3507
      6 C           3.4000    4.0000    0.0000 C.3     1  LIG1        0.1613
      7 C           2.7920    3.2330    0.0000 C.3     1  LIG1        0.1279
      8 C           1.9460    0.7330    0.0000 C.ar    1  LIG1        0.1223
      9 C           2.3250   -0.2080    0.0000 C.ar    1  LIG1        0.0212
     10 C           1.7040   -0.9830    0.0000 C.ar    1  LIG1        0.0180
     11 C           0.7080   -0.8540    0.0000 C.ar    1  LIG1        0.0738
     12 N           0.0920   -1.6290    0.0000 N.am    1  LIG1       -0.1753
     13 C          -0.9080   -1.6290    0.0000 C.2     1  LIG1        0.2733
     14 C          -1.8210   -2.0670    0.0000 C.ar    1  LIG1        0.1090
     15 C          -2.6290   -1.6330    0.0000 C.ar    1  LIG1        0.1270
     16 N          -3.3460   -2.3290    0.0000 N.ar    1  LIG1       -0.0772
     17 O          -2.8460   -3.2330    0.0000 O.2     1  LIG1       -0.3576
     18 C          -1.9290   -3.0460    0.0000 C.ar    1  LIG1        0.1592
     19 C          -1.5040   -4.0000    0.0000 C.3     1  LIG1        0.0755
     20 C          -3.1710   -0.8630    0.0000 C.ar    1  LIG1        0.0211
     21 C          -2.7880   -0.0040    0.0000 C.ar    1  LIG1        0.0016
     22 C          -3.3460    0.8670    0.0000 C.ar    1  LIG1        0.0000
     23 C          -4.3790    0.8080    0.0000 C.ar    1  LIG1        0.0000
     24 C          -4.7830   -0.1000    0.0000 C.ar    1  LIG1        0.0000
     25 C          -4.1880   -0.9170    0.0000 C.ar    1  LIG1        0.0016
     26 O          -1.3540   -0.6080    0.0000 O.2     1  LIG1       -0.2679
     27 C           0.3460    0.0880    0.0000 C.ar    1  LIG1        0.0180
     28 C           0.9580    0.8670    0.0000 C.ar    1  LIG1        0.0212
     29 O           3.3460    0.9000    0.0000 O.2     1  LIG1       -0.1528
     30 O           1.7670    2.1380    0.0000 O.2     1  LIG1       -0.1528
@<TRIPOS>BOND
     1     1     2    1
     2     1     8    1
     3     1    29    2
     4     1    30    2
     5     2     3    1
     6     2     7    1
     7     3     4    1
     8     4     5    1
     9     5     6    1
    10     6     7    1
    11     8     9   ar
    12     8    28   ar
    13     9    10   ar
    14    10    11   ar
    15    11    12    1
    16    11    27   ar
    17    12    13   am
    18    13    14    1
    19    13    26    2
    20    14    15   ar
    21    14    18   ar
    22    15    16   ar
    23    15    20    1
    24    16    17   ar
    25    17    18   ar
    26    18    19    1
    27    20    21   ar
    28    20    25   ar
    29    21    22   ar
    30    22    23   ar
    31    23    24   ar
    32    24    25   ar
    33    27    28   ar
