@<TRIPOS>MOLECULE
29378_ChemDiv_3389-1446
 32 36 0 0 0
SMALL
GASTEIGER
Energy = 0

@<TRIPOS>ATOM
      1 N          -0.7080   -2.1460    0.0000 N.am    1  LIG1       -0.2207
      2 C          -1.4880   -2.7500    0.0000 C.2     1  LIG1        0.2317
      3 C          -1.1790   -3.5790    0.0000 C.3     1  LIG1        0.0857
      4 C          -0.1790   -3.5040    0.0000 C.3     1  LIG1        0.0857
      5 C           0.0630   -2.7080    0.0000 C.2     1  LIG1        0.2317
      6 O           1.0380   -2.2460    0.0000 O.2     1  LIG1       -0.2745
      7 C           0.3380   -4.4960    0.0000 C.3     1  LIG1        0.0096
      8 C          -0.0750   -5.3500    0.0000 C.3     1  LIG1        0.0005
      9 C          -1.1710   -5.3960    0.0000 C.3     1  LIG1        0.0005
     10 C          -1.6290   -4.5540    0.0000 C.3     1  LIG1        0.0096
     11 O          -2.5540   -2.4000    0.0000 O.2     1  LIG1       -0.2745
     12 C          -0.7580   -1.0830    0.0000 C.3     1  LIG1        0.1861
     13 C           0.0880   -0.5710    0.0000 C.2     1  LIG1        0.2500
     14 N           0.0630    0.4210    0.0000 N.am    1  LIG1       -0.2591
     15 C          -0.7920    0.9080    0.0000 C.ar    1  LIG1        0.0514
     16 C          -0.8380    1.8920    0.0000 C.ar    1  LIG1        0.0111
     17 C           0.0290    2.4040    0.0000 C.3     1  LIG1        0.1175
     18 C           0.8750    1.8920    0.0000 C.3     1  LIG1        0.0463
     19 C           0.9080    0.9080    0.0000 C.3     1  LIG1        0.0819
     20 C           1.8080    0.4210    0.0000 C.3     1  LIG1        0.0220
     21 N           0.0290    3.4330    0.0000 N.pl3   1  LIG1       -0.2348
     22 C           0.8750    3.9210    0.0000 C.ar    1  LIG1        0.0656
     23 C           1.7290    3.4330    0.0000 C.ar    1  LIG1        0.0161
     24 C           2.5750    3.9210    0.0000 C.ar    1  LIG1        0.0013
     25 C           2.5750    4.9080    0.0000 C.ar    1  LIG1        0.0001
     26 C           1.7290    5.3960    0.0000 C.ar    1  LIG1        0.0013
     27 C           0.8750    4.9080    0.0000 C.ar    1  LIG1        0.0161
     28 C          -1.7830    2.3460    0.0000 C.ar    1  LIG1       -0.0014
     29 C          -2.5790    1.8580    0.0000 C.ar    1  LIG1       -0.0002
     30 C          -2.5380    0.8670    0.0000 C.ar    1  LIG1        0.0013
     31 C          -1.6290    0.3710    0.0000 C.ar    1  LIG1        0.0146
     32 O           0.9500   -1.1460    0.0000 O.2     1  LIG1       -0.2727
@<TRIPOS>BOND
     1     1     2   am
     2     1     5   am
     3     1    12    1
     4     2     3    1
     5     2    11    2
     6     3     4    1
     7     3    10    1
     8     4     5    1
     9     4     7    1
    10     5     6    2
    11     7     8    1
    12     8     9    1
    13     9    10    1
    14    12    13    1
    15    13    14   am
    16    13    32    2
    17    14    15    1
    18    14    19    1
    19    15    16   ar
    20    15    31   ar
    21    16    17    1
    22    16    28   ar
    23    17    18    1
    24    17    21    1
    25    18    19    1
    26    19    20    1
    27    21    22    1
    28    22    23   ar
    29    22    27   ar
    30    23    24   ar
    31    24    25   ar
    32    25    26   ar
    33    26    27   ar
    34    28    29   ar
    35    29    30   ar
    36    30    31   ar
