@<TRIPOS>MOLECULE
29372_ChemDiv_3379-0455
 22 24 0 0 0
SMALL
GASTEIGER
Energy = 0

@<TRIPOS>ATOM
      1 S           0.4420   -1.0040    0.0000 S.O2    1  LIG1        0.0769
      2 N          -0.4330   -0.5040    0.0000 N.3     1  LIG1       -0.0748
      3 C          -1.2960   -0.0210    0.0000 C.3     1  LIG1        0.1494
      4 C          -1.2960    0.9790    0.0000 C.3     1  LIG1        0.1564
      5 C          -2.1500    1.4790    0.0000 C.ar    1  LIG1        0.0021
      6 C          -2.1670    2.4880    0.0000 C.ar    1  LIG1       -0.0213
      7 C          -1.3000    2.9960    0.0000 C.3     1  LIG1        0.0582
      8 C          -0.4330    2.4960    0.0000 C.3     1  LIG1        0.1472
      9 O          -0.4170    1.4960    0.0000 O.3     1  LIG1       -0.3500
     10 C          -3.0380    2.9790    0.0000 C.ar    1  LIG1       -0.0044
     11 C          -3.9040    2.4710    0.0000 C.ar    1  LIG1       -0.0003
     12 C          -3.9040    1.4790    0.0000 C.ar    1  LIG1       -0.0003
     13 C          -3.0380    0.9790    0.0000 C.ar    1  LIG1       -0.0022
     14 C           1.3080   -1.5080    0.0000 C.ar    1  LIG1        0.1235
     15 C           1.3080   -2.4920    0.0000 C.ar    1  LIG1        0.0196
     16 C           2.1630   -2.9920    0.0000 C.ar    1  LIG1       -0.0029
     17 C           3.0250   -2.4920    0.0000 C.ar    1  LIG1       -0.0218
     18 C           3.0080   -1.4920    0.0000 C.ar    1  LIG1       -0.0029
     19 C           2.1540   -1.0040    0.0000 C.ar    1  LIG1        0.0196
     20 C           3.9000   -2.9920    0.0000 C.3     1  LIG1        0.0310
     21 O           0.9420   -0.1420    0.0000 O.2     1  LIG1       -0.1516
     22 O          -0.0670   -1.8790    0.0000 O.2     1  LIG1       -0.1516
@<TRIPOS>BOND
     1     1     2    1
     2     1    14    1
     3     1    21    2
     4     1    22    2
     5     2     3    1
     6     3     4    1
     7     4     5    1
     8     4     9    1
     9     5     6   ar
    10     5    13   ar
    11     6     7    1
    12     6    10   ar
    13     7     8    1
    14     8     9    1
    15    10    11   ar
    16    11    12   ar
    17    12    13   ar
    18    14    15   ar
    19    14    19   ar
    20    15    16   ar
    21    16    17   ar
    22    17    18   ar
    23    17    20    1
    24    18    19   ar
