@<TRIPOS>MOLECULE
29371_ChemDiv_4606-2641
 31 34 0 0 0
SMALL
GASTEIGER
Energy = 0

@<TRIPOS>ATOM
      1 S           3.1960    0.9130    0.0000 S.O2    1  LIG1       -0.0559
      2 N           3.8540    1.6540    0.0000 N.pl3   1  LIG1       -0.5049
      3 C           3.5170    2.6290    0.0000 C.ar    1  LIG1        0.0590
      4 N           4.1830    3.3920    0.0000 N.ar    1  LIG1       -0.2485
      5 C           3.8540    4.3460    0.0000 C.ar    1  LIG1        0.1000
      6 C           2.8580    4.5420    0.0000 C.ar    1  LIG1        0.0412
      7 C           2.2250    3.7750    0.0000 C.ar    1  LIG1        0.1000
      8 N           2.5380    2.8130    0.0000 N.ar    1  LIG1       -0.2485
      9 C           2.5380    0.1500    0.0000 C.ar    1  LIG1        0.0894
     10 C           1.5960    0.3330    0.0000 C.ar    1  LIG1        0.0182
     11 C           0.9580   -0.4210    0.0000 C.ar    1  LIG1        0.0179
     12 C           1.3130   -1.3880    0.0000 C.ar    1  LIG1        0.0738
     13 N           0.6830   -2.1750    0.0000 N.am    1  LIG1       -0.1753
     14 C          -0.3170   -2.1750    0.0000 C.2     1  LIG1        0.2733
     15 C          -1.2290   -2.6080    0.0000 C.ar    1  LIG1        0.1090
     16 C          -2.0330   -2.1790    0.0000 C.ar    1  LIG1        0.1270
     17 N          -2.7500   -2.8750    0.0000 N.ar    1  LIG1       -0.0772
     18 O          -2.2540   -3.7750    0.0000 O.2     1  LIG1       -0.3576
     19 C          -1.3330   -3.5920    0.0000 C.ar    1  LIG1        0.1592
     20 C          -0.9080   -4.5420    0.0000 C.3     1  LIG1        0.0755
     21 C          -2.5750   -1.4080    0.0000 C.ar    1  LIG1        0.0211
     22 C          -3.5920   -1.4630    0.0000 C.ar    1  LIG1        0.0016
     23 C          -4.1880   -0.6460    0.0000 C.ar    1  LIG1        0.0000
     24 C          -3.7790    0.2630    0.0000 C.ar    1  LIG1        0.0000
     25 C          -2.7500    0.3210    0.0000 C.ar    1  LIG1        0.0000
     26 C          -2.1960   -0.5500    0.0000 C.ar    1  LIG1        0.0016
     27 O          -0.7630   -1.1540    0.0000 O.2     1  LIG1       -0.2679
     28 C           2.2670   -1.5630    0.0000 C.ar    1  LIG1        0.0179
     29 C           2.8880   -0.7630    0.0000 C.ar    1  LIG1        0.0182
     30 O           2.4420    1.5290    0.0000 O.2     1  LIG1       -0.1841
     31 O           3.9830    0.2790    0.0000 O.2     1  LIG1       -0.1841
@<TRIPOS>BOND
     1     1     2    1
     2     1     9    1
     3     1    30    2
     4     1    31    2
     5     2     3    1
     6     3     4   ar
     7     3     8   ar
     8     4     5   ar
     9     5     6   ar
    10     6     7   ar
    11     7     8   ar
    12     9    10   ar
    13     9    29   ar
    14    10    11   ar
    15    11    12   ar
    16    12    13    1
    17    12    28   ar
    18    13    14   am
    19    14    15    1
    20    14    27    2
    21    15    16   ar
    22    15    19   ar
    23    16    17   ar
    24    16    21    1
    25    17    18   ar
    26    18    19   ar
    27    19    20    1
    28    21    22   ar
    29    21    26   ar
    30    22    23   ar
    31    23    24   ar
    32    24    25   ar
    33    25    26   ar
    34    28    29   ar
