@<TRIPOS>MOLECULE
29370_ChemDiv_8017-6407
 20 22 0 0 0
SMALL
GASTEIGER
Energy = 0

@<TRIPOS>ATOM
      1 C          -0.8540    0.5000    0.0000 C.3     1  LIG1        0.2145
      2 C          -0.8580   -0.4920    0.0000 C.2     1  LIG1        0.2732
      3 N          -0.0080   -0.9920    0.0000 N.am    1  LIG1       -0.1982
      4 C           0.8630   -0.5000    0.0000 C.3     1  LIG1        0.1416
      5 C           1.7250   -1.0040    0.0000 C.ar    1  LIG1       -0.0006
      6 C           1.7170   -2.0000    0.0000 C.ar    1  LIG1       -0.0026
      7 C           2.5790   -2.5040    0.0000 C.ar    1  LIG1       -0.0003
      8 C           3.4500   -2.0040    0.0000 C.ar    1  LIG1       -0.0000
      9 C           3.4500   -1.0040    0.0000 C.ar    1  LIG1       -0.0003
     10 C           2.5880   -0.5040    0.0000 C.ar    1  LIG1       -0.0026
     11 O          -1.7290   -0.9920    0.0000 O.2     1  LIG1       -0.2703
     12 C          -1.7290    1.0080    0.0000 C.ar    1  LIG1        0.0095
     13 C          -1.7290    2.0080    0.0000 C.ar    1  LIG1       -0.0209
     14 C          -0.8540    2.5080    0.0000 C.3     1  LIG1        0.0582
     15 C           0.0170    2.0080    0.0000 C.3     1  LIG1        0.1478
     16 O           0.0170    1.0000    0.0000 O.3     1  LIG1       -0.3424
     17 C          -2.5920    2.5080    0.0000 C.ar    1  LIG1       -0.0044
     18 C          -3.4540    2.0080    0.0000 C.ar    1  LIG1       -0.0003
     19 C          -3.4540    1.0080    0.0000 C.ar    1  LIG1       -0.0003
     20 C          -2.5920    0.5000    0.0000 C.ar    1  LIG1       -0.0018
@<TRIPOS>BOND
     1     1     2    1
     2     1    12    1
     3     1    16    1
     4     2     3   am
     5     2    11    2
     6     3     4    1
     7     4     5    1
     8     5     6   ar
     9     5    10   ar
    10     6     7   ar
    11     7     8   ar
    12     8     9   ar
    13     9    10   ar
    14    12    13   ar
    15    12    20   ar
    16    13    14    1
    17    13    17   ar
    18    14    15    1
    19    15    16    1
    20    17    18   ar
    21    18    19   ar
    22    19    20   ar
