@<TRIPOS>MOLECULE
29382_ChemDiv_3389-1691
 24 27 0 0 0
SMALL
GASTEIGER
Energy = 0

@<TRIPOS>ATOM
      1 N          -0.0460    1.1960    0.0000 N.am    1  LIG1       -0.2332
      2 C          -0.0960    0.2040    0.0000 C.2     1  LIG1        0.2908
      3 C           0.7000   -0.3960    0.0000 C.3     1  LIG1        0.2256
      4 N           0.7000   -1.3460    0.0000 N.4     1  LIG1        0.3844
      5 C          -0.1330   -1.8670    0.0000 C.3     1  LIG1        0.1393
      6 C          -0.1210   -2.8920    0.0000 C.3     1  LIG1        0.0629
      7 C           0.7000   -3.3790    0.0000 C.3     1  LIG1        0.0123
      8 C           1.5960   -2.8540    0.0000 C.3     1  LIG1        0.0629
      9 C           1.5500   -1.8540    0.0000 C.3     1  LIG1        0.1393
     10 O          -0.9790   -0.2580    0.0000 O.2     1  LIG1       -0.2678
     11 C           0.8830    1.5630    0.0000 C.ar    1  LIG1        0.0543
     12 C           1.1170    2.5040    0.0000 C.ar    1  LIG1       -0.0078
     13 C           0.5500    3.3210    0.0000 C.3     1  LIG1        0.0323
     14 C          -0.4290    3.3830    0.0000 C.3     1  LIG1        0.0323
     15 C          -1.1000    2.6540    0.0000 C.ar    1  LIG1       -0.0078
     16 C          -0.9170    1.6540    0.0000 C.ar    1  LIG1        0.0543
     17 C          -1.6830    1.0210    0.0000 C.ar    1  LIG1        0.0149
     18 C          -2.6380    1.3790    0.0000 C.ar    1  LIG1        0.0013
     19 C          -2.8500    2.3580    0.0000 C.ar    1  LIG1       -0.0002
     20 C          -2.0920    3.0170    0.0000 C.ar    1  LIG1       -0.0030
     21 C           2.1170    2.7920    0.0000 C.ar    1  LIG1       -0.0030
     22 C           2.8460    2.0460    0.0000 C.ar    1  LIG1       -0.0002
     23 C           2.5750    1.1130    0.0000 C.ar    1  LIG1        0.0013
     24 C           1.6080    0.8630    0.0000 C.ar    1  LIG1        0.0149
@<TRIPOS>BOND
     1     1     2   am
     2     1    11    1
     3     1    16    1
     4     2     3    1
     5     2    10    2
     6     3     4    1
     7     4     5    1
     8     4     9    1
     9     5     6    1
    10     6     7    1
    11     7     8    1
    12     8     9    1
    13    11    12   ar
    14    11    24   ar
    15    12    13    1
    16    12    21   ar
    17    13    14    1
    18    14    15    1
    19    15    16   ar
    20    15    20   ar
    21    16    17   ar
    22    17    18   ar
    23    18    19   ar
    24    19    20   ar
    25    21    22   ar
    26    22    23   ar
    27    23    24   ar
