@<TRIPOS>MOLECULE
29384_ChemDiv_3652-0005
 25 28 0 0 0
SMALL
GASTEIGER
Energy = 0

@<TRIPOS>ATOM
      1 N          -0.2500    1.6000    0.0000 N.am    1  LIG1       -0.2332
      2 C          -0.4330    0.5540    0.0000 C.2     1  LIG1        0.2908
      3 C           0.3290   -0.1080    0.0000 C.3     1  LIG1        0.2256
      4 N           0.1460   -1.0920    0.0000 N.4     1  LIG1        0.3844
      5 C          -0.7750   -1.4290    0.0000 C.3     1  LIG1        0.1393
      6 C          -0.9580   -2.4500    0.0000 C.3     1  LIG1        0.0629
      7 C          -0.2130   -3.0750    0.0000 C.3     1  LIG1        0.0119
      8 C           0.7710   -2.7170    0.0000 C.3     1  LIG1        0.0629
      9 C           0.9460   -1.7540    0.0000 C.3     1  LIG1        0.1393
     10 C          -0.3250   -3.8580    0.0000 C.3     1  LIG1        0.0004
     11 O          -1.3540    0.2330    0.0000 O.2     1  LIG1       -0.2678
     12 C          -0.9960    2.2170    0.0000 C.ar    1  LIG1        0.0543
     13 C          -0.9960    3.2380    0.0000 C.ar    1  LIG1       -0.0078
     14 C          -0.2500    3.8630    0.0000 C.3     1  LIG1        0.0323
     15 C           0.7250    3.6420    0.0000 C.3     1  LIG1        0.0323
     16 C           1.2130    2.7040    0.0000 C.ar    1  LIG1       -0.0078
     17 C           0.7250    1.8210    0.0000 C.ar    1  LIG1        0.0543
     18 C           1.2920    0.9960    0.0000 C.ar    1  LIG1        0.0149
     19 C           2.2670    1.0290    0.0000 C.ar    1  LIG1        0.0013
     20 C           2.7540    1.9130    0.0000 C.ar    1  LIG1       -0.0002
     21 C           2.2130    2.7580    0.0000 C.ar    1  LIG1       -0.0030
     22 C          -1.8750    3.7210    0.0000 C.ar    1  LIG1       -0.0030
     23 C          -2.7580    3.2380    0.0000 C.ar    1  LIG1       -0.0002
     24 C          -2.7580    2.1790    0.0000 C.ar    1  LIG1        0.0013
     25 C          -1.8750    1.6920    0.0000 C.ar    1  LIG1        0.0149
@<TRIPOS>BOND
     1     1     2   am
     2     1    12    1
     3     1    17    1
     4     2     3    1
     5     2    11    2
     6     3     4    1
     7     4     5    1
     8     4     9    1
     9     5     6    1
    10     6     7    1
    11     7     8    1
    12     7    10    1
    13     8     9    1
    14    12    13   ar
    15    12    25   ar
    16    13    14    1
    17    13    22   ar
    18    14    15    1
    19    15    16    1
    20    16    17   ar
    21    16    21   ar
    22    17    18   ar
    23    18    19   ar
    24    19    20   ar
    25    20    21   ar
    26    22    23   ar
    27    23    24   ar
    28    24    25   ar
