@<TRIPOS>MOLECULE
29388_ChemDiv_3389-2140
 20 23 0 0 0
SMALL
GASTEIGER
Energy = 0

@<TRIPOS>ATOM
      1 N           0.0630    0.1170    0.0000 N.am    1  LIG1       -0.2380
      2 C           0.1210   -0.8880    0.0000 C.2     1  LIG1        0.2326
      3 C           0.9750   -1.3630    0.0000 C.3     1  LIG1        0.0774
      4 C           1.8790   -1.8790    0.0000 C.3     1  LIG1        0.0096
      5 C           1.0170   -2.3540    0.0000 C.3     1  LIG1        0.0096
      6 O          -0.7420   -1.4000    0.0000 O.2     1  LIG1       -0.2742
      7 C           0.9250    0.6500    0.0000 C.ar    1  LIG1        0.0541
      8 C           1.0750    1.6040    0.0000 C.ar    1  LIG1       -0.0078
      9 C           0.4080    2.3580    0.0000 C.3     1  LIG1        0.0323
     10 C          -0.5420    2.3170    0.0000 C.3     1  LIG1        0.0323
     11 C          -1.1670    1.4040    0.0000 C.ar    1  LIG1       -0.0078
     12 C          -0.8290    0.5040    0.0000 C.ar    1  LIG1        0.0541
     13 C          -1.4960   -0.2630    0.0000 C.ar    1  LIG1        0.0149
     14 C          -2.4460   -0.0210    0.0000 C.ar    1  LIG1        0.0013
     15 C          -2.7960    0.8920    0.0000 C.ar    1  LIG1       -0.0002
     16 C          -2.1210    1.6420    0.0000 C.ar    1  LIG1       -0.0030
     17 C           2.0250    1.9710    0.0000 C.ar    1  LIG1       -0.0030
     18 C           2.7920    1.3670    0.0000 C.ar    1  LIG1       -0.0002
     19 C           2.6420    0.3540    0.0000 C.ar    1  LIG1        0.0013
     20 C           1.7290   -0.0210    0.0000 C.ar    1  LIG1        0.0149
@<TRIPOS>BOND
     1     1     2   am
     2     1     7    1
     3     1    12    1
     4     2     3    1
     5     2     6    2
     6     3     4    1
     7     3     5    1
     8     4     5    1
     9     7     8   ar
    10     7    20   ar
    11     8     9    1
    12     8    17   ar
    13     9    10    1
    14    10    11    1
    15    11    12   ar
    16    11    16   ar
    17    12    13   ar
    18    13    14   ar
    19    14    15   ar
    20    15    16   ar
    21    17    18   ar
    22    18    19   ar
    23    19    20   ar
