@<TRIPOS>MOLECULE
29389_ChemDiv_3331-3639
 20 22 0 0 0
SMALL
GASTEIGER
Energy = 0

@<TRIPOS>ATOM
      1 S          -0.4210   -0.7290    0.0000 S.3     1  LIG1       -0.1322
      2 C           0.4170   -0.2420    0.0000 C.3     1  LIG1        0.0774
      3 C           0.4170    0.7540    0.0000 C.3     1  LIG1        0.0797
      4 C          -0.4210    1.2540    0.0000 C.2     1  LIG1        0.1530
      5 C          -1.3080    0.7540    0.0000 C.3     1  LIG1        0.0797
      6 C          -1.3080   -0.2420    0.0000 C.3     1  LIG1        0.0774
      7 C          -2.1630   -0.7290    0.0000 C.ar    1  LIG1       -0.0120
      8 C          -3.0380   -0.2250    0.0000 C.ar    1  LIG1       -0.0034
      9 C          -3.9170   -0.7290    0.0000 C.ar    1  LIG1       -0.0003
     10 C          -3.9000   -1.7500    0.0000 C.ar    1  LIG1       -0.0000
     11 C          -3.0210   -2.2420    0.0000 C.ar    1  LIG1       -0.0003
     12 C          -2.1630   -1.7500    0.0000 C.ar    1  LIG1       -0.0034
     13 O          -0.3960    2.2460    0.0000 O.2     1  LIG1       -0.2960
     14 C           1.3130   -0.7290    0.0000 C.ar    1  LIG1       -0.0121
     15 C           1.3130   -1.7210    0.0000 C.ar    1  LIG1       -0.0038
     16 C           2.1670   -2.2380    0.0000 C.ar    1  LIG1       -0.0046
     17 C           3.0210   -1.7210    0.0000 C.ar    1  LIG1       -0.0219
     18 C           3.0210   -0.7290    0.0000 C.ar    1  LIG1       -0.0046
     19 C           2.1670   -0.2420    0.0000 C.ar    1  LIG1       -0.0038
     20 C           3.9130   -2.2380    0.0000 C.3     1  LIG1        0.0310
@<TRIPOS>BOND
     1     1     2    1
     2     1     6    1
     3     2     3    1
     4     2    14    1
     5     3     4    1
     6     4     5    1
     7     4    13    2
     8     5     6    1
     9     6     7    1
    10     7     8   ar
    11     7    12   ar
    12     8     9   ar
    13     9    10   ar
    14    10    11   ar
    15    11    12   ar
    16    14    15   ar
    17    14    19   ar
    18    15    16   ar
    19    16    17   ar
    20    17    18   ar
    21    17    20    1
    22    18    19   ar
