@<TRIPOS>MOLECULE
29381_ChemDiv_G070-1444
 29 32 0 0 0
SMALL
GASTEIGER
Energy = 0

@<TRIPOS>ATOM
      1 S          -1.4330    0.3460    0.0000 S.O2    1  LIG1        0.0652
      2 C          -2.4330    0.3460    0.0000 C.ar    1  LIG1        0.1410
      3 C          -2.9330    1.2130    0.0000 C.ar    1  LIG1        0.0452
      4 C          -3.9080    1.0000    0.0000 C.ar    1  LIG1        0.1380
      5 N          -4.0170    0.0040    0.0000 N.ar    1  LIG1       -0.3179
      6 C          -3.1000   -0.4040    0.0000 C.ar    1  LIG1        0.0963
      7 C          -4.8830   -0.4960    0.0000 C.3     1  LIG1        0.1307
      8 C          -4.7830    1.5000    0.0000 C.2     1  LIG1        0.3574
      9 O          -5.6460    1.0000    0.0000 O.2     1  LIG1       -0.2433
     10 O          -4.7830    2.5000    0.0000 O.3     1  LIG1       -0.4403
     11 C          -5.6460    3.0000    0.0000 C.3     1  LIG1        0.2560
     12 N          -0.4330    0.3460    0.0000 N.3     1  LIG1       -0.1433
     13 C           0.0630   -0.5170    0.0000 C.3     1  LIG1        0.1585
     14 C           1.0580   -0.5170    0.0000 C.3     1  LIG1        0.1586
     15 N           1.5580    0.3500    0.0000 N.4     1  LIG1        0.3830
     16 C           2.5710    0.3460    0.0000 C.3     1  LIG1        0.1664
     17 C           3.0710   -0.5210    0.0000 C.ar    1  LIG1        0.0376
     18 C           4.0670   -0.5210    0.0000 C.ar    1  LIG1        0.0416
     19 C           4.5670   -1.3830    0.0000 C.ar    1  LIG1        0.1763
     20 C           4.0580   -2.2460    0.0000 C.ar    1  LIG1        0.1764
     21 O           4.7210   -2.9960    0.0000 O.3     1  LIG1       -0.4346
     22 C           5.6420   -2.5960    0.0000 C.3     1  LIG1        0.4294
     23 O           5.5460   -1.5960    0.0000 O.3     1  LIG1       -0.4346
     24 C           3.0580   -2.2460    0.0000 C.ar    1  LIG1        0.0401
     25 C           2.5580   -1.3830    0.0000 C.ar    1  LIG1        0.0048
     26 C           1.0670    1.2210    0.0000 C.3     1  LIG1        0.1586
     27 C           0.0710    1.2130    0.0000 C.3     1  LIG1        0.1585
     28 O          -1.4330    1.3460    0.0000 O.2     1  LIG1       -0.1527
     29 O          -1.4330   -0.6580    0.0000 O.2     1  LIG1       -0.1527
@<TRIPOS>BOND
     1     1     2    1
     2     1    12    1
     3     1    28    2
     4     1    29    2
     5     2     3   ar
     6     2     6   ar
     7     3     4   ar
     8     4     5   ar
     9     4     8    1
    10     5     6   ar
    11     5     7    1
    12     8     9    2
    13     8    10    1
    14    10    11    1
    15    12    13    1
    16    12    27    1
    17    13    14    1
    18    14    15    1
    19    15    16    1
    20    15    26    1
    21    16    17    1
    22    17    18   ar
    23    17    25   ar
    24    18    19   ar
    25    19    20   ar
    26    19    23    1
    27    20    21    1
    28    20    24   ar
    29    21    22    1
    30    22    23    1
    31    24    25   ar
    32    26    27    1
