@<TRIPOS>MOLECULE
29380_ChemDiv_3389-1418
 29 33 0 0 0
SMALL
GASTEIGER
Energy = 0

@<TRIPOS>ATOM
      1 N          -1.2000   -0.6290    0.0000 N.am    1  LIG1       -0.2207
      2 C          -2.0790   -1.0500    0.0000 C.2     1  LIG1        0.2317
      3 C          -1.9330   -1.9330    0.0000 C.3     1  LIG1        0.0857
      4 C          -0.9290   -2.0710    0.0000 C.3     1  LIG1        0.0857
      5 C          -0.5330   -1.3380    0.0000 C.2     1  LIG1        0.2317
      6 O           0.5040   -1.0960    0.0000 O.2     1  LIG1       -0.2745
      7 C          -0.6130   -3.1460    0.0000 C.3     1  LIG1        0.0096
      8 C          -1.2170   -3.8960    0.0000 C.3     1  LIG1        0.0005
      9 C          -2.2920   -3.7130    0.0000 C.3     1  LIG1        0.0005
     10 C          -2.5790   -2.7790    0.0000 C.3     1  LIG1        0.0096
     11 O          -3.0580   -0.4750    0.0000 O.2     1  LIG1       -0.2745
     12 C          -1.0080    0.4420    0.0000 C.3     1  LIG1        0.1865
     13 C          -0.0630    0.7580    0.0000 C.2     1  LIG1        0.2538
     14 N           0.1210    1.7250    0.0000 N.am    1  LIG1       -0.2366
     15 C           1.0920    1.9380    0.0000 C.ar    1  LIG1        0.0541
     16 C           1.4580    2.8080    0.0000 C.ar    1  LIG1       -0.0078
     17 C           1.0380    3.6920    0.0000 C.3     1  LIG1        0.0323
     18 C           0.0830    3.9000    0.0000 C.3     1  LIG1        0.0323
     19 C          -0.6750    3.3080    0.0000 C.ar    1  LIG1       -0.0078
     20 C          -0.6750    2.3040    0.0000 C.ar    1  LIG1        0.0541
     21 C          -1.5130    1.8040    0.0000 C.ar    1  LIG1        0.0149
     22 C          -2.3500    2.3040    0.0000 C.ar    1  LIG1        0.0013
     23 C          -2.3960    3.3080    0.0000 C.ar    1  LIG1       -0.0002
     24 C          -1.5580    3.8250    0.0000 C.ar    1  LIG1       -0.0030
     25 C           2.4710    2.9330    0.0000 C.ar    1  LIG1       -0.0030
     26 C           3.0540    2.0920    0.0000 C.ar    1  LIG1       -0.0002
     27 C           2.6380    1.2130    0.0000 C.ar    1  LIG1        0.0013
     28 C           1.6670    1.1330    0.0000 C.ar    1  LIG1        0.0149
     29 O           0.6460   -0.0040    0.0000 O.2     1  LIG1       -0.2723
@<TRIPOS>BOND
     1     1     2   am
     2     1     5   am
     3     1    12    1
     4     2     3    1
     5     2    11    2
     6     3     4    1
     7     3    10    1
     8     4     5    1
     9     4     7    1
    10     5     6    2
    11     7     8    1
    12     8     9    1
    13     9    10    1
    14    12    13    1
    15    13    14   am
    16    13    29    2
    17    14    15    1
    18    14    20    1
    19    15    16   ar
    20    15    28   ar
    21    16    17    1
    22    16    25   ar
    23    17    18    1
    24    18    19    1
    25    19    20   ar
    26    19    24   ar
    27    20    21   ar
    28    21    22   ar
    29    22    23   ar
    30    23    24   ar
    31    25    26   ar
    32    26    27   ar
    33    27    28   ar
