@<TRIPOS>MOLECULE
29387_ChemDiv_3331-1977
 19 20 0 0 0
SMALL
GASTEIGER
Energy = 0

@<TRIPOS>ATOM
      1 C          -1.2790   -0.3670    0.0000 C.ar    1  LIG1        0.1152
      2 C          -0.5000    0.2040    0.0000 C.2     1  LIG1        0.0194
      3 C           0.5290    0.3000    0.0000 C.2     1  LIG1        0.1152
      4 C           0.9380    1.2500    0.0000 C.2     1  LIG1        0.3486
      5 O           1.9670    1.3540    0.0000 O.3     1  LIG1       -0.4253
      6 C           2.5880    0.5210    0.0000 C.2     1  LIG1        0.1298
      7 C           2.1630   -0.4250    0.0000 C.2     1  LIG1        0.0753
      8 C           1.1330   -0.5380    0.0000 C.2     1  LIG1        0.2046
      9 O           0.6580   -1.4540    0.0000 O.2     1  LIG1       -0.2863
     10 C           3.6170    0.6290    0.0000 C.3     1  LIG1        0.0727
     11 O           0.3290    2.0790    0.0000 O.2     1  LIG1       -0.2444
     12 C          -1.1830   -1.3080    0.0000 C.ar    1  LIG1        0.3486
     13 O          -1.9540   -1.8960    0.0000 O.2     1  LIG1       -0.4253
     14 C          -2.8380   -1.5080    0.0000 C.ar    1  LIG1        0.1298
     15 C          -2.9540   -0.5460    0.0000 C.ar    1  LIG1        0.0753
     16 C          -2.1670    0.0210    0.0000 C.ar    1  LIG1        0.2046
     17 O          -2.2580    0.9750    0.0000 O.3     1  LIG1       -0.2863
     18 C          -3.6210   -2.0750    0.0000 C.3     1  LIG1        0.0727
     19 O          -0.2960   -1.7130    0.0000 O.2     1  LIG1       -0.2444
@<TRIPOS>BOND
     1     1     2    1
     2     1    12   ar
     3     1    16   ar
     4     2     3    2
     5     3     4    1
     6     3     8    1
     7     4     5    1
     8     4    11    2
     9     5     6    1
    10     6     7    2
    11     6    10    1
    12     7     8    1
    13     8     9    2
    14    12    13   ar
    15    12    19    2
    16    13    14   ar
    17    14    15   ar
    18    14    18    1
    19    15    16   ar
    20    16    17    1
