@<TRIPOS>MOLECULE
29395_ChemDiv_6040-4956
 33 35 0 0 0
SMALL
GASTEIGER
Energy = 0

@<TRIPOS>ATOM
      1 S           2.4960    0.7960    0.0000 S.O2    1  LIG1        0.0633
      2 C           1.6130    0.3000    0.0000 C.ar    1  LIG1        0.1223
      3 C           0.7540    0.7960    0.0000 C.ar    1  LIG1        0.0212
      4 C          -0.1040    0.3000    0.0000 C.ar    1  LIG1        0.0180
      5 C          -0.1040   -0.7170    0.0000 C.ar    1  LIG1        0.0738
      6 N          -0.9880   -1.2130    0.0000 N.am    1  LIG1       -0.1753
      7 C          -0.9880   -2.2420    0.0000 C.2     1  LIG1        0.2733
      8 C          -1.8380   -2.7380    0.0000 C.ar    1  LIG1        0.1090
      9 C          -2.7880   -2.4380    0.0000 C.ar    1  LIG1        0.1270
     10 N          -3.3580   -3.2290    0.0000 N.ar    1  LIG1       -0.0772
     11 O          -2.7880   -4.0540    0.0000 O.2     1  LIG1       -0.3576
     12 C          -1.8380   -3.7250    0.0000 C.ar    1  LIG1        0.1592
     13 C          -1.0460   -4.3210    0.0000 C.3     1  LIG1        0.0755
     14 C          -3.4670   -1.6790    0.0000 C.ar    1  LIG1        0.0211
     15 C          -4.4380   -1.9080    0.0000 C.ar    1  LIG1        0.0016
     16 C          -5.1000   -1.1540    0.0000 C.ar    1  LIG1        0.0000
     17 C          -4.7880   -0.2210    0.0000 C.ar    1  LIG1        0.0000
     18 C          -3.8210   -0.0290    0.0000 C.ar    1  LIG1        0.0000
     19 C          -3.1580   -0.7540    0.0000 C.ar    1  LIG1        0.0016
     20 O          -0.1250   -2.7380    0.0000 O.2     1  LIG1       -0.2679
     21 C           0.7540   -1.2130    0.0000 C.ar    1  LIG1        0.0180
     22 C           1.6130   -0.7170    0.0000 C.ar    1  LIG1        0.0212
     23 N           3.3750    1.3210    0.0000 N.3     1  LIG1       -0.1555
     24 C           3.3750    2.3500    0.0000 C.3     1  LIG1        0.0958
     25 C           4.2380    2.8420    0.0000 C.3     1  LIG1        0.0191
     26 C           4.2380    3.8290    0.0000 C.3     1  LIG1        0.0015
     27 C           5.0960    4.3210    0.0000 C.3     1  LIG1        0.0000
     28 C           4.2380    0.8380    0.0000 C.3     1  LIG1        0.0958
     29 C           4.2380   -0.1630    0.0000 C.3     1  LIG1        0.0191
     30 C           5.0960   -0.6580    0.0000 C.3     1  LIG1        0.0015
     31 C           5.0960   -1.6790    0.0000 C.3     1  LIG1        0.0000
     32 O           1.9880    1.6880    0.0000 O.2     1  LIG1       -0.1528
     33 O           3.0250   -0.0580    0.0000 O.2     1  LIG1       -0.1528
@<TRIPOS>BOND
     1     1     2    1
     2     1    23    1
     3     1    32    2
     4     1    33    2
     5     2     3   ar
     6     2    22   ar
     7     3     4   ar
     8     4     5   ar
     9     5     6    1
    10     5    21   ar
    11     6     7   am
    12     7     8    1
    13     7    20    2
    14     8     9   ar
    15     8    12   ar
    16     9    10   ar
    17     9    14    1
    18    10    11   ar
    19    11    12   ar
    20    12    13    1
    21    14    15   ar
    22    14    19   ar
    23    15    16   ar
    24    16    17   ar
    25    17    18   ar
    26    18    19   ar
    27    21    22   ar
    28    23    24    1
    29    23    28    1
    30    24    25    1
    31    25    26    1
    32    26    27    1
    33    28    29    1
    34    29    30    1
    35    30    31    1
