@<TRIPOS>MOLECULE
29393_ChemDiv_6040-4952
 29 31 0 0 0
SMALL
GASTEIGER
Energy = 0

@<TRIPOS>ATOM
      1 C          -1.8580   -2.6960    0.0000 C.ar    1  LIG1        0.1090
      2 C          -0.9880   -2.1920    0.0000 C.2     1  LIG1        0.2733
      3 N          -0.9670   -1.1920    0.0000 N.am    1  LIG1       -0.1753
      4 C          -0.0750   -0.6920    0.0000 C.ar    1  LIG1        0.0738
      5 C           0.8130   -1.2290    0.0000 C.ar    1  LIG1        0.0180
      6 C           1.6540   -0.7290    0.0000 C.ar    1  LIG1        0.0213
      7 C           1.6540    0.2750    0.0000 C.ar    1  LIG1        0.1236
      8 S           2.5420    0.8130    0.0000 S.O2    1  LIG1        0.0768
      9 O           3.0580   -0.0920    0.0000 O.2     1  LIG1       -0.1516
     10 O           2.0380    1.6750    0.0000 O.2     1  LIG1       -0.1516
     11 N           3.4170    1.3130    0.0000 N.3     1  LIG1       -0.0778
     12 C           3.4170    2.3130    0.0000 C.3     1  LIG1        0.1155
     13 C           4.2830    2.8130    0.0000 C.3     1  LIG1        0.0208
     14 C           4.2830    3.8040    0.0000 C.3     1  LIG1        0.0015
     15 C           5.1290    4.3040    0.0000 C.3     1  LIG1        0.0000
     16 C           0.8130    0.7750    0.0000 C.ar    1  LIG1        0.0213
     17 C          -0.0750    0.3080    0.0000 C.ar    1  LIG1        0.0180
     18 O          -0.1460   -2.6960    0.0000 O.2     1  LIG1       -0.2679
     19 C          -2.8170   -2.3960    0.0000 C.ar    1  LIG1        0.1270
     20 N          -3.3710   -3.1960    0.0000 N.ar    1  LIG1       -0.0772
     21 O          -2.8170   -4.0000    0.0000 O.2     1  LIG1       -0.3576
     22 C          -1.8790   -3.6960    0.0000 C.ar    1  LIG1        0.1592
     23 C          -1.0790   -4.3040    0.0000 C.3     1  LIG1        0.0755
     24 C          -3.4830   -1.6670    0.0000 C.ar    1  LIG1        0.0211
     25 C          -3.1750   -0.7290    0.0000 C.ar    1  LIG1        0.0016
     26 C          -3.8420    0.0380    0.0000 C.ar    1  LIG1        0.0000
     27 C          -4.8210   -0.1920    0.0000 C.ar    1  LIG1        0.0000
     28 C          -5.1330   -1.1330    0.0000 C.ar    1  LIG1        0.0000
     29 C          -4.4670   -1.8580    0.0000 C.ar    1  LIG1        0.0016
@<TRIPOS>BOND
     1     1     2    1
     2     1    19   ar
     3     1    22   ar
     4     2     3   am
     5     2    18    2
     6     3     4    1
     7     4     5   ar
     8     4    17   ar
     9     5     6   ar
    10     6     7   ar
    11     7     8    1
    12     7    16   ar
    13     8     9    2
    14     8    10    2
    15     8    11    1
    16    11    12    1
    17    12    13    1
    18    13    14    1
    19    14    15    1
    20    16    17   ar
    21    19    20   ar
    22    19    24    1
    23    20    21   ar
    24    21    22   ar
    25    22    23    1
    26    24    25   ar
    27    24    29   ar
    28    25    26   ar
    29    26    27   ar
    30    27    28   ar
    31    28    29   ar
