@<TRIPOS>MOLECULE
29394_ChemDiv_3379-1165
 33 36 0 0 0
SMALL
GASTEIGER
Energy = 0

@<TRIPOS>ATOM
      1 C          -0.4630    0.4500    0.0000 C.3     1  LIG1        0.0493
      2 C          -1.4580    0.4420    0.0000 C.ar    1  LIG1       -0.0151
      3 C          -1.9630    1.3170    0.0000 C.ar    1  LIG1        0.0362
      4 C          -2.9630    1.3000    0.0000 C.ar    1  LIG1        0.1761
      5 C          -3.4670    0.4420    0.0000 C.ar    1  LIG1        0.1764
      6 O          -4.4380    0.6460    0.0000 O.3     1  LIG1       -0.4346
      7 C          -4.5460    1.6290    0.0000 C.3     1  LIG1        0.4294
      8 O          -3.6330    2.0540    0.0000 O.3     1  LIG1       -0.4346
      9 C          -2.9630   -0.4250    0.0000 C.ar    1  LIG1        0.0399
     10 C          -1.9630   -0.4250    0.0000 C.ar    1  LIG1       -0.0006
     11 C           0.0420    1.3170    0.0000 C.ar    1  LIG1        0.0156
     12 C          -0.4630    2.1500    0.0000 C.ar    1  LIG1        0.1350
     13 O          -1.4750    2.1500    0.0000 O.3     1  LIG1       -0.4717
     14 C          -1.9670    3.0290    0.0000 C.3     1  LIG1        0.2525
     15 C           0.0250    3.0290    0.0000 C.ar    1  LIG1        0.0366
     16 C           1.0330    3.0290    0.0000 C.ar    1  LIG1        0.0031
     17 C           1.5380    2.1670    0.0000 C.ar    1  LIG1       -0.0001
     18 C           1.0330    1.3170    0.0000 C.ar    1  LIG1       -0.0010
     19 C           0.0420   -0.4250    0.0000 C.3     1  LIG1        0.0303
     20 C           1.0500   -0.4250    0.0000 C.3     1  LIG1        0.0944
     21 N           1.5380   -1.2920    0.0000 N.am    1  LIG1       -0.2754
     22 C           1.0330   -2.1670    0.0000 C.2     1  LIG1        0.2264
     23 O           0.0250   -2.1500    0.0000 O.2     1  LIG1       -0.2748
     24 C           1.5380   -3.0250    0.0000 C.3     1  LIG1        0.0948
     25 C           2.5380   -1.2920    0.0000 C.3     1  LIG1        0.1201
     26 C           3.0420   -0.4250    0.0000 C.ar    1  LIG1       -0.0021
     27 C           2.5330    0.4290    0.0000 C.ar    1  LIG1        0.0005
     28 C           3.0250    1.3000    0.0000 C.ar    1  LIG1        0.0366
     29 C           4.0290    1.3000    0.0000 C.ar    1  LIG1        0.1387
     30 C           4.5420    0.4420    0.0000 C.ar    1  LIG1        0.0366
     31 C           4.0420   -0.4250    0.0000 C.ar    1  LIG1        0.0005
     32 O           4.5250    2.1670    0.0000 O.3     1  LIG1       -0.4714
     33 C           4.0290    3.0290    0.0000 C.3     1  LIG1        0.2525
@<TRIPOS>BOND
     1     1     2    1
     2     1    11    1
     3     1    19    1
     4     2     3   ar
     5     2    10   ar
     6     3     4   ar
     7     4     5   ar
     8     4     8    1
     9     5     6    1
    10     5     9   ar
    11     6     7    1
    12     7     8    1
    13     9    10   ar
    14    11    12   ar
    15    11    18   ar
    16    12    13    1
    17    12    15   ar
    18    13    14    1
    19    15    16   ar
    20    16    17   ar
    21    17    18   ar
    22    19    20    1
    23    20    21    1
    24    21    22   am
    25    21    25    1
    26    22    23    2
    27    22    24    1
    28    25    26    1
    29    26    27   ar
    30    26    31   ar
    31    27    28   ar
    32    28    29   ar
    33    29    30   ar
    34    29    32    1
    35    30    31   ar
    36    32    33    1
