@<TRIPOS>MOLECULE
29396_ChemDiv_8017-3868
 31 36 0 0 0
SMALL
GASTEIGER
Energy = 0

@<TRIPOS>ATOM
      1 C          -3.8420    0.4540    0.0000 C.3     1  LIG1        0.0189
      2 C          -2.8500    0.4960    0.0000 C.ar    1  LIG1       -0.0226
      3 C          -2.3880    1.3790    0.0000 C.ar    1  LIG1       -0.0012
      4 C          -1.3920    1.4290    0.0000 C.ar    1  LIG1        0.0366
      5 C          -0.8500    0.5790    0.0000 C.ar    1  LIG1        0.1393
      6 O           0.1540    0.6290    0.0000 O.3     1  LIG1       -0.4656
      7 C           0.6170    1.5170    0.0000 C.3     1  LIG1        0.2911
      8 C           1.6130    1.5580    0.0000 C.2     1  LIG1        0.2862
      9 N           2.1540    0.7210    0.0000 N.am    1  LIG1       -0.1974
     10 C           3.1540    0.7710    0.0000 C.3     1  LIG1        0.1417
     11 C           3.6920   -0.0710    0.0000 C.ar    1  LIG1        0.0027
     12 C           4.6830   -0.0210    0.0000 C.ar    1  LIG1        0.0376
     13 C           5.2330   -0.8540    0.0000 C.ar    1  LIG1        0.1762
     14 C           4.7830   -1.7460    0.0000 C.ar    1  LIG1        0.1764
     15 O           5.4960   -2.4500    0.0000 O.3     1  LIG1       -0.4346
     16 C           6.3830   -1.9920    0.0000 C.3     1  LIG1        0.4294
     17 O           6.2210   -1.0040    0.0000 O.3     1  LIG1       -0.4346
     18 C           3.7790   -1.7960    0.0000 C.ar    1  LIG1        0.0399
     19 C           3.2290   -0.9580    0.0000 C.ar    1  LIG1        0.0008
     20 O           2.0710    2.4540    0.0000 O.2     1  LIG1       -0.2693
     21 C          -1.3130   -0.3080    0.0000 C.ar    1  LIG1        0.0366
     22 C          -2.3130   -0.3460    0.0000 C.ar    1  LIG1       -0.0012
     23 C          -3.8380    1.4460    0.0000 C.3     1  LIG1        0.0040
     24 C          -4.7460    1.8290    0.0000 C.3     1  LIG1        0.0003
     25 C          -5.6210    1.5170    0.0000 C.3     1  LIG1        0.0000
     26 C          -5.6170    0.5460    0.0000 C.3     1  LIG1        0.0003
     27 C          -4.7540    0.2290    0.0000 C.3     1  LIG1        0.0040
     28 C          -6.3830   -0.2790    0.0000 C.3     1  LIG1        0.0000
     29 C          -5.4210   -0.0080    0.0000 C.3     1  LIG1        0.0003
     30 C          -4.5080   -0.3710    0.0000 C.3     1  LIG1        0.0040
     31 C          -5.4210    1.0290    0.0000 C.3     1  LIG1        0.0000
@<TRIPOS>BOND
     1     1     2    1
     2     1    23    1
     3     1    27    1
     4     1    30    1
     5     2     3   ar
     6     2    22   ar
     7     3     4   ar
     8     4     5   ar
     9     5     6    1
    10     5    21   ar
    11     6     7    1
    12     7     8    1
    13     8     9   am
    14     8    20    2
    15     9    10    1
    16    10    11    1
    17    11    12   ar
    18    11    19   ar
    19    12    13   ar
    20    13    14   ar
    21    13    17    1
    22    14    15    1
    23    14    18   ar
    24    15    16    1
    25    16    17    1
    26    18    19   ar
    27    21    22   ar
    28    23    24    1
    29    24    25    1
    30    24    31    1
    31    25    26    1
    32    26    27    1
    33    26    28    1
    34    28    29    1
    35    29    30    1
    36    29    31    1
