@<TRIPOS>MOLECULE
29392_ChemDiv_3390-0181
 27 30 0 0 0
SMALL
GASTEIGER
Energy = 0

@<TRIPOS>ATOM
      1 N           1.4920    0.2830    0.0000 N.am    1  LIG1       -0.2349
      2 C           2.4710    0.4960    0.0000 C.ar    1  LIG1        0.0542
      3 C           2.8420    1.3960    0.0000 C.ar    1  LIG1       -0.0078
      4 C           2.4170    2.2750    0.0000 C.3     1  LIG1        0.0323
      5 C           1.4580    2.4880    0.0000 C.3     1  LIG1        0.0323
      6 C           0.6920    1.8960    0.0000 C.ar    1  LIG1       -0.0078
      7 C           0.6920    0.8750    0.0000 C.ar    1  LIG1        0.0542
      8 C          -0.1580    0.3710    0.0000 C.ar    1  LIG1        0.0149
      9 C          -1.0040    0.8750    0.0000 C.ar    1  LIG1        0.0013
     10 C          -1.0460    1.8960    0.0000 C.ar    1  LIG1       -0.0002
     11 C          -0.2000    2.4000    0.0000 C.ar    1  LIG1       -0.0030
     12 C           3.8630    1.5080    0.0000 C.ar    1  LIG1       -0.0030
     13 C           4.4540    0.6630    0.0000 C.ar    1  LIG1       -0.0002
     14 C           4.0330   -0.2170    0.0000 C.ar    1  LIG1        0.0013
     15 C           3.0540   -0.3000    0.0000 C.ar    1  LIG1        0.0149
     16 C           1.3080   -0.6880    0.0000 C.2     1  LIG1        0.2776
     17 C           0.3710   -0.9880    0.0000 C.3     1  LIG1        0.2903
     18 O          -0.3670   -0.3250    0.0000 O.3     1  LIG1       -0.4656
     19 C          -1.3380   -0.6170    0.0000 C.ar    1  LIG1        0.1395
     20 C          -1.5330   -1.6210    0.0000 C.ar    1  LIG1        0.0400
     21 C          -2.4830   -1.9130    0.0000 C.ar    1  LIG1        0.0400
     22 C          -3.2960   -1.2170    0.0000 C.ar    1  LIG1        0.1389
     23 C          -3.0830   -0.2460    0.0000 C.ar    1  LIG1        0.0400
     24 C          -2.0790    0.0710    0.0000 C.ar    1  LIG1        0.0400
     25 O          -4.2210   -1.5130    0.0000 O.3     1  LIG1       -0.4714
     26 C          -4.4580   -2.4830    0.0000 C.3     1  LIG1        0.2525
     27 O           2.0210   -1.3540    0.0000 O.2     1  LIG1       -0.2701
@<TRIPOS>BOND
     1     1     2    1
     2     1     7    1
     3     1    16   am
     4     2     3   ar
     5     2    15   ar
     6     3     4    1
     7     3    12   ar
     8     4     5    1
     9     5     6    1
    10     6     7   ar
    11     6    11   ar
    12     7     8   ar
    13     8     9   ar
    14     9    10   ar
    15    10    11   ar
    16    12    13   ar
    17    13    14   ar
    18    14    15   ar
    19    16    17    1
    20    16    27    2
    21    17    18    1
    22    18    19    1
    23    19    20   ar
    24    19    24   ar
    25    20    21   ar
    26    21    22   ar
    27    22    23   ar
    28    22    25    1
    29    23    24   ar
    30    25    26    1
