@<TRIPOS>MOLECULE
29398_ChemDiv_8017-6262
 22 25 0 0 0
SMALL
GASTEIGER
Energy = 0

@<TRIPOS>ATOM
      1 C           0.4000   -1.9960    0.0000 C.2     1  LIG1        0.2419
      2 C          -0.5960   -2.0040    0.0000 C.3     1  LIG1        0.0869
      3 C          -1.1830   -2.8170    0.0000 C.3     1  LIG1        0.0355
      4 C          -2.1420   -2.5170    0.0000 C.ar    1  LIG1       -0.0256
      5 C          -2.1460   -1.5080    0.0000 C.ar    1  LIG1       -0.0256
      6 C          -1.1920   -1.1920    0.0000 C.3     1  LIG1        0.0355
      7 C          -3.0170   -1.0080    0.0000 C.ar    1  LIG1       -0.0046
      8 C          -3.8790   -1.5080    0.0000 C.ar    1  LIG1       -0.0003
      9 C          -3.8790   -2.5170    0.0000 C.ar    1  LIG1       -0.0003
     10 C          -3.0170   -3.0040    0.0000 C.ar    1  LIG1       -0.0046
     11 N           0.8920   -1.1210    0.0000 N.am    1  LIG1       -0.2005
     12 C           1.8920   -1.1210    0.0000 C.3     1  LIG1        0.1416
     13 C           2.3830   -0.2540    0.0000 C.ar    1  LIG1        0.0027
     14 C           1.8790    0.5960    0.0000 C.ar    1  LIG1        0.0376
     15 C           2.3670    1.4670    0.0000 C.ar    1  LIG1        0.1762
     16 C           3.3670    1.4790    0.0000 C.ar    1  LIG1        0.1764
     17 O           3.6630    2.4250    0.0000 O.3     1  LIG1       -0.4346
     18 C           2.8500    3.0080    0.0000 C.3     1  LIG1        0.4294
     19 O           2.0420    2.4130    0.0000 O.3     1  LIG1       -0.4346
     20 C           3.8750    0.6210    0.0000 C.ar    1  LIG1        0.0399
     21 C           3.3880   -0.2460    0.0000 C.ar    1  LIG1        0.0008
     22 O           0.9040   -2.8500    0.0000 O.2     1  LIG1       -0.2733
@<TRIPOS>BOND
     1     1     2    1
     2     1    11   am
     3     1    22    2
     4     2     3    1
     5     2     6    1
     6     3     4    1
     7     4     5   ar
     8     4    10   ar
     9     5     6    1
    10     5     7   ar
    11     7     8   ar
    12     8     9   ar
    13     9    10   ar
    14    11    12    1
    15    12    13    1
    16    13    14   ar
    17    13    21   ar
    18    14    15   ar
    19    15    16   ar
    20    15    19    1
    21    16    17    1
    22    16    20   ar
    23    17    18    1
    24    18    19    1
    25    20    21   ar
