@<TRIPOS>MOLECULE
29406_ChemDiv_3455-1360
 23 25 0 0 0
SMALL
GASTEIGER
Energy = 0

@<TRIPOS>ATOM
      1 C           1.5040   -0.7330    0.0000 C.2     1  LIG1        0.2648
      2 N           0.6250   -0.2250    0.0000 N.am    1  LIG1       -0.2013
      3 C          -0.2880   -0.7130    0.0000 C.3     1  LIG1        0.1196
      4 C          -1.3170   -0.0880    0.0000 C.3     1  LIG1        0.0438
      5 C          -2.2580   -0.5540    0.0000 C.ar    1  LIG1       -0.0210
      6 C          -2.2580   -1.6670    0.0000 C.ar    1  LIG1       -0.0042
      7 C          -3.1420   -2.1670    0.0000 C.ar    1  LIG1       -0.0003
      8 C          -4.1210   -1.6670    0.0000 C.ar    1  LIG1       -0.0000
      9 C          -4.1210   -0.6330    0.0000 C.ar    1  LIG1       -0.0003
     10 C          -3.1630   -0.0880    0.0000 C.ar    1  LIG1       -0.0042
     11 C          -0.5210    0.4420    0.0000 C.3     1  LIG1        0.0379
     12 C          -0.5210    1.2880    0.0000 C.3     1  LIG1        0.1425
     13 O          -1.2790    1.7080    0.0000 O.3     1  LIG1       -0.3538
     14 C          -2.1040    1.2880    0.0000 C.3     1  LIG1        0.1425
     15 C          -2.1040    0.4420    0.0000 C.3     1  LIG1        0.0379
     16 C           2.3670   -0.2540    0.0000 C.ar    1  LIG1        0.0559
     17 C           2.3670    0.7170    0.0000 C.ar    1  LIG1        0.0160
     18 C           3.2540    1.2210    0.0000 C.ar    1  LIG1        0.0578
     19 CL          3.2710    2.1710    0.0000 Cl      1  LIG1       -0.0822
     20 C           4.1170    0.7420    0.0000 C.ar    1  LIG1        0.0114
     21 C           4.1170   -0.2790    0.0000 C.ar    1  LIG1        0.0010
     22 C           3.2330   -0.7500    0.0000 C.ar    1  LIG1        0.0046
     23 O           1.5040   -1.7290    0.0000 O.2     1  LIG1       -0.2684
@<TRIPOS>BOND
     1     1     2   am
     2     1    16    1
     3     1    23    2
     4     2     3    1
     5     3     4    1
     6     4     5    1
     7     4    11    1
     8     4    15    1
     9     5     6   ar
    10     5    10   ar
    11     6     7   ar
    12     7     8   ar
    13     8     9   ar
    14     9    10   ar
    15    11    12    1
    16    12    13    1
    17    13    14    1
    18    14    15    1
    19    16    17   ar
    20    16    22   ar
    21    17    18   ar
    22    18    19    1
    23    18    20   ar
    24    20    21   ar
    25    21    22   ar
