@<TRIPOS>MOLECULE
29403_ChemDiv_C791-0001
 23 25 0 0 0
SMALL
GASTEIGER
Energy = 0

@<TRIPOS>ATOM
      1 C          -1.9420    0.9080    0.0000 C.ar    1  LIG1        0.1090
      2 C          -0.9880    0.6000    0.0000 C.2     1  LIG1        0.2733
      3 N          -0.2460    1.2710    0.0000 N.am    1  LIG1       -0.1745
      4 C           0.7210    1.0170    0.0000 C.ar    1  LIG1        0.0842
      5 C           1.4170    1.7210    0.0000 C.ar    1  LIG1        0.0726
      6 C           2.3790    1.4710    0.0000 C.ar    1  LIG1        0.0085
      7 C           2.6460    0.5000    0.0000 C.ar    1  LIG1       -0.0209
      8 C           1.9380   -0.2040    0.0000 C.ar    1  LIG1       -0.0029
      9 C           0.9670    0.0540    0.0000 C.ar    1  LIG1        0.0171
     10 C           3.6040    0.2500    0.0000 C.3     1  LIG1        0.0311
     11 CL          1.1500    2.6920    0.0000 Cl      1  LIG1       -0.0809
     12 O          -0.7750   -0.3710    0.0000 O.2     1  LIG1       -0.2679
     13 C          -2.7500    0.3290    0.0000 C.ar    1  LIG1        0.1270
     14 N          -3.5630    0.9040    0.0000 N.ar    1  LIG1       -0.0772
     15 O          -3.2630    1.8580    0.0000 O.2     1  LIG1       -0.3576
     16 C          -2.2580    1.8580    0.0000 C.ar    1  LIG1        0.1592
     17 C          -1.6710    2.6790    0.0000 C.3     1  LIG1        0.0755
     18 C          -2.7460   -0.6830    0.0000 C.ar    1  LIG1        0.0211
     19 C          -1.8830   -1.1830    0.0000 C.ar    1  LIG1        0.0016
     20 C          -1.8830   -2.1880    0.0000 C.ar    1  LIG1        0.0000
     21 C          -2.7460   -2.6880    0.0000 C.ar    1  LIG1        0.0000
     22 C          -3.6080   -2.1880    0.0000 C.ar    1  LIG1        0.0000
     23 C          -3.6080   -1.1830    0.0000 C.ar    1  LIG1        0.0016
@<TRIPOS>BOND
     1     1     2    1
     2     1    13   ar
     3     1    16   ar
     4     2     3   am
     5     2    12    2
     6     3     4    1
     7     4     5   ar
     8     4     9   ar
     9     5     6   ar
    10     5    11    1
    11     6     7   ar
    12     7     8   ar
    13     7    10    1
    14     8     9   ar
    15    13    14   ar
    16    13    18    1
    17    14    15   ar
    18    15    16   ar
    19    16    17    1
    20    18    19   ar
    21    18    23   ar
    22    19    20   ar
    23    20    21   ar
    24    21    22   ar
    25    22    23   ar
