@<TRIPOS>MOLECULE
29401_ChemDiv_8017-5806
 24 26 0 0 0
SMALL
GASTEIGER
Energy = 0

@<TRIPOS>ATOM
      1 C          -1.5080    0.9580    0.0000 C.ar    1  LIG1        0.1090
      2 C          -2.1080    0.1580    0.0000 C.ar    1  LIG1        0.1278
      3 N          -3.0460    0.4880    0.0000 N.ar    1  LIG1       -0.0772
      4 O          -3.0170    1.4880    0.0000 O.2     1  LIG1       -0.3576
      5 C          -2.0750    1.7710    0.0000 C.ar    1  LIG1        0.1592
      6 C          -1.7540    2.7330    0.0000 C.3     1  LIG1        0.0755
      7 C          -1.8500   -0.7920    0.0000 C.ar    1  LIG1        0.0316
      8 C          -2.5500   -1.5040    0.0000 C.ar    1  LIG1        0.0592
      9 CL         -3.5330   -1.2630    0.0000 Cl      1  LIG1       -0.0822
     10 C          -2.2960   -2.4670    0.0000 C.ar    1  LIG1        0.0114
     11 C          -1.3290   -2.7290    0.0000 C.ar    1  LIG1        0.0009
     12 C          -0.6170   -2.0170    0.0000 C.ar    1  LIG1        0.0001
     13 C          -0.8880   -1.0540    0.0000 C.ar    1  LIG1        0.0024
     14 C          -0.4960    0.9380    0.0000 C.2     1  LIG1        0.2733
     15 N           0.0130    1.8080    0.0000 N.am    1  LIG1       -0.1753
     16 C           1.0210    1.8000    0.0000 C.ar    1  LIG1        0.0744
     17 C           1.5170    0.9330    0.0000 C.ar    1  LIG1        0.0269
     18 C           2.5210    0.9330    0.0000 C.ar    1  LIG1        0.0697
     19 C           3.0250    0.0630    0.0000 C.1     1  LIG1        0.1005
     20 N           3.5290   -0.8040    0.0000 N.1     1  LIG1       -0.1908
     21 C           3.0170    1.8000    0.0000 C.ar    1  LIG1        0.0104
     22 C           2.5210    2.6630    0.0000 C.ar    1  LIG1        0.0020
     23 C           1.5170    2.6630    0.0000 C.ar    1  LIG1        0.0166
     24 O          -0.0080    0.0710    0.0000 O.2     1  LIG1       -0.2679
@<TRIPOS>BOND
     1     1     2   ar
     2     1     5   ar
     3     1    14    1
     4     2     3   ar
     5     2     7    1
     6     3     4   ar
     7     4     5   ar
     8     5     6    1
     9     7     8   ar
    10     7    13   ar
    11     8     9    1
    12     8    10   ar
    13    10    11   ar
    14    11    12   ar
    15    12    13   ar
    16    14    15   am
    17    14    24    2
    18    15    16    1
    19    16    17   ar
    20    16    23   ar
    21    17    18   ar
    22    18    19    1
    23    18    21   ar
    24    19    20    3
    25    21    22   ar
    26    22    23   ar
