@<TRIPOS>MOLECULE
29405_ChemDiv_C791-0005
 27 29 0 0 0
SMALL
GASTEIGER
Energy = 0

@<TRIPOS>ATOM
      1 C          -2.5540    0.9080    0.0000 C.ar    1  LIG1        0.1090
      2 C          -1.6000    0.6000    0.0000 C.2     1  LIG1        0.2733
      3 N          -0.8580    1.2710    0.0000 N.am    1  LIG1       -0.1756
      4 C           0.1080    1.0170    0.0000 C.ar    1  LIG1        0.0698
      5 C           0.8040    1.7210    0.0000 C.ar    1  LIG1       -0.0053
      6 C           1.7630    1.4710    0.0000 C.ar    1  LIG1        0.0115
      7 C           2.0290    0.5000    0.0000 C.ar    1  LIG1        0.0476
      8 N           2.9920    0.2420    0.0000 N.pl3   1  LIG1       -0.3075
      9 C           3.7000    0.9540    0.0000 C.3     1  LIG1        0.0908
     10 C           3.4420    1.9210    0.0000 C.3     1  LIG1        0.0232
     11 C           3.2500   -0.7170    0.0000 C.3     1  LIG1        0.0908
     12 C           4.2170   -0.9750    0.0000 C.3     1  LIG1        0.0232
     13 C           1.3250   -0.2040    0.0000 C.ar    1  LIG1        0.0158
     14 C           0.3540    0.0540    0.0000 C.ar    1  LIG1        0.0176
     15 C           0.5380    2.6920    0.0000 C.3     1  LIG1        0.0324
     16 O          -1.3880   -0.3710    0.0000 O.2     1  LIG1       -0.2679
     17 C          -3.3630    0.3170    0.0000 C.ar    1  LIG1        0.1270
     18 N          -4.1790    0.9040    0.0000 N.ar    1  LIG1       -0.0772
     19 O          -3.8750    1.8580    0.0000 O.2     1  LIG1       -0.3576
     20 C          -2.8750    1.8580    0.0000 C.ar    1  LIG1        0.1592
     21 C          -2.2830    2.6750    0.0000 C.3     1  LIG1        0.0755
     22 C          -3.3580   -0.6830    0.0000 C.ar    1  LIG1        0.0211
     23 C          -4.2210   -1.1830    0.0000 C.ar    1  LIG1        0.0016
     24 C          -4.2210   -2.1880    0.0000 C.ar    1  LIG1        0.0000
     25 C          -3.3580   -2.6880    0.0000 C.ar    1  LIG1        0.0000
     26 C          -2.4960   -2.1880    0.0000 C.ar    1  LIG1        0.0000
     27 C          -2.4960   -1.1830    0.0000 C.ar    1  LIG1        0.0016
@<TRIPOS>BOND
     1     1     2    1
     2     1    17   ar
     3     1    20   ar
     4     2     3   am
     5     2    16    2
     6     3     4    1
     7     4     5   ar
     8     4    14   ar
     9     5     6   ar
    10     5    15    1
    11     6     7   ar
    12     7     8    1
    13     7    13   ar
    14     8     9    1
    15     8    11    1
    16     9    10    1
    17    11    12    1
    18    13    14   ar
    19    17    18   ar
    20    17    22    1
    21    18    19   ar
    22    19    20   ar
    23    20    21    1
    24    22    23   ar
    25    22    27   ar
    26    23    24   ar
    27    24    25   ar
    28    25    26   ar
    29    26    27   ar
