@<TRIPOS>MOLECULE
29408_ChemDiv_3455-1444
 23 25 0 0 0
SMALL
GASTEIGER
Energy = 0

@<TRIPOS>ATOM
      1 C           1.0040   -0.5130    0.0000 C.2     1  LIG1        0.2648
      2 N           0.1750    0.0080    0.0000 N.am    1  LIG1       -0.2013
      3 C          -0.7000   -0.4540    0.0000 C.3     1  LIG1        0.1196
      4 C          -1.7250    0.1580    0.0000 C.3     1  LIG1        0.0438
      5 C          -2.6630   -0.3040    0.0000 C.ar    1  LIG1       -0.0210
      6 C          -3.5630    0.1580    0.0000 C.ar    1  LIG1       -0.0042
      7 C          -4.5210   -0.3500    0.0000 C.ar    1  LIG1       -0.0003
      8 C          -4.5210   -1.3880    0.0000 C.ar    1  LIG1       -0.0000
      9 C          -3.5630   -1.8830    0.0000 C.ar    1  LIG1       -0.0003
     10 C          -2.6630   -1.3880    0.0000 C.ar    1  LIG1       -0.0042
     11 C          -2.5170    0.6710    0.0000 C.3     1  LIG1        0.0379
     12 C          -2.5170    1.4960    0.0000 C.3     1  LIG1        0.1425
     13 O          -1.7250    1.8880    0.0000 O.3     1  LIG1       -0.3538
     14 C          -0.9380    1.4960    0.0000 C.3     1  LIG1        0.1425
     15 C          -0.9380    0.6710    0.0000 C.3     1  LIG1        0.0379
     16 C           1.8830   -0.0330    0.0000 C.ar    1  LIG1        0.0555
     17 C           2.8000   -0.5130    0.0000 C.ar    1  LIG1        0.0113
     18 C           3.6580   -0.0170    0.0000 C.ar    1  LIG1        0.0347
     19 BR          4.5170   -0.5130    0.0000 Br      1  LIG1       -0.0490
     20 C           3.6580    1.0210    0.0000 C.ar    1  LIG1        0.0067
     21 C           2.7580    1.5000    0.0000 C.ar    1  LIG1        0.0007
     22 C           1.9000    0.9540    0.0000 C.ar    1  LIG1        0.0046
     23 O           1.0040   -1.6130    0.0000 O.2     1  LIG1       -0.2684
@<TRIPOS>BOND
     1     1     2   am
     2     1    16    1
     3     1    23    2
     4     2     3    1
     5     3     4    1
     6     4     5    1
     7     4    11    1
     8     4    15    1
     9     5     6   ar
    10     5    10   ar
    11     6     7   ar
    12     7     8   ar
    13     8     9   ar
    14     9    10   ar
    15    11    12    1
    16    12    13    1
    17    13    14    1
    18    14    15    1
    19    16    17   ar
    20    16    22   ar
    21    17    18   ar
    22    18    19    1
    23    18    20   ar
    24    20    21   ar
    25    21    22   ar
