@<TRIPOS>MOLECULE
29409_ChemDiv_3332-2391
 27 31 0 0 0
SMALL
GASTEIGER
Energy = 0

@<TRIPOS>ATOM
      1 N           1.0920    1.8790    0.0000 N.am    1  LIG1        0.1637
      2 C           1.4000    0.9540    0.0000 C.2     1  LIG1        0.3812
      3 S           0.6290    0.3460    0.0000 S.3     1  LIG1        0.0133
      4 C          -0.1630    0.9210    0.0000 C.2     1  LIG1        0.1483
      5 C           0.1210    1.8790    0.0000 C.2     1  LIG1        0.4882
      6 O          -0.5080    2.7170    0.0000 O.2     1  LIG1       -0.2067
      7 C          -1.1380    0.6920    0.0000 C.2     1  LIG1        0.0165
      8 C          -1.4130   -0.2830    0.0000 C.ar    1  LIG1        0.0008
      9 C          -0.7210   -1.0130    0.0000 C.ar    1  LIG1        0.0000
     10 C          -1.0290   -1.9790    0.0000 C.ar    1  LIG1        0.0000
     11 C          -2.0080   -2.2000    0.0000 C.ar    1  LIG1        0.0000
     12 C          -2.6540   -1.4920    0.0000 C.ar    1  LIG1        0.0000
     13 C          -2.3830   -0.5250    0.0000 C.ar    1  LIG1        0.0000
     14 C          -3.0830    0.1960    0.0000 C.ar    1  LIG1        0.0000
     15 C          -4.0580   -0.0670    0.0000 C.ar    1  LIG1        0.0000
     16 C          -4.3420   -1.0250    0.0000 C.ar    1  LIG1        0.0000
     17 C          -3.6290   -1.7290    0.0000 C.ar    1  LIG1        0.0000
     18 C          -0.3540   -2.7130    0.0000 C.ar    1  LIG1        0.0000
     19 C           0.6290   -2.4830    0.0000 C.ar    1  LIG1        0.0000
     20 C           0.9290   -1.5460    0.0000 C.ar    1  LIG1        0.0000
     21 C           0.2500   -0.8080    0.0000 C.ar    1  LIG1        0.0000
     22 N           2.3500    0.7380    0.0000 N.pl3   1  LIG1       -0.2408
     23 C           3.0380    1.4750    0.0000 C.3     1  LIG1        0.1290
     24 C           4.0250    1.2580    0.0000 C.3     1  LIG1        0.1638
     25 O           4.3380    0.2710    0.0000 O.3     1  LIG1       -0.3501
     26 C           3.6210   -0.4460    0.0000 C.3     1  LIG1        0.1638
     27 C           2.6580   -0.2290    0.0000 C.3     1  LIG1        0.1290
@<TRIPOS>BOND
     1     1     2    2
     2     1     5   am
     3     2     3    1
     4     2    22    1
     5     3     4    1
     6     4     5    1
     7     4     7    2
     8     5     6    2
     9     7     8    1
    10     8     9   ar
    11     8    13   ar
    12     9    10   ar
    13     9    21   ar
    14    10    11   ar
    15    10    18   ar
    16    11    12   ar
    17    12    13   ar
    18    12    17   ar
    19    13    14   ar
    20    14    15   ar
    21    15    16   ar
    22    16    17   ar
    23    18    19   ar
    24    19    20   ar
    25    20    21   ar
    26    22    23    1
    27    22    27    1
    28    23    24    1
    29    24    25    1
    30    25    26    1
    31    26    27    1
