@<TRIPOS>MOLECULE
29400_ChemDiv_3379-1411
 32 37 0 0 0
SMALL
GASTEIGER
Energy = 0

@<TRIPOS>ATOM
      1 N          -2.5960   -0.0040    0.0000 N.am    1  LIG1       -0.2081
      2 C          -3.1790   -0.7960    0.0000 C.2     1  LIG1        0.2354
      3 C          -4.1290   -0.4790    0.0000 C.3     1  LIG1        0.0903
      4 C          -4.1290    0.4920    0.0000 C.3     1  LIG1        0.0903
      5 C          -3.1790    0.7960    0.0000 C.2     1  LIG1        0.2354
      6 O          -2.8750    1.7460    0.0000 O.2     1  LIG1       -0.2741
      7 C          -4.9920    1.0000    0.0000 C.3     1  LIG1        0.0311
      8 C          -5.8500    0.4920    0.0000 C.2     1  LIG1       -0.0305
      9 C          -5.8500   -0.4960    0.0000 C.2     1  LIG1       -0.0305
     10 C          -4.9920   -0.9790    0.0000 C.3     1  LIG1        0.0311
     11 C          -4.4670    0.0790    0.0000 C.3     1  LIG1        0.0096
     12 O          -2.8750   -1.7420    0.0000 O.2     1  LIG1       -0.2741
     13 C          -1.6080   -0.0040    0.0000 C.ar    1  LIG1        0.0606
     14 C          -1.1250    0.8670    0.0000 C.ar    1  LIG1        0.0155
     15 C          -0.1330    0.8670    0.0000 C.ar    1  LIG1        0.0059
     16 C           0.3710    0.0080    0.0000 C.ar    1  LIG1        0.0555
     17 C           1.3750    0.0080    0.0000 C.2     1  LIG1        0.2690
     18 N           1.8750    0.8790    0.0000 N.am    1  LIG1       -0.1739
     19 C           2.8630    0.8790    0.0000 C.ar    1  LIG1        0.0912
     20 C           3.3580    0.0080    0.0000 C.ar    1  LIG1        0.0962
     21 C           4.3500    0.0080    0.0000 C.ar    1  LIG1        0.0150
     22 C           4.8420   -0.8380    0.0000 C.ar    1  LIG1       -0.0188
     23 C           4.3580   -1.6960    0.0000 C.ar    1  LIG1        0.0164
     24 C           3.3580   -1.6960    0.0000 C.ar    1  LIG1        0.0986
     25 N           2.8630   -0.8380    0.0000 N.ar    1  LIG1       -0.2425
     26 C           5.8460   -0.8380    0.0000 C.3     1  LIG1        0.0311
     27 C           4.8540    0.8670    0.0000 C.ar    1  LIG1        0.0013
     28 C           4.3500    1.7420    0.0000 C.ar    1  LIG1        0.0014
     29 C           3.3580    1.7420    0.0000 C.ar    1  LIG1        0.0181
     30 O           1.8750   -0.8500    0.0000 O.2     1  LIG1       -0.2680
     31 C          -0.1170   -0.8500    0.0000 C.ar    1  LIG1        0.0059
     32 C          -1.1250   -0.8500    0.0000 C.ar    1  LIG1        0.0155
@<TRIPOS>BOND
     1     1     2   am
     2     1     5   am
     3     1    13    1
     4     2     3    1
     5     2    12    2
     6     3     4    1
     7     3    10    1
     8     4     5    1
     9     4     7    1
    10     5     6    2
    11     7     8    1
    12     7    11    1
    13     8     9    2
    14     9    10    1
    15    10    11    1
    16    13    14   ar
    17    13    32   ar
    18    14    15   ar
    19    15    16   ar
    20    16    17    1
    21    16    31   ar
    22    17    18   am
    23    17    30    2
    24    18    19    1
    25    19    20   ar
    26    19    29   ar
    27    20    21   ar
    28    20    25   ar
    29    21    22   ar
    30    21    27   ar
    31    22    23   ar
    32    22    26    1
    33    23    24   ar
    34    24    25   ar
    35    27    28   ar
    36    28    29   ar
    37    31    32   ar
