@<TRIPOS>MOLECULE
29412_ChemDiv_4119-0100
 22 24 0 0 0
SMALL
GASTEIGER
Energy = 0

@<TRIPOS>ATOM
      1 N          -0.2670    0.8500    0.0000 N.pl3   1  LIG1       -0.2871
      2 C           0.6830    1.2250    0.0000 C.ar    1  LIG1        0.0484
      3 C           1.3580    0.5000    0.0000 C.ar    1  LIG1        0.0259
      4 C           2.3290    0.7330    0.0000 C.ar    1  LIG1        0.0589
      5 C           2.6330    1.6920    0.0000 C.ar    1  LIG1        0.0112
      6 C           1.9380    2.4130    0.0000 C.ar    1  LIG1       -0.0022
      7 C           0.9630    2.1750    0.0000 C.ar    1  LIG1       -0.0082
      8 C           0.4000    2.9920    0.0000 C.3     1  LIG1        0.0323
      9 C          -0.5920    3.1040    0.0000 C.3     1  LIG1        0.0323
     10 C          -1.2880    2.3580    0.0000 C.ar    1  LIG1       -0.0082
     11 C          -1.1290    1.3630    0.0000 C.ar    1  LIG1        0.0475
     12 C          -1.9420    0.7330    0.0000 C.ar    1  LIG1        0.0145
     13 C          -2.8750    1.1080    0.0000 C.ar    1  LIG1        0.0013
     14 C          -3.0080    2.1000    0.0000 C.ar    1  LIG1       -0.0002
     15 C          -2.2170    2.7330    0.0000 C.ar    1  LIG1       -0.0030
     16 CL          3.0040    0.0130    0.0000 Cl      1  LIG1       -0.0822
     17 C          -0.2670   -0.1500    0.0000 C.3     1  LIG1        0.1017
     18 C           0.5880   -0.6330    0.0000 C.3     1  LIG1        0.0844
     19 C           0.6040   -1.6170    0.0000 C.3     1  LIG1        0.1410
     20 N           1.4580   -2.0960    0.0000 N.4     1  LIG1        0.3867
     21 C           1.4750   -3.1000    0.0000 C.3     1  LIG1        0.2025
     22 C           2.2880   -1.5750    0.0000 C.3     1  LIG1        0.2025
@<TRIPOS>BOND
     1     1     2    1
     2     1    11    1
     3     1    17    1
     4     2     3   ar
     5     2     7   ar
     6     3     4   ar
     7     4     5   ar
     8     4    16    1
     9     5     6   ar
    10     6     7   ar
    11     7     8    1
    12     8     9    1
    13     9    10    1
    14    10    11   ar
    15    10    15   ar
    16    11    12   ar
    17    12    13   ar
    18    13    14   ar
    19    14    15   ar
    20    17    18    1
    21    18    19    1
    22    19    20    1
    23    20    21    1
    24    20    22    1
