@<TRIPOS>MOLECULE
29410_ChemDiv_4048-1314
 20 22 0 0 0
SMALL
GASTEIGER
Energy = 0

@<TRIPOS>ATOM
      1 N          -0.7170   -0.4420    0.0000 N.pl3   1  LIG1       -0.2872
      2 C          -1.6500   -0.8040    0.0000 C.ar    1  LIG1        0.0475
      3 C          -2.5170   -0.3040    0.0000 C.ar    1  LIG1       -0.0082
      4 C          -2.6670    0.6790    0.0000 C.3     1  LIG1        0.0323
      5 C          -1.9920    1.4080    0.0000 C.3     1  LIG1        0.0323
      6 C          -0.9960    1.3330    0.0000 C.ar    1  LIG1       -0.0082
      7 C          -0.4250    0.5080    0.0000 C.ar    1  LIG1        0.0475
      8 C           0.5670    0.5790    0.0000 C.ar    1  LIG1        0.0145
      9 C           1.0000    1.4790    0.0000 C.ar    1  LIG1        0.0013
     10 C           0.4330    2.3170    0.0000 C.ar    1  LIG1       -0.0002
     11 C          -0.5580    2.2330    0.0000 C.ar    1  LIG1       -0.0030
     12 C          -3.3880   -0.8040    0.0000 C.ar    1  LIG1       -0.0030
     13 C          -3.3880   -1.8080    0.0000 C.ar    1  LIG1       -0.0002
     14 C          -2.5170   -2.3130    0.0000 C.ar    1  LIG1        0.0013
     15 C          -1.6500   -1.8080    0.0000 C.ar    1  LIG1        0.0145
     16 C           0.0040   -1.1210    0.0000 C.3     1  LIG1        0.1019
     17 C           0.9580   -0.8290    0.0000 C.3     1  LIG1        0.0906
     18 C           1.6920   -1.5080    0.0000 C.3     1  LIG1        0.2027
     19 N           2.6540   -1.2130    0.0000 N.4     1  LIG1        0.4533
     20 C           3.3830   -1.8920    0.0000 C.3     1  LIG1        0.2704
@<TRIPOS>BOND
     1     1     2    1
     2     1     7    1
     3     1    16    1
     4     2     3   ar
     5     2    15   ar
     6     3     4    1
     7     3    12   ar
     8     4     5    1
     9     5     6    1
    10     6     7   ar
    11     6    11   ar
    12     7     8   ar
    13     8     9   ar
    14     9    10   ar
    15    10    11   ar
    16    12    13   ar
    17    13    14   ar
    18    14    15   ar
    19    16    17    1
    20    17    18    1
    21    18    19    1
    22    19    20    1
