@<TRIPOS>MOLECULE
29411_ChemDiv_3333-4215
 31 35 0 0 0
SMALL
GASTEIGER
Energy = 0

@<TRIPOS>ATOM
      1 C          -2.8210    0.2080    0.0000 C.ar    1  LIG1        0.1635
      2 N          -3.8000    0.3580    0.0000 N.ar    1  LIG1       -0.2250
      3 C          -3.9040    1.3670    0.0000 C.ar    1  LIG1        0.1006
      4 C          -2.9750    1.7790    0.0000 C.ar    1  LIG1        0.1006
      5 N          -2.3420    1.0500    0.0000 N.ar    1  LIG1       -0.2250
      6 C          -2.8960    2.7880    0.0000 C.ar    1  LIG1        0.0207
      7 C          -3.6920    3.3420    0.0000 C.ar    1  LIG1        0.0016
      8 C          -4.6250    2.9630    0.0000 C.ar    1  LIG1        0.0016
      9 C          -4.7000    1.9290    0.0000 C.ar    1  LIG1        0.0207
     10 C          -2.3000   -0.6630    0.0000 C.ar    1  LIG1        0.0511
     11 C          -1.3080   -0.6630    0.0000 C.ar    1  LIG1        0.0766
     12 N          -0.7670    0.2080    0.0000 N.am    1  LIG1       -0.1753
     13 C           0.1710    0.1670    0.0000 C.2     1  LIG1        0.2690
     14 C           0.6830   -0.6750    0.0000 C.ar    1  LIG1        0.0566
     15 C           1.6880   -0.6750    0.0000 C.ar    1  LIG1        0.0199
     16 C           2.1790   -1.5500    0.0000 C.ar    1  LIG1        0.0608
     17 N           3.1630   -1.5500    0.0000 N.am    1  LIG1       -0.2081
     18 C           3.7460   -0.7790    0.0000 C.2     1  LIG1        0.2356
     19 C           4.6670   -1.1290    0.0000 C.3     1  LIG1        0.0956
     20 C           4.6960   -2.0750    0.0000 C.3     1  LIG1        0.0956
     21 C           3.7460   -2.3880    0.0000 C.2     1  LIG1        0.2356
     22 O           3.3580   -3.3380    0.0000 O.2     1  LIG1       -0.2741
     23 O           3.4630    0.1670    0.0000 O.2     1  LIG1       -0.2741
     24 C           1.6880   -2.4500    0.0000 C.ar    1  LIG1        0.0153
     25 C           0.6630   -2.4670    0.0000 C.ar    1  LIG1        0.0014
     26 C           0.1420   -1.5790    0.0000 C.ar    1  LIG1        0.0047
     27 O           0.6960    1.0080    0.0000 O.2     1  LIG1       -0.2680
     28 C          -0.7920   -1.5000    0.0000 C.ar    1  LIG1        0.0167
     29 C          -1.2710   -2.3880    0.0000 C.ar    1  LIG1        0.0013
     30 C          -2.3420   -2.3710    0.0000 C.ar    1  LIG1        0.0002
     31 C          -2.8210   -1.5130    0.0000 C.ar    1  LIG1        0.0043
@<TRIPOS>BOND
     1     1     2   ar
     2     1     5   ar
     3     1    10    1
     4     2     3   ar
     5     3     4   ar
     6     3     9   ar
     7     4     5   ar
     8     4     6   ar
     9     6     7   ar
    10     7     8   ar
    11     8     9   ar
    12    10    11   ar
    13    10    31   ar
    14    11    12    1
    15    11    28   ar
    16    12    13   am
    17    13    14    1
    18    13    27    2
    19    14    15   ar
    20    14    26   ar
    21    15    16   ar
    22    16    17    1
    23    16    24   ar
    24    17    18   am
    25    17    21   am
    26    18    19    1
    27    18    23    2
    28    19    20    1
    29    20    21    1
    30    21    22    2
    31    24    25   ar
    32    25    26   ar
    33    28    29   ar
    34    29    30   ar
    35    30    31   ar
