@<TRIPOS>MOLECULE
29416_ChemDiv_3389-2399
 24 28 0 0 0
SMALL
GASTEIGER
Energy = 0

@<TRIPOS>ATOM
      1 C           0.4170   -0.5630    0.0000 C.2     1  LIG1        0.0489
      2 C          -0.1290    0.2330    0.0000 C.2     1  LIG1        0.0816
      3 N           0.1250    1.1920    0.0000 N.2     1  LIG1       -0.2450
      4 C           1.0710    1.5960    0.0000 C.ar    1  LIG1        0.0869
      5 C           1.9170    1.0960    0.0000 C.ar    1  LIG1        0.0434
      6 S           2.0710    0.1920    0.0000 S.3     1  LIG1       -0.1034
      7 C           1.4170   -0.6130    0.0000 C.3     1  LIG1        0.1068
      8 C           1.7920   -1.5210    0.0000 C.ar    1  LIG1        0.0216
      9 S           2.7170   -1.6540    0.0000 S.2     1  LIG1       -0.0896
     10 C           2.8750   -2.6460    0.0000 C.ar    1  LIG1        0.0352
     11 C           1.9670   -3.0920    0.0000 C.ar    1  LIG1        0.0072
     12 C           1.2920   -2.3630    0.0000 C.ar    1  LIG1        0.0039
     13 C           2.7580    1.6380    0.0000 C.ar    1  LIG1        0.0077
     14 C           2.7170    2.6380    0.0000 C.ar    1  LIG1        0.0006
     15 C           1.8750    3.0960    0.0000 C.ar    1  LIG1        0.0016
     16 C           1.0080    2.5960    0.0000 C.ar    1  LIG1        0.0196
     17 C          -1.0880   -0.0630    0.0000 C.ar    1  LIG1        0.0205
     18 C          -1.0880   -1.1130    0.0000 C.ar    1  LIG1        0.0402
     19 C          -0.1290   -1.4040    0.0000 C.2     1  LIG1        0.1942
     20 O           0.1670   -2.4040    0.0000 O.2     1  LIG1       -0.2868
     21 C          -1.9920   -1.6130    0.0000 C.ar    1  LIG1        0.0032
     22 C          -2.8790   -1.0630    0.0000 C.ar    1  LIG1        0.0001
     23 C          -2.8790   -0.1130    0.0000 C.ar    1  LIG1        0.0001
     24 C          -1.9920    0.4380    0.0000 C.ar    1  LIG1        0.0016
@<TRIPOS>BOND
     1     1     2    1
     2     1     7    1
     3     1    19    2
     4     2     3    2
     5     2    17    1
     6     3     4    1
     7     4     5   ar
     8     4    16   ar
     9     5     6    1
    10     5    13   ar
    11     6     7    1
    12     7     8    1
    13     8     9   ar
    14     8    12   ar
    15     9    10   ar
    16    10    11   ar
    17    11    12   ar
    18    13    14   ar
    19    14    15   ar
    20    15    16   ar
    21    17    18   ar
    22    17    24   ar
    23    18    19    1
    24    18    21   ar
    25    19    20    1
    26    21    22   ar
    27    22    23   ar
    28    23    24   ar
