@<TRIPOS>MOLECULE
29417_ChemDiv_3334-3904
 23 24 0 0 0
SMALL
GASTEIGER
Energy = 0

@<TRIPOS>ATOM
      1 S          -1.4210   -0.2460    0.0000 S.O2    1  LIG1        0.0662
      2 C          -0.8960    0.6330    0.0000 C.ar    1  LIG1        0.1559
      3 C          -1.3790    1.5000    0.0000 C.ar    1  LIG1        0.1572
      4 C          -0.8960    2.3710    0.0000 C.ar    1  LIG1        0.0383
      5 C           0.1210    2.3460    0.0000 C.ar    1  LIG1        0.0032
      6 C           0.5920    1.4790    0.0000 C.ar    1  LIG1        0.0016
      7 C           0.0880    0.6330    0.0000 C.ar    1  LIG1        0.0230
      8 C           1.6330    1.4790    0.0000 C.2     1  LIG1        0.0012
      9 C           2.1250    2.3460    0.0000 C.2     1  LIG1        0.0151
     10 C           3.1290    2.3290    0.0000 C.2     1  LIG1        0.0729
     11 O           3.6380    3.1750    0.0000 O.co2   1  LIG1       -0.5446
     12 O           3.5960    1.4630    0.0000 O.co2   1  LIG1       -0.5446
     13 O          -2.4080    1.5250    0.0000 O.3     1  LIG1       -0.4701
     14 C          -2.8920    2.4170    0.0000 C.3     1  LIG1        0.2525
     15 N          -1.9080   -1.1000    0.0000 N.3     1  LIG1       -0.1554
     16 C          -2.8920   -0.9420    0.0000 C.3     1  LIG1        0.0958
     17 C          -3.6420   -1.6000    0.0000 C.3     1  LIG1        0.0191
     18 C          -3.5960   -2.5880    0.0000 C.3     1  LIG1        0.0015
     19 C          -2.7790   -3.1710    0.0000 C.3     1  LIG1        0.0015
     20 C          -1.8290   -2.8880    0.0000 C.3     1  LIG1        0.0191
     21 C          -1.4500   -1.9670    0.0000 C.3     1  LIG1        0.0958
     22 O          -2.2960    0.2750    0.0000 O.2     1  LIG1       -0.1527
     23 O          -0.5580   -0.7540    0.0000 O.2     1  LIG1       -0.1527
@<TRIPOS>BOND
     1     1     2    1
     2     1    15    1
     3     1    22    2
     4     1    23    2
     5     2     3   ar
     6     2     7   ar
     7     3     4   ar
     8     3    13    1
     9     4     5   ar
    10     5     6   ar
    11     6     7   ar
    12     6     8    1
    13     8     9    2
    14     9    10    1
    15    10    11   ar
    16    10    12   ar
    17    13    14    1
    18    15    16    1
    19    15    21    1
    20    16    17    1
    21    17    18    1
    22    18    19    1
    23    19    20    1
    24    20    21    1
