@<TRIPOS>MOLECULE
29422_ChemDiv_C472-0022
 25 29 0 0 0
SMALL
GASTEIGER
Energy = 0

@<TRIPOS>ATOM
      1 C           0.3710    0.3790    0.0000 C.2     1  LIG1        0.0485
      2 C          -0.2290   -0.4380    0.0000 C.2     1  LIG1        0.0816
      3 N          -0.1130   -1.2790    0.0000 N.2     1  LIG1       -0.2450
      4 C           0.7920   -1.7330    0.0000 C.ar    1  LIG1        0.0869
      5 C           1.7130   -1.2630    0.0000 C.ar    1  LIG1        0.0434
      6 S           1.9210   -0.2420    0.0000 S.3     1  LIG1       -0.1038
      7 C           1.2460    0.4880    0.0000 C.3     1  LIG1        0.1023
      8 C           1.5830    1.4210    0.0000 C.ar    1  LIG1        0.0113
      9 C           2.5750    1.6130    0.0000 C.ar    1  LIG1        0.0957
     10 N           2.9130    2.5500    0.0000 N.ar    1  LIG1       -0.2426
     11 C           2.2580    3.3170    0.0000 C.ar    1  LIG1        0.0989
     12 C           1.2750    3.1420    0.0000 C.ar    1  LIG1        0.0204
     13 C           0.9290    2.1920    0.0000 C.ar    1  LIG1        0.0000
     14 C           2.5580   -1.8250    0.0000 C.ar    1  LIG1        0.0077
     15 C           2.5130   -2.8540    0.0000 C.ar    1  LIG1        0.0006
     16 C           1.5920   -3.3130    0.0000 C.ar    1  LIG1        0.0016
     17 C           0.7290   -2.7460    0.0000 C.ar    1  LIG1        0.0196
     18 C          -1.1790   -0.1210    0.0000 C.ar    1  LIG1        0.0205
     19 C          -1.1790    0.8750    0.0000 C.ar    1  LIG1        0.0402
     20 C          -0.2290    1.1920    0.0000 C.2     1  LIG1        0.1942
     21 O           0.0880    2.1500    0.0000 O.2     1  LIG1       -0.2868
     22 C          -2.0540    1.3750    0.0000 C.ar    1  LIG1        0.0032
     23 C          -2.9170    0.8750    0.0000 C.ar    1  LIG1        0.0001
     24 C          -2.9170   -0.1210    0.0000 C.ar    1  LIG1        0.0001
     25 C          -2.0540   -0.6290    0.0000 C.ar    1  LIG1        0.0016
@<TRIPOS>BOND
     1     1     2    1
     2     1     7    1
     3     1    20    2
     4     2     3    2
     5     2    18    1
     6     3     4    1
     7     4     5   ar
     8     4    17   ar
     9     5     6    1
    10     5    14   ar
    11     6     7    1
    12     7     8    1
    13     8     9   ar
    14     8    13   ar
    15     9    10   ar
    16    10    11   ar
    17    11    12   ar
    18    12    13   ar
    19    14    15   ar
    20    15    16   ar
    21    16    17   ar
    22    18    19   ar
    23    18    25   ar
    24    19    20    1
    25    19    22   ar
    26    20    21    1
    27    22    23   ar
    28    23    24   ar
    29    24    25   ar
