@<TRIPOS>MOLECULE
29427_ChemDiv_3365-5651
 21 23 0 0 0
SMALL
GASTEIGER
Energy = 0

@<TRIPOS>ATOM
      1 C           1.8630   -0.7080    0.0000 C.3     1  LIG1        0.1173
      2 C           2.8460   -0.7080    0.0000 C.3     1  LIG1        0.0793
      3 C           3.3380   -1.5250    0.0000 C.3     1  LIG1        0.1429
      4 O           2.3670   -1.8750    0.0000 O.3     1  LIG1       -0.3491
      5 C           1.3830   -1.5500    0.0000 C.3     1  LIG1        0.1463
      6 C           1.8750   -2.4170    0.0000 C.2     1  LIG1        0.0012
      7 C           2.8460   -2.3920    0.0000 C.2     1  LIG1        0.0011
      8 C           3.3670    0.1460    0.0000 C.2     1  LIG1        0.0532
      9 O           2.8830    1.0580    0.0000 O.co2   1  LIG1       -0.5491
     10 O           4.3420    0.0460    0.0000 O.co2   1  LIG1       -0.5491
     11 C           1.3540    0.1380    0.0000 C.2     1  LIG1        0.2441
     12 O           1.8380    1.0080    0.0000 O.2     1  LIG1       -0.2732
     13 N           0.3580    0.1380    0.0000 N.am    1  LIG1       -0.2053
     14 C          -0.1750    0.9790    0.0000 C.3     1  LIG1        0.1171
     15 C          -1.1920    0.9000    0.0000 C.3     1  LIG1        0.0479
     16 C          -1.7500    1.7380    0.0000 C.3     1  LIG1        0.1095
     17 N          -2.7460    1.6630    0.0000 N.ar    1  LIG1       -0.3078
     18 C          -3.4250    2.4210    0.0000 C.ar    1  LIG1        0.1786
     19 N          -4.3460    2.0170    0.0000 N.ar    1  LIG1       -0.2223
     20 C          -4.2210    1.0000    0.0000 C.ar    1  LIG1        0.1193
     21 C          -3.2540    0.7960    0.0000 C.ar    1  LIG1        0.0980
@<TRIPOS>BOND
     1     1     2    1
     2     1     5    1
     3     1    11    1
     4     2     3    1
     5     2     8    1
     6     3     4    1
     7     3     7    1
     8     4     5    1
     9     5     6    1
    10     6     7    2
    11     8     9   ar
    12     8    10   ar
    13    11    12    2
    14    11    13   am
    15    13    14    1
    16    14    15    1
    17    15    16    1
    18    16    17    1
    19    17    18   ar
    20    17    21   ar
    21    18    19   ar
    22    19    20   ar
    23    20    21   ar
