@<TRIPOS>MOLECULE
29420_ChemDiv_C472-0012
 29 33 0 0 0
SMALL
GASTEIGER
Energy = 0

@<TRIPOS>ATOM
      1 C           0.1250   -0.2210    0.0000 C.2     1  LIG1        0.0486
      2 C          -0.4670   -1.0250    0.0000 C.2     1  LIG1        0.0816
      3 N          -0.1920   -2.0080    0.0000 N.2     1  LIG1       -0.2450
      4 C           0.7290   -2.4040    0.0000 C.ar    1  LIG1        0.0869
      5 C           1.6130   -1.9130    0.0000 C.ar    1  LIG1        0.0434
      6 S           1.7830   -0.9210    0.0000 S.3     1  LIG1       -0.1038
      7 C           1.1290   -0.1750    0.0000 C.3     1  LIG1        0.1038
      8 C           1.4000    0.7830    0.0000 C.ar    1  LIG1        0.0263
      9 C           2.3580    1.0460    0.0000 C.ar    1  LIG1        0.1388
     10 C           2.6130    2.0040    0.0000 C.ar    1  LIG1        0.0735
     11 C           1.9170    2.7040    0.0000 C.ar    1  LIG1        0.1417
     12 C           0.9500    2.4460    0.0000 C.ar    1  LIG1        0.0368
     13 C           0.7000    1.5000    0.0000 C.ar    1  LIG1        0.0030
     14 O           2.1790    3.6670    0.0000 O.3     1  LIG1       -0.4713
     15 C           3.1460    3.9250    0.0000 C.3     1  LIG1        0.2525
     16 O           3.0580    0.3380    0.0000 O.3     1  LIG1       -0.4716
     17 C           2.7920   -0.6330    0.0000 C.3     1  LIG1        0.2525
     18 C           2.4630   -2.4420    0.0000 C.ar    1  LIG1        0.0077
     19 C           2.4460   -3.4580    0.0000 C.ar    1  LIG1        0.0006
     20 C           1.5540   -3.9210    0.0000 C.ar    1  LIG1        0.0016
     21 C           0.7040   -3.4000    0.0000 C.ar    1  LIG1        0.0196
     22 C          -1.4170   -0.7250    0.0000 C.ar    1  LIG1        0.0205
     23 C          -1.4170    0.2750    0.0000 C.ar    1  LIG1        0.0402
     24 C          -0.4670    0.5790    0.0000 C.2     1  LIG1        0.1942
     25 O          -0.1500    1.5420    0.0000 O.2     1  LIG1       -0.2868
     26 C          -2.2750    0.7710    0.0000 C.ar    1  LIG1        0.0032
     27 C          -3.1500    0.2750    0.0000 C.ar    1  LIG1        0.0001
     28 C          -3.1500   -0.7250    0.0000 C.ar    1  LIG1        0.0001
     29 C          -2.2750   -1.2290    0.0000 C.ar    1  LIG1        0.0016
@<TRIPOS>BOND
     1     1     2    1
     2     1     7    1
     3     1    24    2
     4     2     3    2
     5     2    22    1
     6     3     4    1
     7     4     5   ar
     8     4    21   ar
     9     5     6    1
    10     5    18   ar
    11     6     7    1
    12     7     8    1
    13     8     9   ar
    14     8    13   ar
    15     9    10   ar
    16     9    16    1
    17    10    11   ar
    18    11    12   ar
    19    11    14    1
    20    12    13   ar
    21    14    15    1
    22    16    17    1
    23    18    19   ar
    24    19    20   ar
    25    20    21   ar
    26    22    23   ar
    27    22    29   ar
    28    23    24    1
    29    23    26   ar
    30    24    25    1
    31    26    27   ar
    32    27    28   ar
    33    28    29   ar
