@<TRIPOS>MOLECULE
29425_ChemDiv_K213-0063
 34 37 0 0 0
SMALL
GASTEIGER
Energy = 0

@<TRIPOS>ATOM
      1 C           2.2830    1.4580    0.0000 C.ar    1  LIG1        0.1090
      2 C           3.1290    0.9380    0.0000 C.ar    1  LIG1        0.1278
      3 N           3.8790    1.6080    0.0000 N.ar    1  LIG1       -0.0772
      4 O           3.4710    2.5210    0.0000 O.2     1  LIG1       -0.3576
      5 C           2.5040    2.4290    0.0000 C.ar    1  LIG1        0.1592
      6 C           1.8580    3.1670    0.0000 C.3     1  LIG1        0.0755
      7 C           3.4000   -0.0040    0.0000 C.ar    1  LIG1        0.0316
      8 C           2.6880   -0.7330    0.0000 C.ar    1  LIG1        0.0592
      9 CL          1.7170   -0.4750    0.0000 Cl      1  LIG1       -0.0822
     10 C           2.9540   -1.6710    0.0000 C.ar    1  LIG1        0.0114
     11 C           3.8960   -1.9420    0.0000 C.ar    1  LIG1        0.0009
     12 C           4.6210   -1.2250    0.0000 C.ar    1  LIG1        0.0001
     13 C           4.3750   -0.2830    0.0000 C.ar    1  LIG1        0.0024
     14 C           1.3420    1.0540    0.0000 C.2     1  LIG1        0.2733
     15 N           0.5460    1.6880    0.0000 N.am    1  LIG1       -0.1739
     16 C          -0.3790    1.2790    0.0000 C.ar    1  LIG1        0.0920
     17 C          -0.5000    0.2830    0.0000 C.ar    1  LIG1        0.0891
     18 N           0.3130   -0.3330    0.0000 N.am    1  LIG1       -0.1741
     19 C           0.1960   -1.3210    0.0000 C.2     1  LIG1        0.2690
     20 O           1.0130   -1.9250    0.0000 O.2     1  LIG1       -0.2680
     21 C          -0.6960   -1.7420    0.0000 C.ar    1  LIG1        0.0554
     22 C          -0.8040   -2.7420    0.0000 C.ar    1  LIG1        0.0046
     23 C          -1.6960   -3.1630    0.0000 C.ar    1  LIG1        0.0001
     24 C          -2.5420   -2.5880    0.0000 C.ar    1  LIG1        0.0000
     25 C          -2.4330   -1.5960    0.0000 C.ar    1  LIG1        0.0001
     26 C          -1.5210   -1.1750    0.0000 C.ar    1  LIG1        0.0046
     27 C          -1.4420   -0.1080    0.0000 C.ar    1  LIG1        0.0210
     28 C          -2.2380    0.4880    0.0000 C.ar    1  LIG1        0.0383
     29 C          -2.0960    1.4750    0.0000 C.ar    1  LIG1        0.1399
     30 C          -1.1960    1.8790    0.0000 C.ar    1  LIG1        0.0548
     31 O          -2.9040    2.1000    0.0000 O.3     1  LIG1       -0.4754
     32 C          -3.8580    1.7330    0.0000 C.3     1  LIG1        0.2055
     33 C          -4.6250    2.3210    0.0000 C.3     1  LIG1        0.0512
     34 O           1.2170    0.0920    0.0000 O.2     1  LIG1       -0.2679
@<TRIPOS>BOND
     1     1     2   ar
     2     1     5   ar
     3     1    14    1
     4     2     3   ar
     5     2     7    1
     6     3     4   ar
     7     4     5   ar
     8     5     6    1
     9     7     8   ar
    10     7    13   ar
    11     8     9    1
    12     8    10   ar
    13    10    11   ar
    14    11    12   ar
    15    12    13   ar
    16    14    15   am
    17    14    34    2
    18    15    16    1
    19    16    17   ar
    20    16    30   ar
    21    17    18    1
    22    17    27   ar
    23    18    19   am
    24    19    20    2
    25    19    21    1
    26    21    22   ar
    27    21    26   ar
    28    22    23   ar
    29    23    24   ar
    30    24    25   ar
    31    25    26   ar
    32    27    28   ar
    33    28    29   ar
    34    29    30   ar
    35    29    31    1
    36    31    32    1
    37    32    33    1
