@<TRIPOS>MOLECULE
29428_ChemDiv_6030-2135
 28 30 0 0 0
SMALL
GASTEIGER
Energy = 0

@<TRIPOS>ATOM
      1 C          -1.7330   -1.1540    0.0000 C.2     1  LIG1        0.2648
      2 N          -2.3460   -1.4960    0.0000 N.am    1  LIG1       -0.2013
      3 C          -2.3380   -0.4880    0.0000 C.3     1  LIG1        0.1196
      4 C          -3.2210    0.0080    0.0000 C.3     1  LIG1        0.0438
      5 C          -4.0920   -0.4960    0.0000 C.ar    1  LIG1       -0.0210
      6 C          -4.9670    0.0080    0.0000 C.ar    1  LIG1       -0.0042
      7 C          -5.8380   -0.4960    0.0000 C.ar    1  LIG1       -0.0003
      8 C          -5.8380   -1.5130    0.0000 C.ar    1  LIG1       -0.0000
      9 C          -4.9670   -2.0170    0.0000 C.ar    1  LIG1       -0.0003
     10 C          -4.0920   -1.5130    0.0000 C.ar    1  LIG1       -0.0042
     11 C          -2.3460    0.5080    0.0000 C.3     1  LIG1        0.0379
     12 C          -2.3460    1.5210    0.0000 C.3     1  LIG1        0.1425
     13 O          -3.2210    2.0330    0.0000 O.3     1  LIG1       -0.3538
     14 C          -4.0830    1.5210    0.0000 C.3     1  LIG1        0.1425
     15 C          -4.0830    0.5080    0.0000 C.3     1  LIG1        0.0379
     16 C          -0.7210   -1.1540    0.0000 C.ar    1  LIG1        0.0552
     17 C          -0.2210   -2.0290    0.0000 C.ar    1  LIG1        0.0077
     18 C           0.7880   -2.0290    0.0000 C.ar    1  LIG1        0.0370
     19 C           1.2960   -1.1540    0.0000 C.ar    1  LIG1        0.1386
     20 C           0.7790   -0.2710    0.0000 C.ar    1  LIG1        0.0370
     21 C          -0.2330   -0.2790    0.0000 C.ar    1  LIG1        0.0077
     22 O           2.3040   -1.1540    0.0000 O.3     1  LIG1       -0.4755
     23 C           2.8130   -0.2710    0.0000 C.3     1  LIG1        0.2054
     24 C           3.8250   -0.2710    0.0000 C.3     1  LIG1        0.0473
     25 C           4.3170    0.6000    0.0000 C.3     1  LIG1        0.0038
     26 C           5.3290    0.6000    0.0000 C.3     1  LIG1        0.0001
     27 C           5.8330    1.4790    0.0000 C.3     1  LIG1        0.0000
     28 O          -1.7380   -0.1420    0.0000 O.2     1  LIG1       -0.2684
@<TRIPOS>BOND
     1     1     2   am
     2     1    16    1
     3     1    28    2
     4     2     3    1
     5     3     4    1
     6     4     5    1
     7     4    11    1
     8     4    15    1
     9     5     6   ar
    10     5    10   ar
    11     6     7   ar
    12     7     8   ar
    13     8     9   ar
    14     9    10   ar
    15    11    12    1
    16    12    13    1
    17    13    14    1
    18    14    15    1
    19    16    17   ar
    20    16    21   ar
    21    17    18   ar
    22    18    19   ar
    23    19    20   ar
    24    19    22    1
    25    20    21   ar
    26    22    23    1
    27    23    24    1
    28    24    25    1
    29    25    26    1
    30    26    27    1
