@<TRIPOS>MOLECULE
29436_ChemDiv_C679-0401
 35 38 0 0 0
SMALL
GASTEIGER
Energy = 0

@<TRIPOS>ATOM
      1 N           4.1130    2.2170    0.0000 N.ar    1  LIG1       -0.1705
      2 C           4.0960    1.2130    0.0000 C.ar    1  LIG1        0.1992
      3 S           5.0580    0.8960    0.0000 S.2     1  LIG1       -0.0321
      4 C           5.6540    1.7080    0.0000 C.ar    1  LIG1        0.1110
      5 N           5.0580    2.5210    0.0000 N.ar    1  LIG1       -0.1585
      6 C           6.6500    1.7040    0.0000 C.3     1  LIG1        0.0545
      7 C           7.1500    0.8420    0.0000 C.3     1  LIG1        0.0073
      8 N           3.2330    0.7130    0.0000 N.ar    1  LIG1       -0.2213
      9 C           2.3670    1.2290    0.0000 C.ar    1  LIG1        0.1096
     10 C           2.3710    2.2330    0.0000 C.ar    1  LIG1        0.0810
     11 C           3.2500    2.7330    0.0000 C.ar    1  LIG1        0.2834
     12 O           3.2630    3.7250    0.0000 O.2     1  LIG1       -0.2650
     13 C           1.4920    0.7420    0.0000 C.3     1  LIG1        0.2512
     14 O           0.6290    1.2420    0.0000 O.3     1  LIG1       -0.4659
     15 C          -0.2330    0.7580    0.0000 C.ar    1  LIG1        0.1728
     16 C          -1.1040    1.2710    0.0000 C.ar    1  LIG1        0.1724
     17 C          -1.9750    0.7750    0.0000 C.ar    1  LIG1        0.0401
     18 C          -1.9750   -0.2380    0.0000 C.ar    1  LIG1        0.0040
     19 C          -2.8460   -0.7380    0.0000 C.2     1  LIG1        0.0150
     20 C          -2.8460   -1.7420    0.0000 C.2     1  LIG1        0.1236
     21 C          -3.7000   -2.2420    0.0000 C.2     1  LIG1        0.2787
     22 N          -4.5630   -1.7420    0.0000 N.am    1  LIG1       -0.1749
     23 C          -5.4290   -2.2420    0.0000 C.ar    1  LIG1        0.0737
     24 C          -6.2880   -1.7330    0.0000 C.ar    1  LIG1        0.0166
     25 C          -7.1500   -2.2290    0.0000 C.ar    1  LIG1        0.0013
     26 C          -7.1500   -3.2250    0.0000 C.ar    1  LIG1        0.0001
     27 C          -6.2880   -3.7210    0.0000 C.ar    1  LIG1        0.0013
     28 C          -5.4290   -3.2250    0.0000 C.ar    1  LIG1        0.0166
     29 O          -3.7000   -3.2380    0.0000 O.2     1  LIG1       -0.2673
     30 C          -1.9750   -2.2420    0.0000 C.1     1  LIG1        0.1051
     31 N          -1.9750   -3.2420    0.0000 N.1     1  LIG1       -0.1907
     32 C          -1.1210   -0.7380    0.0000 C.ar    1  LIG1        0.0033
     33 C          -0.2500   -0.2380    0.0000 C.ar    1  LIG1        0.0401
     34 O          -1.0960    2.2670    0.0000 O.3     1  LIG1       -0.4684
     35 C          -1.9580    2.7710    0.0000 C.3     1  LIG1        0.2526
@<TRIPOS>BOND
     1     1     2   ar
     2     1     5   ar
     3     1    11   ar
     4     2     3   ar
     5     2     8   ar
     6     3     4   ar
     7     4     5   ar
     8     4     6    1
     9     6     7    1
    10     8     9   ar
    11     9    10   ar
    12     9    13    1
    13    10    11   ar
    14    11    12    2
    15    13    14    1
    16    14    15    1
    17    15    16   ar
    18    15    33   ar
    19    16    17   ar
    20    16    34    1
    21    17    18   ar
    22    18    19    1
    23    18    32   ar
    24    19    20    2
    25    20    21    1
    26    20    30    1
    27    21    22   am
    28    21    29    2
    29    22    23    1
    30    23    24   ar
    31    23    28   ar
    32    24    25   ar
    33    25    26   ar
    34    26    27   ar
    35    27    28   ar
    36    30    31    3
    37    32    33   ar
    38    34    35    1
