@<TRIPOS>MOLECULE
29434_ChemDiv_3388-0360
 14 15 0 0 0
SMALL
GASTEIGER
Energy = 0

@<TRIPOS>ATOM
      1 C          -0.3670   -0.6080    0.0000 C.ar    1  LIG1        0.2021
      2 N           0.5710   -0.1830    0.0000 N.ar    1  LIG1       -0.1703
      3 C           1.3750   -0.7880    0.0000 C.ar    1  LIG1        0.2870
      4 C           1.2580   -1.7960    0.0000 C.ar    1  LIG1        0.1250
      5 C           0.3380   -2.1960    0.0000 C.ar    1  LIG1        0.2859
      6 N          -0.4710   -1.5960    0.0000 N.ar    1  LIG1       -0.1822
      7 O           0.2710   -3.0250    0.0000 O.3     1  LIG1       -0.2650
      8 O           2.3080   -0.3880    0.0000 O.2     1  LIG1       -0.2649
      9 N           0.5000    0.8210    0.0000 N.ar    1  LIG1       -0.1585
     10 C          -0.5080    1.0210    0.0000 C.ar    1  LIG1        0.1110
     11 S          -1.0210    0.1790    0.0000 S.2     1  LIG1       -0.0320
     12 C          -0.9130    1.9630    0.0000 C.3     1  LIG1        0.0545
     13 C          -1.9130    2.0920    0.0000 C.3     1  LIG1        0.0069
     14 C          -2.3130    3.0290    0.0000 C.3     1  LIG1        0.0004
@<TRIPOS>BOND
     1     1     2   ar
     2     1     6   ar
     3     1    11   ar
     4     2     3   ar
     5     2     9   ar
     6     3     4   ar
     7     3     8    2
     8     4     5   ar
     9     5     6   ar
    10     5     7    1
    11     9    10   ar
    12    10    11   ar
    13    10    12    1
    14    12    13    1
    15    13    14    1
