@<TRIPOS>MOLECULE
29437_ChemDiv_3368-0016
 29 32 0 0 0
SMALL
GASTEIGER
Energy = 0

@<TRIPOS>ATOM
      1 N          -1.2630    0.8130    0.0000 N.am    1  LIG1       -0.2074
      2 C          -1.4380    1.8000    0.0000 C.2     1  LIG1        0.2365
      3 C          -0.5630    2.2670    0.0000 C.3     1  LIG1        0.1064
      4 C           0.1670    1.5710    0.0000 C.3     1  LIG1        0.1394
      5 C          -0.2790    0.6790    0.0000 C.2     1  LIG1        0.2456
      6 O           0.1880   -0.2040    0.0000 O.2     1  LIG1       -0.2732
      7 S           1.1500    1.7500    0.0000 S.3     1  LIG1       -0.0854
      8 C           1.7880    0.9790    0.0000 C.ar    1  LIG1        0.1162
      9 N           1.4540    0.0380    0.0000 N.ar    1  LIG1       -0.2431
     10 C           2.1000   -0.7210    0.0000 C.ar    1  LIG1        0.0556
     11 C           3.0830   -0.5380    0.0000 C.ar    1  LIG1       -0.0079
     12 C           3.4330    0.3960    0.0000 C.ar    1  LIG1        0.0092
     13 C           2.7710    1.1540    0.0000 C.ar    1  LIG1        0.0916
     14 C           3.1080    2.0880    0.0000 C.1     1  LIG1        0.1024
     15 N           3.4580    3.0380    0.0000 N.1     1  LIG1       -0.1908
     16 C           3.7250   -1.3170    0.0000 C.3     1  LIG1        0.0276
     17 C           3.3920   -2.2500    0.0000 C.3     1  LIG1        0.0048
     18 C           2.4040   -2.4330    0.0000 C.3     1  LIG1        0.0066
     19 C           1.7670   -1.6540    0.0000 C.3     1  LIG1        0.0455
     20 C           4.0330   -3.0080    0.0000 C.3     1  LIG1        0.0004
     21 O          -2.3500    2.2210    0.0000 O.2     1  LIG1       -0.2741
     22 C          -1.9670    0.0880    0.0000 C.ar    1  LIG1        0.0609
     23 C          -1.6830   -0.8710    0.0000 C.ar    1  LIG1        0.0184
     24 C          -2.3710   -1.5880    0.0000 C.ar    1  LIG1        0.0382
     25 C          -3.3500   -1.3540    0.0000 C.ar    1  LIG1        0.1388
     26 C          -3.6330   -0.3880    0.0000 C.ar    1  LIG1        0.0382
     27 C          -2.9330    0.3290    0.0000 C.ar    1  LIG1        0.0184
     28 O          -4.0370   -2.0710    0.0000 O.3     1  LIG1       -0.4714
     29 C          -3.7670   -3.0330    0.0000 C.3     1  LIG1        0.2525
@<TRIPOS>BOND
     1     1     2   am
     2     1     5   am
     3     1    22    1
     4     2     3    1
     5     2    21    2
     6     3     4    1
     7     4     5    1
     8     4     7    1
     9     5     6    2
    10     7     8    1
    11     8     9   ar
    12     8    13   ar
    13     9    10   ar
    14    10    11   ar
    15    10    19    1
    16    11    12   ar
    17    11    16    1
    18    12    13   ar
    19    13    14    1
    20    14    15    3
    21    16    17    1
    22    17    18    1
    23    17    20    1
    24    18    19    1
    25    22    23   ar
    26    22    27   ar
    27    23    24   ar
    28    24    25   ar
    29    25    26   ar
    30    25    28    1
    31    26    27   ar
    32    28    29    1
