@<TRIPOS>MOLECULE
29439_ChemDiv_3524-0278
 25 27 0 0 0
SMALL
GASTEIGER
Energy = 0

@<TRIPOS>ATOM
      1 N          -1.3170   -0.0130    0.0000 N.ar    1  LIG1       -0.2431
      2 C          -0.4540    0.4830    0.0000 C.ar    1  LIG1        0.1163
      3 C          -0.4540    1.4790    0.0000 C.ar    1  LIG1        0.0916
      4 C           0.4170    2.0000    0.0000 C.1     1  LIG1        0.1024
      5 N           1.2830    2.5040    0.0000 N.1     1  LIG1       -0.1908
      6 C          -1.3170    1.9790    0.0000 C.ar    1  LIG1        0.0092
      7 C          -2.1880    1.4790    0.0000 C.ar    1  LIG1       -0.0079
      8 C          -2.1880    0.4830    0.0000 C.ar    1  LIG1        0.0556
      9 C          -3.0420   -0.0130    0.0000 C.3     1  LIG1        0.0455
     10 C          -3.9130    0.4830    0.0000 C.3     1  LIG1        0.0066
     11 C          -3.9130    1.4790    0.0000 C.3     1  LIG1        0.0051
     12 C          -3.0420    1.9790    0.0000 C.3     1  LIG1        0.0276
     13 S           0.4290   -0.0130    0.0000 S.3     1  LIG1       -0.0844
     14 C           0.4290   -1.0080    0.0000 C.3     1  LIG1        0.1505
     15 C           1.3000   -1.5080    0.0000 C.2     1  LIG1        0.2570
     16 N           2.1630   -1.0080    0.0000 N.am    1  LIG1       -0.1754
     17 C           2.1630   -0.0130    0.0000 C.ar    1  LIG1        0.1072
     18 C           3.0330    0.4830    0.0000 C.ar    1  LIG1        0.1539
     19 O           3.9080   -0.0130    0.0000 O.3     1  LIG1       -0.4701
     20 C           3.9080   -1.0290    0.0000 C.3     1  LIG1        0.2525
     21 C           3.0330    1.4790    0.0000 C.ar    1  LIG1        0.0383
     22 C           2.1630    1.9790    0.0000 C.ar    1  LIG1        0.0032
     23 C           1.3000    1.4790    0.0000 C.ar    1  LIG1        0.0015
     24 C           1.3000    0.4830    0.0000 C.ar    1  LIG1        0.0197
     25 O           1.2830   -2.5000    0.0000 O.2     1  LIG1       -0.2720
@<TRIPOS>BOND
     1     1     2   ar
     2     1     8   ar
     3     2     3   ar
     4     2    13    1
     5     3     4    1
     6     3     6   ar
     7     4     5    3
     8     6     7   ar
     9     7     8   ar
    10     7    12    1
    11     8     9    1
    12     9    10    1
    13    10    11    1
    14    11    12    1
    15    13    14    1
    16    14    15    1
    17    15    16   am
    18    15    25    2
    19    16    17    1
    20    17    18   ar
    21    17    24   ar
    22    18    19    1
    23    18    21   ar
    24    19    20    1
    25    21    22   ar
    26    22    23   ar
    27    23    24   ar
