@<TRIPOS>MOLECULE
29438_ChemDiv_C679-0416
 37 40 0 0 0
SMALL
GASTEIGER
Energy = 0

@<TRIPOS>ATOM
      1 N           4.0920    2.1960    0.0000 N.ar    1  LIG1       -0.1705
      2 C           4.0880    1.1920    0.0000 C.ar    1  LIG1        0.1992
      3 S           5.0460    0.8750    0.0000 S.2     1  LIG1       -0.0321
      4 C           5.6380    1.6920    0.0000 C.ar    1  LIG1        0.1110
      5 N           5.0500    2.5080    0.0000 N.ar    1  LIG1       -0.1585
      6 C           6.6460    1.6920    0.0000 C.3     1  LIG1        0.0545
      7 C           7.1460    0.8250    0.0000 C.3     1  LIG1        0.0073
      8 N           3.2170    0.6960    0.0000 N.ar    1  LIG1       -0.2213
      9 C           2.3420    1.2080    0.0000 C.ar    1  LIG1        0.1096
     10 C           2.3540    2.2130    0.0000 C.ar    1  LIG1        0.0810
     11 C           3.2290    2.7080    0.0000 C.ar    1  LIG1        0.2834
     12 O           3.2330    3.7130    0.0000 O.2     1  LIG1       -0.2650
     13 C           1.4710    0.7130    0.0000 C.3     1  LIG1        0.2512
     14 O           0.6130    1.2210    0.0000 O.3     1  LIG1       -0.4659
     15 C          -0.2630    0.7290    0.0000 C.ar    1  LIG1        0.1728
     16 C          -1.1250    1.2420    0.0000 C.ar    1  LIG1        0.1722
     17 C          -2.0130    0.7330    0.0000 C.ar    1  LIG1        0.0401
     18 C          -2.0000   -0.2750    0.0000 C.ar    1  LIG1        0.0040
     19 C          -2.8710   -0.7750    0.0000 C.2     1  LIG1        0.0150
     20 C          -2.8710   -1.7630    0.0000 C.2     1  LIG1        0.1236
     21 C          -3.7170   -2.2580    0.0000 C.2     1  LIG1        0.2787
     22 N          -4.5750   -1.7630    0.0000 N.am    1  LIG1       -0.1752
     23 C          -5.4330   -2.2580    0.0000 C.ar    1  LIG1        0.0697
     24 C          -6.2880   -1.7630    0.0000 C.ar    1  LIG1       -0.0065
     25 C          -6.2830   -0.7750    0.0000 C.3     1  LIG1        0.0324
     26 C          -7.1460   -2.2580    0.0000 C.ar    1  LIG1       -0.0030
     27 C          -7.1460   -3.2500    0.0000 C.ar    1  LIG1       -0.0002
     28 C          -6.2830   -3.7420    0.0000 C.ar    1  LIG1        0.0013
     29 C          -5.4330   -3.2420    0.0000 C.ar    1  LIG1        0.0163
     30 O          -3.7170   -3.2500    0.0000 O.2     1  LIG1       -0.2673
     31 C          -2.0000   -2.2580    0.0000 C.1     1  LIG1        0.1051
     32 N          -2.0000   -3.2670    0.0000 N.1     1  LIG1       -0.1907
     33 C          -1.1420   -0.7750    0.0000 C.ar    1  LIG1        0.0033
     34 C          -0.2670   -0.2750    0.0000 C.ar    1  LIG1        0.0401
     35 O          -1.1210    2.2330    0.0000 O.3     1  LIG1       -0.4724
     36 C          -1.9830    2.7420    0.0000 C.3     1  LIG1        0.2057
     37 C          -1.9790    3.7460    0.0000 C.3     1  LIG1        0.0512
@<TRIPOS>BOND
     1     1     2   ar
     2     1     5   ar
     3     1    11   ar
     4     2     3   ar
     5     2     8   ar
     6     3     4   ar
     7     4     5   ar
     8     4     6    1
     9     6     7    1
    10     8     9   ar
    11     9    10   ar
    12     9    13    1
    13    10    11   ar
    14    11    12    2
    15    13    14    1
    16    14    15    1
    17    15    16   ar
    18    15    34   ar
    19    16    17   ar
    20    16    35    1
    21    17    18   ar
    22    18    19    1
    23    18    33   ar
    24    19    20    2
    25    20    21    1
    26    20    31    1
    27    21    22   am
    28    21    30    2
    29    22    23    1
    30    23    24   ar
    31    23    29   ar
    32    24    25    1
    33    24    26   ar
    34    26    27   ar
    35    27    28   ar
    36    28    29   ar
    37    31    32    3
    38    33    34   ar
    39    35    36    1
    40    36    37    1
