@<TRIPOS>MOLECULE
29430_ChemDiv_6136-0005
 28 30 0 0 0
SMALL
GASTEIGER
Energy = 0

@<TRIPOS>ATOM
      1 C           1.4290   -1.6460    0.0000 C.2     1  LIG1        0.2648
      2 N           0.3960   -1.6460    0.0000 N.am    1  LIG1       -0.2013
      3 C          -0.5000   -2.1710    0.0000 C.3     1  LIG1        0.1196
      4 C          -1.3960   -1.6540    0.0000 C.3     1  LIG1        0.0438
      5 C          -2.4000   -1.9250    0.0000 C.ar    1  LIG1       -0.0208
      6 C          -2.9130   -1.0170    0.0000 C.ar    1  LIG1       -0.0011
      7 C          -3.9460   -1.0170    0.0000 C.ar    1  LIG1        0.0366
      8 C          -4.4790   -1.9040    0.0000 C.ar    1  LIG1        0.1387
      9 C          -3.9670   -2.8080    0.0000 C.ar    1  LIG1        0.0366
     10 C          -2.9290   -2.8210    0.0000 C.ar    1  LIG1       -0.0011
     11 O          -5.5250   -1.8960    0.0000 O.3     1  LIG1       -0.4714
     12 C          -6.0380   -0.9830    0.0000 C.3     1  LIG1        0.2525
     13 C          -0.6540   -1.2290    0.0000 C.3     1  LIG1        0.0379
     14 C          -0.6540   -0.3630    0.0000 C.3     1  LIG1        0.1425
     15 O          -1.3960    0.0670    0.0000 O.3     1  LIG1       -0.3538
     16 C          -2.1290   -0.3630    0.0000 C.3     1  LIG1        0.1425
     17 C          -2.1290   -1.2290    0.0000 C.3     1  LIG1        0.0379
     18 C           1.9540   -0.7500    0.0000 C.ar    1  LIG1        0.0552
     19 C           2.9920   -0.7500    0.0000 C.ar    1  LIG1        0.0077
     20 C           3.5080    0.1540    0.0000 C.ar    1  LIG1        0.0370
     21 C           2.9880    1.0500    0.0000 C.ar    1  LIG1        0.1386
     22 C           1.9420    1.0380    0.0000 C.ar    1  LIG1        0.0370
     23 C           1.4290    0.1460    0.0000 C.ar    1  LIG1        0.0077
     24 O           3.5040    1.9460    0.0000 O.3     1  LIG1       -0.4755
     25 C           4.5420    1.9500    0.0000 C.3     1  LIG1        0.2054
     26 C           5.0380    2.8250    0.0000 C.3     1  LIG1        0.0473
     27 C           6.0380    2.8250    0.0000 C.3     1  LIG1        0.0040
     28 O           1.9540   -2.5420    0.0000 O.2     1  LIG1       -0.2684
@<TRIPOS>BOND
     1     1     2   am
     2     1    18    1
     3     1    28    2
     4     2     3    1
     5     3     4    1
     6     4     5    1
     7     4    13    1
     8     4    17    1
     9     5     6   ar
    10     5    10   ar
    11     6     7   ar
    12     7     8   ar
    13     8     9   ar
    14     8    11    1
    15     9    10   ar
    16    11    12    1
    17    13    14    1
    18    14    15    1
    19    15    16    1
    20    16    17    1
    21    18    19   ar
    22    18    23   ar
    23    19    20   ar
    24    20    21   ar
    25    21    22   ar
    26    21    24    1
    27    22    23   ar
    28    24    25    1
    29    25    26    1
    30    26    27    1
