@<TRIPOS>MOLECULE
29433_ChemDiv_4476-1353
 23 25 0 0 0
SMALL
GASTEIGER
Energy = 0

@<TRIPOS>ATOM
      1 S           4.1540    1.1500    0.0000 S.O2    1  LIG1       -0.0082
      2 C           3.5830    0.3000    0.0000 C.3     1  LIG1        0.1724
      3 C           2.6330    0.6080    0.0000 C.3     1  LIG1        0.1209
      4 N           1.7630    0.1170    0.0000 N.am    1  LIG1       -0.2010
      5 C           0.8960    0.6080    0.0000 C.2     1  LIG1        0.2745
      6 C           0.0170    0.1170    0.0000 C.2     1  LIG1        0.1233
      7 C          -0.8500    0.6080    0.0000 C.2     1  LIG1        0.0150
      8 C          -1.7500    0.1170    0.0000 C.ar    1  LIG1        0.0040
      9 C          -2.6130    0.6080    0.0000 C.ar    1  LIG1        0.0402
     10 C          -3.4790    0.1170    0.0000 C.ar    1  LIG1        0.1764
     11 C          -3.4790   -0.9210    0.0000 C.ar    1  LIG1        0.1764
     12 O          -4.4330   -1.2210    0.0000 O.3     1  LIG1       -0.4346
     13 C          -4.9750   -0.4290    0.0000 C.3     1  LIG1        0.4294
     14 O          -4.4330    0.4080    0.0000 O.3     1  LIG1       -0.4346
     15 C          -2.6130   -1.4080    0.0000 C.ar    1  LIG1        0.0402
     16 C          -1.7500   -0.9210    0.0000 C.ar    1  LIG1        0.0033
     17 C           0.0170   -0.8880    0.0000 C.1     1  LIG1        0.1051
     18 N           0.0170   -1.9000    0.0000 N.1     1  LIG1       -0.1907
     19 O           0.8960    1.6080    0.0000 O.2     1  LIG1       -0.2676
     20 C           2.6330    1.6080    0.0000 C.3     1  LIG1        0.0488
     21 C           3.5830    1.9040    0.0000 C.3     1  LIG1        0.1527
     22 O           4.9710    1.7460    0.0000 O.2     1  LIG1       -0.1729
     23 O           4.9080    0.5210    0.0000 O.2     1  LIG1       -0.1729
@<TRIPOS>BOND
     1     1     2    1
     2     1    21    1
     3     1    22    2
     4     1    23    2
     5     2     3    1
     6     3     4    1
     7     3    20    1
     8     4     5   am
     9     5     6    1
    10     5    19    2
    11     6     7    2
    12     6    17    1
    13     7     8    1
    14     8     9   ar
    15     8    16   ar
    16     9    10   ar
    17    10    11   ar
    18    10    14    1
    19    11    12    1
    20    11    15   ar
    21    12    13    1
    22    13    14    1
    23    15    16   ar
    24    17    18    3
    25    20    21    1
