@<TRIPOS>MOLECULE
29431_ChemDiv_3365-6978
 17 19 0 0 0
SMALL
GASTEIGER
Energy = 0

@<TRIPOS>ATOM
      1 C           2.6710    0.8710    0.0000 C.ar    1  LIG1        0.1764
      2 C           2.2000    1.7830    0.0000 C.ar    1  LIG1        0.1764
      3 O           2.9040    2.5000    0.0000 O.3     1  LIG1       -0.4346
      4 C           3.7920    2.0420    0.0000 C.3     1  LIG1        0.4294
      5 O           3.6540    1.0460    0.0000 O.3     1  LIG1       -0.4346
      6 C           1.1960    1.8040    0.0000 C.ar    1  LIG1        0.0402
      7 C           0.6540    0.9420    0.0000 C.ar    1  LIG1        0.0033
      8 C           1.0830    0.0710    0.0000 C.ar    1  LIG1        0.0034
      9 C           0.5830   -0.8000    0.0000 C.2     1  LIG1        0.0048
     10 C          -0.4170   -0.7540    0.0000 C.2     1  LIG1        0.0595
     11 C          -0.9670   -1.6250    0.0000 C.2     1  LIG1        0.2649
     12 N          -1.9540   -1.6250    0.0000 N.am    1  LIG1       -0.2034
     13 C          -2.8080   -1.1250    0.0000 C.3     1  LIG1        0.0957
     14 C          -3.7960   -1.1250    0.0000 C.3     1  LIG1        0.0234
     15 C          -3.2750   -0.2920    0.0000 C.3     1  LIG1        0.0234
     16 O          -0.4960   -2.4960    0.0000 O.2     1  LIG1       -0.2684
     17 C           2.1250    0.0250    0.0000 C.ar    1  LIG1        0.0402
@<TRIPOS>BOND
     1     1     2   ar
     2     1     5    1
     3     1    17   ar
     4     2     3    1
     5     2     6   ar
     6     3     4    1
     7     4     5    1
     8     6     7   ar
     9     7     8   ar
    10     8     9    1
    11     8    17   ar
    12     9    10    2
    13    10    11    1
    14    11    12   am
    15    11    16    2
    16    12    13    1
    17    13    14    1
    18    13    15    1
    19    14    15    1
