@<TRIPOS>MOLECULE
29446_ChemDiv_C472-0136
 29 33 0 0 0
SMALL
GASTEIGER
Energy = 0

@<TRIPOS>ATOM
      1 C          -0.2880   -0.6460    0.0000 C.2     1  LIG1        0.0484
      2 C          -0.8880   -1.4580    0.0000 C.2     1  LIG1        0.0816
      3 N          -0.7750   -2.2880    0.0000 N.2     1  LIG1       -0.2450
      4 C           0.1290   -2.7500    0.0000 C.ar    1  LIG1        0.0869
      5 C           1.0500   -2.2880    0.0000 C.ar    1  LIG1        0.0434
      6 S           1.2540   -1.2460    0.0000 S.3     1  LIG1       -0.1039
      7 C           0.5880   -0.5250    0.0000 C.3     1  LIG1        0.1008
      8 C           0.9170    0.4130    0.0000 C.ar    1  LIG1       -0.0077
      9 C           0.2830    1.1670    0.0000 C.ar    1  LIG1        0.0000
     10 C           0.6210    2.1210    0.0000 C.ar    1  LIG1        0.0373
     11 C           1.6080    2.3000    0.0000 C.ar    1  LIG1        0.1484
     12 O           1.9540    3.2380    0.0000 O.3     1  LIG1       -0.4241
     13 C           2.9290    3.4080    0.0000 C.2     1  LIG1        0.3220
     14 O           3.2750    4.3420    0.0000 O.2     1  LIG1       -0.2497
     15 C           3.5790    2.6460    0.0000 C.3     1  LIG1        0.1216
     16 C           2.2460    1.5290    0.0000 C.ar    1  LIG1        0.0373
     17 C           1.9210    0.5920    0.0000 C.ar    1  LIG1        0.0000
     18 C           1.9130   -2.8460    0.0000 C.ar    1  LIG1        0.0077
     19 C           1.8460   -3.8750    0.0000 C.ar    1  LIG1        0.0006
     20 C           0.9170   -4.3420    0.0000 C.ar    1  LIG1        0.0016
     21 C           0.0710   -3.7750    0.0000 C.ar    1  LIG1        0.0196
     22 C          -1.8330   -1.1460    0.0000 C.ar    1  LIG1        0.0205
     23 C          -1.8330   -0.1290    0.0000 C.ar    1  LIG1        0.0402
     24 C          -0.8880    0.1750    0.0000 C.2     1  LIG1        0.1942
     25 O          -0.5750    1.1250    0.0000 O.2     1  LIG1       -0.2868
     26 C          -2.7130    0.3630    0.0000 C.ar    1  LIG1        0.0032
     27 C          -3.5830   -0.1460    0.0000 C.ar    1  LIG1        0.0001
     28 C          -3.5830   -1.1460    0.0000 C.ar    1  LIG1        0.0001
     29 C          -2.7130   -1.6420    0.0000 C.ar    1  LIG1        0.0016
@<TRIPOS>BOND
     1     1     2    1
     2     1     7    1
     3     1    24    2
     4     2     3    2
     5     2    22    1
     6     3     4    1
     7     4     5   ar
     8     4    21   ar
     9     5     6    1
    10     5    18   ar
    11     6     7    1
    12     7     8    1
    13     8     9   ar
    14     8    17   ar
    15     9    10   ar
    16    10    11   ar
    17    11    12    1
    18    11    16   ar
    19    12    13    1
    20    13    14    2
    21    13    15    1
    22    16    17   ar
    23    18    19   ar
    24    19    20   ar
    25    20    21   ar
    26    22    23   ar
    27    22    29   ar
    28    23    24    1
    29    23    26   ar
    30    24    25    1
    31    26    27   ar
    32    27    28   ar
    33    28    29   ar
