@<TRIPOS>MOLECULE
29444_ChemDiv_C472-0054
 29 33 0 0 0
SMALL
GASTEIGER
Energy = 0

@<TRIPOS>ATOM
      1 C           0.3670   -0.9380    0.0000 C.2     1  LIG1        0.0484
      2 C          -0.2330   -1.7630    0.0000 C.2     1  LIG1        0.0816
      3 N          -0.1080   -2.5920    0.0000 N.2     1  LIG1       -0.2450
      4 C           0.7830   -3.0380    0.0000 C.ar    1  LIG1        0.0869
      5 C           1.7130   -2.5830    0.0000 C.ar    1  LIG1        0.0434
      6 S           1.9130   -1.5460    0.0000 S.3     1  LIG1       -0.1039
      7 C           1.2330   -0.8250    0.0000 C.3     1  LIG1        0.1008
      8 C           1.5710    0.1130    0.0000 C.ar    1  LIG1       -0.0079
      9 C           0.9290    0.8750    0.0000 C.ar    1  LIG1       -0.0018
     10 C           1.2670    1.8130    0.0000 C.ar    1  LIG1        0.0163
     11 C           2.2500    1.9960    0.0000 C.ar    1  LIG1        0.0733
     12 N           2.5880    2.9420    0.0000 N.am    1  LIG1       -0.1792
     13 C           1.9330    3.7080    0.0000 C.2     1  LIG1        0.2461
     14 O           0.9580    3.5330    0.0000 O.2     1  LIG1       -0.2730
     15 C           2.2710    4.6420    0.0000 C.3     1  LIG1        0.0968
     16 C           2.9080    1.2290    0.0000 C.ar    1  LIG1        0.0163
     17 C           2.5710    0.2960    0.0000 C.ar    1  LIG1       -0.0018
     18 C           2.5540   -3.1420    0.0000 C.ar    1  LIG1        0.0077
     19 C           2.5170   -4.1710    0.0000 C.ar    1  LIG1        0.0006
     20 C           1.5790   -4.6420    0.0000 C.ar    1  LIG1        0.0016
     21 C           0.7210   -4.0670    0.0000 C.ar    1  LIG1        0.0196
     22 C          -1.1830   -1.4290    0.0000 C.ar    1  LIG1        0.0205
     23 C          -1.1830   -0.4330    0.0000 C.ar    1  LIG1        0.0402
     24 C          -0.2330   -0.1170    0.0000 C.2     1  LIG1        0.1942
     25 O           0.0920    0.8380    0.0000 O.2     1  LIG1       -0.2868
     26 C          -2.0540    0.0670    0.0000 C.ar    1  LIG1        0.0032
     27 C          -2.9130   -0.4330    0.0000 C.ar    1  LIG1        0.0001
     28 C          -2.9130   -1.4290    0.0000 C.ar    1  LIG1        0.0001
     29 C          -2.0540   -1.9380    0.0000 C.ar    1  LIG1        0.0016
@<TRIPOS>BOND
     1     1     2    1
     2     1     7    1
     3     1    24    2
     4     2     3    2
     5     2    22    1
     6     3     4    1
     7     4     5   ar
     8     4    21   ar
     9     5     6    1
    10     5    18   ar
    11     6     7    1
    12     7     8    1
    13     8     9   ar
    14     8    17   ar
    15     9    10   ar
    16    10    11   ar
    17    11    12    1
    18    11    16   ar
    19    12    13   am
    20    13    14    2
    21    13    15    1
    22    16    17   ar
    23    18    19   ar
    24    19    20   ar
    25    20    21   ar
    26    22    23   ar
    27    22    29   ar
    28    23    24    1
    29    23    26   ar
    30    24    25    1
    31    26    27   ar
    32    27    28   ar
    33    28    29   ar
