@<TRIPOS>MOLECULE
29442_ChemDiv_C472-0044
 31 35 0 0 0
SMALL
GASTEIGER
Energy = 0

@<TRIPOS>ATOM
      1 C          -0.2960   -0.1790    0.0000 C.2     1  LIG1        0.0486
      2 C          -0.9040   -0.9920    0.0000 C.2     1  LIG1        0.0816
      3 N          -0.7710   -1.8250    0.0000 N.2     1  LIG1       -0.2450
      4 C           0.1170   -2.2670    0.0000 C.ar    1  LIG1        0.0869
      5 C           1.0380   -1.8080    0.0000 C.ar    1  LIG1        0.0434
      6 S           1.2460   -0.7880    0.0000 S.3     1  LIG1       -0.1038
      7 C           0.5710   -0.0630    0.0000 C.3     1  LIG1        0.1039
      8 C           0.9080    0.8750    0.0000 C.ar    1  LIG1        0.0293
      9 C           1.9040    1.0540    0.0000 C.ar    1  LIG1        0.1725
     10 C           2.2420    1.9920    0.0000 C.ar    1  LIG1        0.2058
     11 C           1.6000    2.7670    0.0000 C.ar    1  LIG1        0.1754
     12 C           0.6130    2.5790    0.0000 C.ar    1  LIG1        0.0400
     13 C           0.2670    1.6380    0.0000 C.ar    1  LIG1        0.0032
     14 O           1.9330    3.7040    0.0000 O.3     1  LIG1       -0.4683
     15 C           2.9290    3.8830    0.0000 C.3     1  LIG1        0.2526
     16 O           3.2170    2.1670    0.0000 O.3     1  LIG1       -0.4654
     17 C           3.5710    3.1040    0.0000 C.3     1  LIG1        0.2528
     18 O           2.5380    0.3000    0.0000 O.3     1  LIG1       -0.4685
     19 C           2.2080   -0.6460    0.0000 C.3     1  LIG1        0.2526
     20 C           1.8960   -2.3670    0.0000 C.ar    1  LIG1        0.0077
     21 C           1.8460   -3.4130    0.0000 C.ar    1  LIG1        0.0006
     22 C           0.9170   -3.8790    0.0000 C.ar    1  LIG1        0.0016
     23 C           0.0500   -3.2960    0.0000 C.ar    1  LIG1        0.0196
     24 C          -1.8420   -0.6710    0.0000 C.ar    1  LIG1        0.0205
     25 C          -1.8420    0.3290    0.0000 C.ar    1  LIG1        0.0402
     26 C          -0.9040    0.6460    0.0000 C.2     1  LIG1        0.1942
     27 O          -0.5830    1.6000    0.0000 O.2     1  LIG1       -0.2868
     28 C          -2.7130    0.8330    0.0000 C.ar    1  LIG1        0.0032
     29 C          -3.5750    0.3290    0.0000 C.ar    1  LIG1        0.0001
     30 C          -3.5750   -0.6710    0.0000 C.ar    1  LIG1        0.0001
     31 C          -2.7130   -1.1750    0.0000 C.ar    1  LIG1        0.0016
@<TRIPOS>BOND
     1     1     2    1
     2     1     7    1
     3     1    26    2
     4     2     3    2
     5     2    24    1
     6     3     4    1
     7     4     5   ar
     8     4    23   ar
     9     5     6    1
    10     5    20   ar
    11     6     7    1
    12     7     8    1
    13     8     9   ar
    14     8    13   ar
    15     9    10   ar
    16     9    18    1
    17    10    11   ar
    18    10    16    1
    19    11    12   ar
    20    11    14    1
    21    12    13   ar
    22    14    15    1
    23    16    17    1
    24    18    19    1
    25    20    21   ar
    26    21    22   ar
    27    22    23   ar
    28    24    25   ar
    29    24    31   ar
    30    25    26    1
    31    25    28   ar
    32    26    27    1
    33    28    29   ar
    34    29    30   ar
    35    30    31   ar
