@<TRIPOS>MOLECULE
29449_ChemDiv_8015-1829
 20 23 0 0 0
SMALL
GASTEIGER
Energy = 0

@<TRIPOS>ATOM
      1 S           1.7130    1.4750    0.0000 S.O2    1  LIG1        0.1092
      2 N           0.8420    1.9540    0.0000 N.pl3   1  LIG1        0.0065
      3 N          -0.0250    1.4750    0.0000 N.2     1  LIG1       -0.1405
      4 C          -0.0250    0.4630    0.0000 C.2     1  LIG1        0.1034
      5 C           0.8420   -0.0250    0.0000 C.ar    1  LIG1        0.0413
      6 C           0.8420   -1.0380    0.0000 C.ar    1  LIG1        0.0418
      7 C          -0.0250   -1.5170    0.0000 C.2     1  LIG1        0.1957
      8 C          -0.8460   -1.0380    0.0000 C.ar    1  LIG1        0.0404
      9 C          -0.8460   -0.0250    0.0000 C.ar    1  LIG1        0.0224
     10 C          -1.7170    0.4630    0.0000 C.ar    1  LIG1        0.0016
     11 C          -2.5830   -0.0250    0.0000 C.ar    1  LIG1        0.0001
     12 C          -2.5830   -1.0380    0.0000 C.ar    1  LIG1        0.0001
     13 C          -1.7170   -1.5170    0.0000 C.ar    1  LIG1        0.0032
     14 O          -0.0250   -2.5290    0.0000 O.2     1  LIG1       -0.2866
     15 C           1.7130   -1.5170    0.0000 C.ar    1  LIG1        0.0033
     16 C           2.5790   -1.0380    0.0000 C.ar    1  LIG1        0.0015
     17 C           2.5790   -0.0250    0.0000 C.ar    1  LIG1        0.0204
     18 C           1.7130    0.4630    0.0000 C.ar    1  LIG1        0.1301
     19 O           1.7130    2.5330    0.0000 O.2     1  LIG1       -0.1470
     20 O           2.5790    0.9420    0.0000 O.2     1  LIG1       -0.1470
@<TRIPOS>BOND
     1     1     2    1
     2     1    18    1
     3     1    19    2
     4     1    20    2
     5     2     3    1
     6     3     4    2
     7     4     5    1
     8     4     9    1
     9     5     6   ar
    10     5    18   ar
    11     6     7    1
    12     6    15   ar
    13     7     8    1
    14     7    14    2
    15     8     9   ar
    16     8    13   ar
    17     9    10   ar
    18    10    11   ar
    19    11    12   ar
    20    12    13   ar
    21    15    16   ar
    22    16    17   ar
    23    17    18   ar
