@<TRIPOS>MOLECULE
29448_ChemDiv_3390-0265
 28 31 0 0 0
SMALL
GASTEIGER
Energy = 0

@<TRIPOS>ATOM
      1 S           0.3330   -0.3000    0.0000 S.O2    1  LIG1       -0.0550
      2 N           0.3580    0.7000    0.0000 N.am    1  LIG1       -0.4892
      3 C          -0.4080    1.1830    0.0000 C.2     1  LIG1        0.1543
      4 N          -0.2130    2.1630    0.0000 N.am    1  LIG1       -0.2526
      5 C          -1.0170    2.7630    0.0000 C.ar    1  LIG1        0.0527
      6 C          -1.0170    3.7710    0.0000 C.ar    1  LIG1       -0.0079
      7 C          -0.2670    4.3540    0.0000 C.3     1  LIG1        0.0323
      8 C           0.7130    4.1460    0.0000 C.3     1  LIG1        0.0323
      9 C           1.1380    3.2670    0.0000 C.ar    1  LIG1       -0.0079
     10 C           0.7580    2.3750    0.0000 C.ar    1  LIG1        0.0527
     11 C           1.3460    1.5710    0.0000 C.ar    1  LIG1        0.0149
     12 C           2.3250    1.6500    0.0000 C.ar    1  LIG1        0.0013
     13 C           2.7500    2.5500    0.0000 C.ar    1  LIG1       -0.0002
     14 C           2.1580    3.4000    0.0000 C.ar    1  LIG1       -0.0030
     15 C          -1.9080    4.2750    0.0000 C.ar    1  LIG1       -0.0030
     16 C          -2.7540    3.7710    0.0000 C.ar    1  LIG1       -0.0002
     17 C          -2.7080    2.7630    0.0000 C.ar    1  LIG1        0.0013
     18 C          -1.8630    2.2420    0.0000 C.ar    1  LIG1        0.0149
     19 O          -1.3790    0.7250    0.0000 O.2     1  LIG1       -0.2953
     20 C           0.2880   -1.3290    0.0000 C.ar    1  LIG1        0.0894
     21 C           1.1080   -1.7790    0.0000 C.ar    1  LIG1        0.0166
     22 C           1.1380   -2.8460    0.0000 C.ar    1  LIG1       -0.0030
     23 C           0.2290   -3.3420    0.0000 C.ar    1  LIG1       -0.0218
     24 C          -0.5920   -2.8380    0.0000 C.ar    1  LIG1       -0.0030
     25 C          -0.5830   -1.8420    0.0000 C.ar    1  LIG1        0.0166
     26 C           0.2630   -4.3540    0.0000 C.3     1  LIG1        0.0310
     27 O           1.2880   -0.2710    0.0000 O.2     1  LIG1       -0.1841
     28 O          -0.7250   -0.3000    0.0000 O.2     1  LIG1       -0.1841
@<TRIPOS>BOND
     1     1     2    1
     2     1    20    1
     3     1    27    2
     4     1    28    2
     5     2     3   am
     6     3     4   am
     7     3    19    2
     8     4     5    1
     9     4    10    1
    10     5     6   ar
    11     5    18   ar
    12     6     7    1
    13     6    15   ar
    14     7     8    1
    15     8     9    1
    16     9    10   ar
    17     9    14   ar
    18    10    11   ar
    19    11    12   ar
    20    12    13   ar
    21    13    14   ar
    22    15    16   ar
    23    16    17   ar
    24    17    18   ar
    25    20    21   ar
    26    20    25   ar
    27    21    22   ar
    28    22    23   ar
    29    23    24   ar
    30    23    26    1
    31    24    25   ar
