@<TRIPOS>MOLECULE
29459_ChemDiv_4478-4782
 20 22 0 0 0
SMALL
GASTEIGER
Energy = 0

@<TRIPOS>ATOM
      1 N          -0.8670    0.2670    0.0000 N.ar    1  LIG1       -0.2431
      2 C           0.0040    0.7460    0.0000 C.ar    1  LIG1        0.1161
      3 C           0.0040    1.7580    0.0000 C.ar    1  LIG1        0.0916
      4 C           0.8670    2.2920    0.0000 C.1     1  LIG1        0.1024
      5 N           1.7380    2.7710    0.0000 N.1     1  LIG1       -0.1908
      6 C          -0.8670    2.2420    0.0000 C.ar    1  LIG1        0.0092
      7 C          -1.7330    1.7580    0.0000 C.ar    1  LIG1       -0.0079
      8 C          -1.7330    0.7460    0.0000 C.ar    1  LIG1        0.0556
      9 C          -2.5960    0.2670    0.0000 C.3     1  LIG1        0.0455
     10 C          -3.4670    0.7460    0.0000 C.3     1  LIG1        0.0066
     11 C          -3.4670    1.7580    0.0000 C.3     1  LIG1        0.0051
     12 C          -2.5960    2.2420    0.0000 C.3     1  LIG1        0.0276
     13 S           0.8670    0.2170    0.0000 S.3     1  LIG1       -0.0895
     14 C           0.8670   -0.7460    0.0000 C.3     1  LIG1        0.0899
     15 C           1.7380   -1.2670    0.0000 C.ar    1  LIG1       -0.0109
     16 C           1.7380   -2.2830    0.0000 C.ar    1  LIG1       -0.0034
     17 C           2.6000   -2.7670    0.0000 C.ar    1  LIG1       -0.0003
     18 C           3.4630   -2.2830    0.0000 C.ar    1  LIG1       -0.0000
     19 C           3.4630   -1.2670    0.0000 C.ar    1  LIG1       -0.0003
     20 C           2.6000   -0.7460    0.0000 C.ar    1  LIG1       -0.0034
@<TRIPOS>BOND
     1     1     2   ar
     2     1     8   ar
     3     2     3   ar
     4     2    13    1
     5     3     4    1
     6     3     6   ar
     7     4     5    3
     8     6     7   ar
     9     7     8   ar
    10     7    12    1
    11     8     9    1
    12     9    10    1
    13    10    11    1
    14    11    12    1
    15    13    14    1
    16    14    15    1
    17    15    16   ar
    18    15    20   ar
    19    16    17   ar
    20    17    18   ar
    21    18    19   ar
    22    19    20   ar
