@<TRIPOS>MOLECULE
29458_ChemDiv_C679-0451
 37 40 0 0 0
SMALL
GASTEIGER
Energy = 0

@<TRIPOS>ATOM
      1 N           4.7710    2.6880    0.0000 N.ar    1  LIG1       -0.1705
      2 C           4.7670    1.6830    0.0000 C.ar    1  LIG1        0.1992
      3 S           5.7250    1.3710    0.0000 S.2     1  LIG1       -0.0321
      4 C           6.3170    2.1830    0.0000 C.ar    1  LIG1        0.1114
      5 N           5.7290    3.0040    0.0000 N.ar    1  LIG1       -0.1585
      6 C           7.3250    2.1830    0.0000 C.3     1  LIG1        0.0614
      7 N           3.8960    1.1880    0.0000 N.ar    1  LIG1       -0.2213
      8 C           3.0210    1.7000    0.0000 C.ar    1  LIG1        0.1096
      9 C           3.0330    2.7040    0.0000 C.ar    1  LIG1        0.0810
     10 C           3.9080    3.2000    0.0000 C.ar    1  LIG1        0.2834
     11 O           3.9130    4.2040    0.0000 O.2     1  LIG1       -0.2650
     12 C           2.1460    1.2040    0.0000 C.3     1  LIG1        0.2512
     13 O           1.2880    1.7170    0.0000 O.3     1  LIG1       -0.4659
     14 C           0.4130    1.2210    0.0000 C.ar    1  LIG1        0.1728
     15 C          -0.4500    1.7330    0.0000 C.ar    1  LIG1        0.1722
     16 C          -1.3380    1.2250    0.0000 C.ar    1  LIG1        0.0401
     17 C          -1.3250    0.2210    0.0000 C.ar    1  LIG1        0.0040
     18 C          -2.1960   -0.2830    0.0000 C.2     1  LIG1        0.0150
     19 C          -2.1960   -1.2710    0.0000 C.2     1  LIG1        0.1236
     20 C          -3.0420   -1.7670    0.0000 C.2     1  LIG1        0.2787
     21 N          -3.9000   -1.2710    0.0000 N.am    1  LIG1       -0.1749
     22 C          -4.7580   -1.7670    0.0000 C.ar    1  LIG1        0.0739
     23 C          -4.7580   -2.7500    0.0000 C.ar    1  LIG1        0.0197
     24 C          -5.6130   -3.2540    0.0000 C.ar    1  LIG1        0.0382
     25 C          -6.4710   -2.7580    0.0000 C.ar    1  LIG1        0.1388
     26 C          -6.4710   -1.7670    0.0000 C.ar    1  LIG1        0.0382
     27 C          -5.6170   -1.2710    0.0000 C.ar    1  LIG1        0.0197
     28 O          -7.3250   -3.2460    0.0000 O.3     1  LIG1       -0.4714
     29 C          -7.3250   -4.2380    0.0000 C.3     1  LIG1        0.2525
     30 O          -3.0420   -2.7580    0.0000 O.2     1  LIG1       -0.2673
     31 C          -1.3250   -1.7670    0.0000 C.1     1  LIG1        0.1051
     32 N          -1.3250   -2.7750    0.0000 N.1     1  LIG1       -0.1907
     33 C          -0.4670   -0.2830    0.0000 C.ar    1  LIG1        0.0033
     34 C           0.4080    0.2210    0.0000 C.ar    1  LIG1        0.0401
     35 O          -0.4460    2.7290    0.0000 O.3     1  LIG1       -0.4724
     36 C          -1.3080    3.2330    0.0000 C.3     1  LIG1        0.2057
     37 C          -1.3040    4.2380    0.0000 C.3     1  LIG1        0.0512
@<TRIPOS>BOND
     1     1     2   ar
     2     1     5   ar
     3     1    10   ar
     4     2     3   ar
     5     2     7   ar
     6     3     4   ar
     7     4     5   ar
     8     4     6    1
     9     7     8   ar
    10     8     9   ar
    11     8    12    1
    12     9    10   ar
    13    10    11    2
    14    12    13    1
    15    13    14    1
    16    14    15   ar
    17    14    34   ar
    18    15    16   ar
    19    15    35    1
    20    16    17   ar
    21    17    18    1
    22    17    33   ar
    23    18    19    2
    24    19    20    1
    25    19    31    1
    26    20    21   am
    27    20    30    2
    28    21    22    1
    29    22    23   ar
    30    22    27   ar
    31    23    24   ar
    32    24    25   ar
    33    25    26   ar
    34    25    28    1
    35    26    27   ar
    36    28    29    1
    37    31    32    3
    38    33    34   ar
    39    35    36    1
    40    36    37    1
