@<TRIPOS>MOLECULE
29452_ChemDiv_3807-4802
 24 27 0 0 0
SMALL
GASTEIGER
Energy = 0

@<TRIPOS>ATOM
      1 N           0.6920    0.1250    0.0000 N.am    1  LIG1       -0.2372
      2 C          -0.1920    0.6380    0.0000 C.ar    1  LIG1        0.0541
      3 C          -0.3750    1.6380    0.0000 C.ar    1  LIG1       -0.0078
      4 C           0.3250    2.3710    0.0000 C.3     1  LIG1        0.0323
      5 C           1.3210    2.2830    0.0000 C.3     1  LIG1        0.0323
      6 C           1.8670    1.4830    0.0000 C.ar    1  LIG1       -0.0078
      7 C           1.6080    0.5380    0.0000 C.ar    1  LIG1        0.0541
      8 C           2.3040   -0.1670    0.0000 C.ar    1  LIG1        0.0149
      9 C           3.2580    0.0540    0.0000 C.ar    1  LIG1        0.0013
     10 C           3.5540    1.0420    0.0000 C.ar    1  LIG1       -0.0002
     11 C           2.8540    1.7330    0.0000 C.ar    1  LIG1       -0.0030
     12 C          -1.2920    2.0040    0.0000 C.ar    1  LIG1       -0.0030
     13 C          -2.0540    1.3710    0.0000 C.ar    1  LIG1       -0.0002
     14 C          -1.9130    0.3830    0.0000 C.ar    1  LIG1        0.0013
     15 C          -0.9960    0.0170    0.0000 C.ar    1  LIG1        0.0149
     16 C           0.6540   -0.8630    0.0000 C.2     1  LIG1        0.2447
     17 C          -0.2250   -1.3790    0.0000 C.3     1  LIG1        0.1555
     18 S          -1.0630   -0.8290    0.0000 S.3     1  LIG1       -0.0029
     19 C          -1.9420   -1.3420    0.0000 C.ar    1  LIG1        0.4805
     20 N          -2.2080   -2.2960    0.0000 N.ar    1  LIG1        0.1996
     21 C          -3.1920   -2.3670    0.0000 C.ar    1  LIG1        0.7669
     22 N          -3.5580   -1.4790    0.0000 N.ar    1  LIG1        0.3162
     23 N          -2.7880   -0.7920    0.0000 N.ar    1  LIG1        0.1669
     24 O           1.5000   -1.4080    0.0000 O.2     1  LIG1       -0.2732
@<TRIPOS>BOND
     1     1     2    1
     2     1     7    1
     3     1    16   am
     4     2     3   ar
     5     2    15   ar
     6     3     4    1
     7     3    12   ar
     8     4     5    1
     9     5     6    1
    10     6     7   ar
    11     6    11   ar
    12     7     8   ar
    13     8     9   ar
    14     9    10   ar
    15    10    11   ar
    16    12    13   ar
    17    13    14   ar
    18    14    15   ar
    19    16    17    1
    20    16    24    2
    21    17    18    1
    22    18    19    1
    23    19    20   ar
    24    19    23   ar
    25    20    21   ar
    26    21    22   ar
    27    22    23   ar
