@<TRIPOS>MOLECULE
29454_ChemDiv_3807-5250
 25 28 0 0 0
SMALL
GASTEIGER
Energy = 0

@<TRIPOS>ATOM
      1 N           0.6000    0.5630    0.0000 N.am    1  LIG1       -0.2372
      2 C          -0.3080    0.9460    0.0000 C.ar    1  LIG1        0.0541
      3 C          -0.6130    1.8630    0.0000 C.ar    1  LIG1       -0.0078
      4 C          -0.0170    2.7000    0.0000 C.3     1  LIG1        0.0323
      5 C           0.9500    2.7420    0.0000 C.3     1  LIG1        0.0323
      6 C           1.5670    2.0670    0.0000 C.ar    1  LIG1       -0.0078
      7 C           1.4330    1.0960    0.0000 C.ar    1  LIG1        0.0541
      8 C           2.2920    0.4630    0.0000 C.ar    1  LIG1        0.0149
      9 C           3.2210    0.8960    0.0000 C.ar    1  LIG1        0.0013
     10 C           3.3210    1.9130    0.0000 C.ar    1  LIG1       -0.0002
     11 C           2.4960    2.5000    0.0000 C.ar    1  LIG1       -0.0030
     12 C          -1.5790    2.1040    0.0000 C.ar    1  LIG1       -0.0030
     13 C          -2.2460    1.4290    0.0000 C.ar    1  LIG1       -0.0002
     14 C          -1.9540    0.4130    0.0000 C.ar    1  LIG1        0.0013
     15 C          -0.9880    0.2210    0.0000 C.ar    1  LIG1        0.0149
     16 C           0.7080   -0.4460    0.0000 C.2     1  LIG1        0.2445
     17 C          -0.1290   -0.9920    0.0000 C.3     1  LIG1        0.1507
     18 S          -1.0380   -0.5580    0.0000 S.3     1  LIG1       -0.0658
     19 C          -1.8630   -1.1330    0.0000 C.ar    1  LIG1        0.1938
     20 N          -1.7630   -2.1420    0.0000 N.ar    1  LIG1       -0.2860
     21 C          -2.7290   -2.4960    0.0000 C.ar    1  LIG1        0.2031
     22 N          -3.3250   -1.7670    0.0000 N.ar    1  LIG1       -0.1250
     23 N          -2.7920   -0.8920    0.0000 N.ar    1  LIG1       -0.1220
     24 C          -0.9460   -2.7380    0.0000 C.3     1  LIG1        0.1341
     25 O           1.6290   -0.8920    0.0000 O.2     1  LIG1       -0.2732
@<TRIPOS>BOND
     1     1     2    1
     2     1     7    1
     3     1    16   am
     4     2     3   ar
     5     2    15   ar
     6     3     4    1
     7     3    12   ar
     8     4     5    1
     9     5     6    1
    10     6     7   ar
    11     6    11   ar
    12     7     8   ar
    13     8     9   ar
    14     9    10   ar
    15    10    11   ar
    16    12    13   ar
    17    13    14   ar
    18    14    15   ar
    19    16    17    1
    20    16    25    2
    21    17    18    1
    22    18    19    1
    23    19    20   ar
    24    19    23   ar
    25    20    21   ar
    26    20    24    1
    27    21    22   ar
    28    22    23   ar
