@<TRIPOS>MOLECULE
29457_ChemDiv_3715-0094
 35 38 0 0 0
SMALL
GASTEIGER
Energy = 0

@<TRIPOS>ATOM
      1 S           3.8790   -0.2380    0.0000 S.O2    1  LIG1       -0.0559
      2 N           4.7250   -0.7210    0.0000 N.pl3   1  LIG1       -0.5049
      3 C           4.7250   -1.7420    0.0000 C.ar    1  LIG1        0.0581
      4 N           5.5880   -2.2330    0.0000 N.ar    1  LIG1       -0.2544
      5 C           5.5880   -3.2380    0.0000 C.ar    1  LIG1        0.0601
      6 C           4.7250   -3.7330    0.0000 C.ar    1  LIG1        0.0294
      7 C           3.8790   -3.2380    0.0000 C.ar    1  LIG1        0.0601
      8 N           3.8790   -2.2330    0.0000 N.ar    1  LIG1       -0.2544
      9 C           3.0210   -3.7710    0.0000 C.3     1  LIG1        0.0521
     10 C           6.4710   -3.7710    0.0000 C.3     1  LIG1        0.0521
     11 C           2.9960    0.2790    0.0000 C.ar    1  LIG1        0.0894
     12 C           3.0210    1.3000    0.0000 C.ar    1  LIG1        0.0182
     13 C           2.1460    1.7920    0.0000 C.ar    1  LIG1        0.0179
     14 C           1.2920    1.3000    0.0000 C.ar    1  LIG1        0.0735
     15 N           0.4420    1.7920    0.0000 N.am    1  LIG1       -0.1785
     16 C          -0.4460    1.3000    0.0000 C.2     1  LIG1        0.2570
     17 O          -0.4460    0.2790    0.0000 O.2     1  LIG1       -0.2720
     18 C          -1.3040    1.7920    0.0000 C.3     1  LIG1        0.1505
     19 S          -2.1500    1.3000    0.0000 S.3     1  LIG1       -0.0844
     20 C          -3.0380    1.7920    0.0000 C.ar    1  LIG1        0.1163
     21 N          -3.9210    1.3000    0.0000 N.ar    1  LIG1       -0.2431
     22 C          -4.7710    1.7920    0.0000 C.ar    1  LIG1        0.0556
     23 C          -4.7710    2.8080    0.0000 C.ar    1  LIG1       -0.0079
     24 C          -3.9210    3.2920    0.0000 C.ar    1  LIG1        0.0092
     25 C          -3.0380    2.8080    0.0000 C.ar    1  LIG1        0.0916
     26 C          -2.1500    3.2920    0.0000 C.1     1  LIG1        0.1024
     27 N          -1.2670    3.7750    0.0000 N.1     1  LIG1       -0.1908
     28 C          -5.6290    3.2920    0.0000 C.3     1  LIG1        0.0276
     29 C          -6.4710    2.8080    0.0000 C.3     1  LIG1        0.0051
     30 C          -6.4710    1.7920    0.0000 C.3     1  LIG1        0.0066
     31 C          -5.6290    1.3000    0.0000 C.3     1  LIG1        0.0455
     32 C           1.2920    0.2790    0.0000 C.ar    1  LIG1        0.0179
     33 C           2.1460   -0.2000    0.0000 C.ar    1  LIG1        0.0182
     34 O           4.3710    0.6460    0.0000 O.2     1  LIG1       -0.1841
     35 O           3.3460   -1.0880    0.0000 O.2     1  LIG1       -0.1841
@<TRIPOS>BOND
     1     1     2    1
     2     1    11    1
     3     1    34    2
     4     1    35    2
     5     2     3    1
     6     3     4   ar
     7     3     8   ar
     8     4     5   ar
     9     5     6   ar
    10     5    10    1
    11     6     7   ar
    12     7     8   ar
    13     7     9    1
    14    11    12   ar
    15    11    33   ar
    16    12    13   ar
    17    13    14   ar
    18    14    15    1
    19    14    32   ar
    20    15    16   am
    21    16    17    2
    22    16    18    1
    23    18    19    1
    24    19    20    1
    25    20    21   ar
    26    20    25   ar
    27    21    22   ar
    28    22    23   ar
    29    22    31    1
    30    23    24   ar
    31    23    28    1
    32    24    25   ar
    33    25    26    1
    34    26    27    3
    35    28    29    1
    36    29    30    1
    37    30    31    1
    38    32    33   ar
