@<TRIPOS>MOLECULE
29456_ChemDiv_4151-0494
 25 28 0 0 0
SMALL
GASTEIGER
Energy = 0

@<TRIPOS>ATOM
      1 N          -0.7000    0.8210    0.0000 N.am    1  LIG1       -0.2372
      2 C           0.2750    1.0330    0.0000 C.ar    1  LIG1        0.0541
      3 C           0.6500    1.9290    0.0000 C.ar    1  LIG1       -0.0078
      4 C           0.2290    2.8040    0.0000 C.3     1  LIG1        0.0323
      5 C          -0.7420    3.0170    0.0000 C.3     1  LIG1        0.0323
      6 C          -1.5080    2.4290    0.0000 C.ar    1  LIG1       -0.0078
      7 C          -1.5080    1.4080    0.0000 C.ar    1  LIG1        0.0541
      8 C          -2.3500    0.9080    0.0000 C.ar    1  LIG1        0.0149
      9 C          -3.1920    1.4080    0.0000 C.ar    1  LIG1        0.0013
     10 C          -3.2250    2.4290    0.0000 C.ar    1  LIG1       -0.0002
     11 C          -2.3830    2.9290    0.0000 C.ar    1  LIG1       -0.0030
     12 C           1.6500    2.0420    0.0000 C.ar    1  LIG1       -0.0030
     13 C           2.2500    1.2000    0.0000 C.ar    1  LIG1       -0.0002
     14 C           1.8290    0.3210    0.0000 C.ar    1  LIG1        0.0013
     15 C           0.8630    0.2420    0.0000 C.ar    1  LIG1        0.0149
     16 C          -0.8830   -0.1420    0.0000 C.2     1  LIG1        0.2445
     17 C          -0.1920   -0.8380    0.0000 C.3     1  LIG1        0.1507
     18 S           0.7580   -0.5920    0.0000 S.3     1  LIG1       -0.0658
     19 C           1.5130   -1.3380    0.0000 C.ar    1  LIG1        0.1905
     20 N           1.2290   -2.3380    0.0000 N.ar    1  LIG1       -0.2196
     21 C           2.0210   -3.0130    0.0000 C.ar    1  LIG1        0.1027
     22 C           2.9880   -2.7040    0.0000 C.ar    1  LIG1        0.0414
     23 C           3.2210   -1.7210    0.0000 C.ar    1  LIG1        0.1027
     24 N           2.4420   -1.0210    0.0000 N.ar    1  LIG1       -0.2196
     25 O          -1.8210   -0.5210    0.0000 O.2     1  LIG1       -0.2732
@<TRIPOS>BOND
     1     1     2    1
     2     1     7    1
     3     1    16   am
     4     2     3   ar
     5     2    15   ar
     6     3     4    1
     7     3    12   ar
     8     4     5    1
     9     5     6    1
    10     6     7   ar
    11     6    11   ar
    12     7     8   ar
    13     8     9   ar
    14     9    10   ar
    15    10    11   ar
    16    12    13   ar
    17    13    14   ar
    18    14    15   ar
    19    16    17    1
    20    16    25    2
    21    17    18    1
    22    18    19    1
    23    19    20   ar
    24    19    24   ar
    25    20    21   ar
    26    21    22   ar
    27    22    23   ar
    28    23    24   ar
