@<TRIPOS>MOLECULE
29450_ChemDiv_3390-0301
 27 30 0 0 0
SMALL
GASTEIGER
Energy = 0

@<TRIPOS>ATOM
      1 N          -1.1380    1.0670    0.0000 N.am    1  LIG1       -0.2372
      2 C          -2.0290    1.5500    0.0000 C.ar    1  LIG1        0.0541
      3 C          -2.1710    2.5630    0.0000 C.ar    1  LIG1       -0.0078
      4 C          -1.5130    3.2830    0.0000 C.3     1  LIG1        0.0323
      5 C          -0.5290    3.2000    0.0000 C.3     1  LIG1        0.0323
      6 C           0.0670    2.4000    0.0000 C.ar    1  LIG1       -0.0078
      7 C          -0.2040    1.4290    0.0000 C.ar    1  LIG1        0.0541
      8 C           0.5250    0.7290    0.0000 C.ar    1  LIG1        0.0149
      9 C           1.4960    0.9830    0.0000 C.ar    1  LIG1        0.0013
     10 C           1.7790    1.9170    0.0000 C.ar    1  LIG1       -0.0002
     11 C           1.0420    2.6750    0.0000 C.ar    1  LIG1       -0.0030
     12 C          -3.1710    2.9170    0.0000 C.ar    1  LIG1       -0.0030
     13 C          -3.9290    2.3130    0.0000 C.ar    1  LIG1       -0.0002
     14 C          -3.7290    1.2790    0.0000 C.ar    1  LIG1        0.0013
     15 C          -2.8080    0.9130    0.0000 C.ar    1  LIG1        0.0149
     16 C          -1.1460    0.0920    0.0000 C.2     1  LIG1        0.2445
     17 C          -0.3750   -0.4750    0.0000 C.3     1  LIG1        0.1507
     18 S           0.5040   -0.0790    0.0000 S.3     1  LIG1       -0.0659
     19 C           1.3540   -0.6880    0.0000 C.ar    1  LIG1        0.1898
     20 N           1.2830   -1.6580    0.0000 N.ar    1  LIG1       -0.2256
     21 C           2.1040   -2.2960    0.0000 C.ar    1  LIG1        0.0627
     22 C           2.9830   -1.8500    0.0000 C.ar    1  LIG1        0.0295
     23 C           3.0750   -0.8380    0.0000 C.ar    1  LIG1        0.0627
     24 N           2.2670   -0.2710    0.0000 N.ar    1  LIG1       -0.2256
     25 C           3.9250   -0.4830    0.0000 C.3     1  LIG1        0.0522
     26 C           2.0250   -3.2790    0.0000 C.3     1  LIG1        0.0522
     27 O          -1.9880   -0.4420    0.0000 O.2     1  LIG1       -0.2732
@<TRIPOS>BOND
     1     1     2    1
     2     1     7    1
     3     1    16   am
     4     2     3   ar
     5     2    15   ar
     6     3     4    1
     7     3    12   ar
     8     4     5    1
     9     5     6    1
    10     6     7   ar
    11     6    11   ar
    12     7     8   ar
    13     8     9   ar
    14     9    10   ar
    15    10    11   ar
    16    12    13   ar
    17    13    14   ar
    18    14    15   ar
    19    16    17    1
    20    16    27    2
    21    17    18    1
    22    18    19    1
    23    19    20   ar
    24    19    24   ar
    25    20    21   ar
    26    21    22   ar
    27    21    26    1
    28    22    23   ar
    29    23    24   ar
    30    23    25    1
