@<TRIPOS>MOLECULE
29464_ChemDiv_C679-0476
 30 32 0 0 0
SMALL
GASTEIGER
Energy = 0

@<TRIPOS>ATOM
      1 N           2.8170    1.9630    0.0000 N.ar    1  LIG1       -0.1705
      2 C           2.8000    0.9670    0.0000 C.ar    1  LIG1        0.1992
      3 S           3.7580    0.6500    0.0000 S.2     1  LIG1       -0.0321
      4 C           4.3460    1.4670    0.0000 C.ar    1  LIG1        0.1110
      5 N           3.7630    2.2790    0.0000 N.ar    1  LIG1       -0.1585
      6 C           5.3420    1.4670    0.0000 C.3     1  LIG1        0.0545
      7 C           5.8420    0.6000    0.0000 C.3     1  LIG1        0.0073
      8 N           1.9330    0.4670    0.0000 N.ar    1  LIG1       -0.2213
      9 C           1.0710    0.9830    0.0000 C.ar    1  LIG1        0.1096
     10 C           1.0790    1.9790    0.0000 C.ar    1  LIG1        0.0810
     11 C           1.9500    2.4670    0.0000 C.ar    1  LIG1        0.2834
     12 O           1.9630    3.4750    0.0000 O.2     1  LIG1       -0.2650
     13 C           0.2040    0.4830    0.0000 C.3     1  LIG1        0.2512
     14 O          -0.6580    0.9880    0.0000 O.3     1  LIG1       -0.4659
     15 C          -1.5250    0.5000    0.0000 C.ar    1  LIG1        0.1728
     16 C          -2.3880    1.0040    0.0000 C.ar    1  LIG1        0.1722
     17 C          -3.2580    0.5080    0.0000 C.ar    1  LIG1        0.0401
     18 C          -3.2500   -0.4960    0.0000 C.ar    1  LIG1        0.0040
     19 C          -4.1170   -0.9960    0.0000 C.2     1  LIG1        0.0151
     20 C          -4.1170   -2.0040    0.0000 C.2     1  LIG1        0.1249
     21 C          -4.9790   -2.5040    0.0000 C.2     1  LIG1        0.2939
     22 O          -4.9790   -3.5000    0.0000 O.2     1  LIG1       -0.2659
     23 N          -5.8460   -2.0040    0.0000 N.am    1  LIG1       -0.0831
     24 C          -3.2500   -2.5040    0.0000 C.1     1  LIG1        0.1051
     25 N          -3.2500   -3.5040    0.0000 N.1     1  LIG1       -0.1907
     26 C          -2.3920   -0.9880    0.0000 C.ar    1  LIG1        0.0033
     27 C          -1.5250   -0.4960    0.0000 C.ar    1  LIG1        0.0401
     28 O          -2.3750    2.0040    0.0000 O.3     1  LIG1       -0.4724
     29 C          -3.2420    2.5130    0.0000 C.3     1  LIG1        0.2057
     30 C          -3.2380    3.5080    0.0000 C.3     1  LIG1        0.0512
@<TRIPOS>BOND
     1     1     2   ar
     2     1     5   ar
     3     1    11   ar
     4     2     3   ar
     5     2     8   ar
     6     3     4   ar
     7     4     5   ar
     8     4     6    1
     9     6     7    1
    10     8     9   ar
    11     9    10   ar
    12     9    13    1
    13    10    11   ar
    14    11    12    2
    15    13    14    1
    16    14    15    1
    17    15    16   ar
    18    15    27   ar
    19    16    17   ar
    20    16    28    1
    21    17    18   ar
    22    18    19    1
    23    18    26   ar
    24    19    20    2
    25    20    21    1
    26    20    24    1
    27    21    22    2
    28    21    23   am
    29    24    25    3
    30    26    27   ar
    31    28    29    1
    32    29    30    1
