@<TRIPOS>MOLECULE
29469_ChemDiv_8016-1202
 19 20 0 0 0
SMALL
GASTEIGER
Energy = 0

@<TRIPOS>ATOM
      1 C           0.0040    0.8210    0.0000 C.ar    1  LIG1        0.1161
      2 N          -0.8670    1.3210    0.0000 N.ar    1  LIG1       -0.2431
      3 C          -1.7290    0.8210    0.0000 C.ar    1  LIG1        0.0556
      4 C          -1.7290   -0.1790    0.0000 C.ar    1  LIG1       -0.0079
      5 C          -0.8670   -0.6790    0.0000 C.ar    1  LIG1        0.0092
      6 C           0.0040   -0.1790    0.0000 C.ar    1  LIG1        0.0916
      7 C           0.8670   -0.6790    0.0000 C.1     1  LIG1        0.1024
      8 N           0.8670   -1.6790    0.0000 N.1     1  LIG1       -0.1908
      9 C          -2.5960   -0.6790    0.0000 C.3     1  LIG1        0.0276
     10 C          -3.4670   -0.1790    0.0000 C.3     1  LIG1        0.0051
     11 C          -3.4670    0.8210    0.0000 C.3     1  LIG1        0.0066
     12 C          -2.5960    1.3210    0.0000 C.3     1  LIG1        0.0455
     13 S           0.8670    1.3210    0.0000 S.3     1  LIG1       -0.0907
     14 C           1.7290    0.8210    0.0000 C.3     1  LIG1        0.0765
     15 C           2.5920    0.3210    0.0000 C.2     1  LIG1        0.0593
     16 O           3.4630    0.8210    0.0000 O.co2   1  LIG1       -0.5483
     17 O           2.5920   -0.6790    0.0000 O.co2   1  LIG1       -0.5483
     18 C           1.2290   -0.0420    0.0000 C.3     1  LIG1        0.0168
     19 C           2.2290    1.6830    0.0000 C.3     1  LIG1        0.0168
@<TRIPOS>BOND
     1     1     2   ar
     2     1     6   ar
     3     1    13    1
     4     2     3   ar
     5     3     4   ar
     6     3    12    1
     7     4     5   ar
     8     4     9    1
     9     5     6   ar
    10     6     7    1
    11     7     8    3
    12     9    10    1
    13    10    11    1
    14    11    12    1
    15    13    14    1
    16    14    15    1
    17    14    18    1
    18    14    19    1
    19    15    16   ar
    20    15    17   ar
