@<TRIPOS>MOLECULE
29467_ChemDiv_8010-6327
 21 22 0 0 0
SMALL
GASTEIGER
Energy = 0

@<TRIPOS>ATOM
      1 N          -0.9830   -1.2580    0.0000 N.ar    1  LIG1       -0.2431
      2 C          -0.4710   -0.3880    0.0000 C.ar    1  LIG1        0.1163
      3 C          -0.9500    0.4790    0.0000 C.ar    1  LIG1        0.0916
      4 C          -0.4210    1.3130    0.0000 C.1     1  LIG1        0.1024
      5 N           0.1040    2.1420    0.0000 N.1     1  LIG1       -0.1908
      6 C          -1.9630    0.4960    0.0000 C.ar    1  LIG1        0.0092
      7 C          -2.4880   -0.3880    0.0000 C.ar    1  LIG1       -0.0079
      8 C          -1.9830   -1.2210    0.0000 C.ar    1  LIG1        0.0556
      9 C          -2.4540   -2.1040    0.0000 C.3     1  LIG1        0.0455
     10 C          -3.4580   -2.1380    0.0000 C.3     1  LIG1        0.0066
     11 C          -3.9880   -1.2710    0.0000 C.3     1  LIG1        0.0051
     12 C          -3.4920   -0.4000    0.0000 C.3     1  LIG1        0.0276
     13 S           0.5170   -0.3880    0.0000 S.3     1  LIG1       -0.0845
     14 C           1.0330   -1.2460    0.0000 C.3     1  LIG1        0.1485
     15 C           2.0250   -1.2210    0.0000 C.2     1  LIG1        0.2370
     16 N           2.5130   -0.3670    0.0000 N.am    1  LIG1       -0.2788
     17 C           2.0000    0.5210    0.0000 C.3     1  LIG1        0.0935
     18 C           0.9830    0.5290    0.0000 C.3     1  LIG1        0.0233
     19 C           3.5040   -0.3880    0.0000 C.3     1  LIG1        0.0935
     20 C           3.9830   -1.2580    0.0000 C.3     1  LIG1        0.0233
     21 O           2.5420   -2.0790    0.0000 O.2     1  LIG1       -0.2739
@<TRIPOS>BOND
     1     1     2   ar
     2     1     8   ar
     3     2     3   ar
     4     2    13    1
     5     3     4    1
     6     3     6   ar
     7     4     5    3
     8     6     7   ar
     9     7     8   ar
    10     7    12    1
    11     8     9    1
    12     9    10    1
    13    10    11    1
    14    11    12    1
    15    13    14    1
    16    14    15    1
    17    15    16   am
    18    15    21    2
    19    16    17    1
    20    16    19    1
    21    17    18    1
    22    19    20    1
