@<TRIPOS>MOLECULE
29466_ChemDiv_C679-0535
 38 42 0 0 0
SMALL
GASTEIGER
Energy = 0

@<TRIPOS>ATOM
      1 N           5.1920    1.9330    0.0000 N.ar    1  LIG1       -0.1705
      2 C           5.1750    0.9210    0.0000 C.ar    1  LIG1        0.1992
      3 S           6.1250    0.6040    0.0000 S.2     1  LIG1       -0.0321
      4 C           6.7290    1.4170    0.0000 C.ar    1  LIG1        0.1114
      5 N           6.1420    2.2330    0.0000 N.ar    1  LIG1       -0.1585
      6 C           7.7330    1.4080    0.0000 C.3     1  LIG1        0.0614
      7 N           4.3040    0.4290    0.0000 N.ar    1  LIG1       -0.2213
      8 C           3.4380    0.9500    0.0000 C.ar    1  LIG1        0.1096
      9 C           3.4380    1.9580    0.0000 C.ar    1  LIG1        0.0810
     10 C           4.3250    2.4420    0.0000 C.ar    1  LIG1        0.2834
     11 O           4.3380    3.4460    0.0000 O.2     1  LIG1       -0.2650
     12 C           2.5630    0.4540    0.0000 C.3     1  LIG1        0.2512
     13 O           1.6960    0.9710    0.0000 O.3     1  LIG1       -0.4659
     14 C           0.8250    0.4830    0.0000 C.ar    1  LIG1        0.1728
     15 C          -0.0380    1.0000    0.0000 C.ar    1  LIG1        0.1722
     16 C          -0.9170    0.5000    0.0000 C.ar    1  LIG1        0.0401
     17 C          -0.9170   -0.5040    0.0000 C.ar    1  LIG1        0.0040
     18 C          -1.7880   -1.0000    0.0000 C.2     1  LIG1        0.0150
     19 C          -1.7880   -2.0080    0.0000 C.2     1  LIG1        0.1237
     20 C          -2.6460   -2.5040    0.0000 C.2     1  LIG1        0.2804
     21 N          -3.5000   -2.0080    0.0000 N.am    1  LIG1       -0.1499
     22 C          -4.4920   -2.0080    0.0000 C.ar    1  LIG1        0.1861
     23 N          -5.0790   -1.1960    0.0000 N.ar    1  LIG1       -0.2225
     24 C          -6.0210   -1.5130    0.0000 C.ar    1  LIG1        0.0893
     25 C          -6.0210   -2.5040    0.0000 C.ar    1  LIG1        0.0498
     26 S          -5.0790   -2.8130    0.0000 S.2     1  LIG1       -0.0497
     27 C          -6.8790   -3.0000    0.0000 C.ar    1  LIG1        0.0081
     28 C          -7.7330   -2.5040    0.0000 C.ar    1  LIG1        0.0006
     29 C          -7.7330   -1.5130    0.0000 C.ar    1  LIG1        0.0016
     30 C          -6.8790   -1.0170    0.0000 C.ar    1  LIG1        0.0197
     31 O          -2.6460   -3.4960    0.0000 O.2     1  LIG1       -0.2672
     32 C          -0.9170   -2.5040    0.0000 C.1     1  LIG1        0.1051
     33 N          -0.9170   -3.5040    0.0000 N.1     1  LIG1       -0.1907
     34 C          -0.0630   -1.0000    0.0000 C.ar    1  LIG1        0.0033
     35 C           0.8080   -0.5170    0.0000 C.ar    1  LIG1        0.0401
     36 O          -0.0210    2.0040    0.0000 O.3     1  LIG1       -0.4724
     37 C          -0.8880    2.5130    0.0000 C.3     1  LIG1        0.2057
     38 C          -0.8790    3.5080    0.0000 C.3     1  LIG1        0.0512
@<TRIPOS>BOND
     1     1     2   ar
     2     1     5   ar
     3     1    10   ar
     4     2     3   ar
     5     2     7   ar
     6     3     4   ar
     7     4     5   ar
     8     4     6    1
     9     7     8   ar
    10     8     9   ar
    11     8    12    1
    12     9    10   ar
    13    10    11    2
    14    12    13    1
    15    13    14    1
    16    14    15   ar
    17    14    35   ar
    18    15    16   ar
    19    15    36    1
    20    16    17   ar
    21    17    18    1
    22    17    34   ar
    23    18    19    2
    24    19    20    1
    25    19    32    1
    26    20    21   am
    27    20    31    2
    28    21    22    1
    29    22    23   ar
    30    22    26   ar
    31    23    24   ar
    32    24    25   ar
    33    24    30   ar
    34    25    26   ar
    35    25    27   ar
    36    27    28   ar
    37    28    29   ar
    38    29    30   ar
    39    32    33    3
    40    34    35   ar
    41    36    37    1
    42    37    38    1
