@<TRIPOS>MOLECULE
29465_ChemDiv_6481-6683
 30 33 0 0 0
SMALL
GASTEIGER
Energy = 0

@<TRIPOS>ATOM
      1 C           1.2790   -0.9080    0.0000 C.ar    1  LIG1        0.0880
      2 C           2.2790   -0.9080    0.0000 C.ar    1  LIG1       -0.0067
      3 C           2.7750   -0.0460    0.0000 C.ar    1  LIG1        0.0450
      4 C           2.2790    0.8250    0.0000 C.ar    1  LIG1        0.0620
      5 N           1.2790    0.8250    0.0000 N.ar    1  LIG1       -0.2427
      6 C           0.7830   -0.0460    0.0000 C.ar    1  LIG1        0.1159
      7 S          -0.2130   -0.0460    0.0000 S.3     1  LIG1       -0.0860
      8 C          -0.7080    0.8250    0.0000 C.3     1  LIG1        0.1325
      9 C          -1.7080    0.8250    0.0000 C.2     1  LIG1        0.1844
     10 C          -2.2080   -0.0500    0.0000 C.ar    1  LIG1        0.0388
     11 C          -3.2130   -0.0500    0.0000 C.ar    1  LIG1        0.0431
     12 C          -3.7130   -0.9080    0.0000 C.ar    1  LIG1        0.1765
     13 C          -3.2130   -1.7790    0.0000 C.ar    1  LIG1        0.1764
     14 O          -3.8830   -2.5170    0.0000 O.3     1  LIG1       -0.4346
     15 C          -4.7880   -2.1040    0.0000 C.3     1  LIG1        0.4294
     16 O          -4.6920   -1.1170    0.0000 O.3     1  LIG1       -0.4346
     17 C          -2.2080   -1.7790    0.0000 C.ar    1  LIG1        0.0403
     18 C          -1.7080   -0.9080    0.0000 C.ar    1  LIG1        0.0062
     19 O          -2.2080    1.6710    0.0000 O.2     1  LIG1       -0.2904
     20 C           2.7750    1.6830    0.0000 C.3     1  LIG1        0.0463
     21 C           3.7790    1.6830    0.0000 C.3     1  LIG1        0.0128
     22 C           4.2790    0.8250    0.0000 C.3     1  LIG1        0.0695
     23 C           3.7790   -0.0460    0.0000 C.2     1  LIG1        0.1739
     24 O           4.2920   -0.9080    0.0000 O.2     1  LIG1       -0.2913
     25 C           3.5170    2.6500    0.0000 C.3     1  LIG1        0.0008
     26 C           4.7830    1.6830    0.0000 C.3     1  LIG1        0.0008
     27 C           2.7920   -1.7790    0.0000 C.3     1  LIG1        0.0272
     28 C           2.2920   -2.6460    0.0000 C.3     1  LIG1        0.0050
     29 C           0.7710   -1.7790    0.0000 C.1     1  LIG1        0.1021
     30 N           0.2580   -2.6460    0.0000 N.1     1  LIG1       -0.1908
@<TRIPOS>BOND
     1     1     2   ar
     2     1     6   ar
     3     1    29    1
     4     2     3   ar
     5     2    27    1
     6     3     4   ar
     7     3    23    1
     8     4     5   ar
     9     4    20    1
    10     5     6   ar
    11     6     7    1
    12     7     8    1
    13     8     9    1
    14     9    10    1
    15     9    19    2
    16    10    11   ar
    17    10    18   ar
    18    11    12   ar
    19    12    13   ar
    20    12    16    1
    21    13    14    1
    22    13    17   ar
    23    14    15    1
    24    15    16    1
    25    17    18   ar
    26    20    21    1
    27    21    22    1
    28    21    25    1
    29    21    26    1
    30    22    23    1
    31    23    24    2
    32    27    28    1
    33    29    30    3
