@<TRIPOS>MOLECULE
29460_ChemDiv_C679-0452
 38 41 0 0 0
SMALL
GASTEIGER
Energy = 0

@<TRIPOS>ATOM
      1 N           4.5210    2.6920    0.0000 N.ar    1  LIG1       -0.1705
      2 C           4.5170    1.6830    0.0000 C.ar    1  LIG1        0.1992
      3 S           5.4710    1.3710    0.0000 S.2     1  LIG1       -0.0321
      4 C           6.0670    2.1830    0.0000 C.ar    1  LIG1        0.1110
      5 N           5.4790    3.0040    0.0000 N.ar    1  LIG1       -0.1585
      6 C           7.0750    2.1830    0.0000 C.3     1  LIG1        0.0545
      7 C           7.5750    1.3210    0.0000 C.3     1  LIG1        0.0073
      8 N           3.6460    1.1880    0.0000 N.ar    1  LIG1       -0.2213
      9 C           2.7710    1.7000    0.0000 C.ar    1  LIG1        0.1096
     10 C           2.7830    2.7080    0.0000 C.ar    1  LIG1        0.0810
     11 C           3.6580    3.2000    0.0000 C.ar    1  LIG1        0.2834
     12 O           3.6630    4.2040    0.0000 O.2     1  LIG1       -0.2650
     13 C           1.8960    1.2040    0.0000 C.3     1  LIG1        0.2512
     14 O           1.0380    1.7170    0.0000 O.3     1  LIG1       -0.4659
     15 C           0.1630    1.2210    0.0000 C.ar    1  LIG1        0.1728
     16 C          -0.7000    1.7330    0.0000 C.ar    1  LIG1        0.1722
     17 C          -1.5880    1.2250    0.0000 C.ar    1  LIG1        0.0401
     18 C          -1.5750    0.2210    0.0000 C.ar    1  LIG1        0.0040
     19 C          -2.4460   -0.2790    0.0000 C.2     1  LIG1        0.0150
     20 C          -2.4460   -1.2710    0.0000 C.2     1  LIG1        0.1236
     21 C          -3.2920   -1.7670    0.0000 C.2     1  LIG1        0.2787
     22 N          -4.1500   -1.2710    0.0000 N.am    1  LIG1       -0.1749
     23 C          -5.0080   -1.7670    0.0000 C.ar    1  LIG1        0.0739
     24 C          -5.0080   -2.7500    0.0000 C.ar    1  LIG1        0.0197
     25 C          -5.8630   -3.2540    0.0000 C.ar    1  LIG1        0.0382
     26 C          -6.7210   -2.7580    0.0000 C.ar    1  LIG1        0.1388
     27 C          -6.7210   -1.7670    0.0000 C.ar    1  LIG1        0.0382
     28 C          -5.8670   -1.2710    0.0000 C.ar    1  LIG1        0.0197
     29 O          -7.5750   -3.2460    0.0000 O.3     1  LIG1       -0.4714
     30 C          -7.5750   -4.2380    0.0000 C.3     1  LIG1        0.2525
     31 O          -3.2920   -2.7580    0.0000 O.2     1  LIG1       -0.2673
     32 C          -1.5750   -1.7670    0.0000 C.1     1  LIG1        0.1051
     33 N          -1.5750   -2.7750    0.0000 N.1     1  LIG1       -0.1907
     34 C          -0.7170   -0.2790    0.0000 C.ar    1  LIG1        0.0033
     35 C           0.1580    0.2210    0.0000 C.ar    1  LIG1        0.0401
     36 O          -0.6960    2.7290    0.0000 O.3     1  LIG1       -0.4724
     37 C          -1.5580    3.2330    0.0000 C.3     1  LIG1        0.2057
     38 C          -1.5540    4.2380    0.0000 C.3     1  LIG1        0.0512
@<TRIPOS>BOND
     1     1     2   ar
     2     1     5   ar
     3     1    11   ar
     4     2     3   ar
     5     2     8   ar
     6     3     4   ar
     7     4     5   ar
     8     4     6    1
     9     6     7    1
    10     8     9   ar
    11     9    10   ar
    12     9    13    1
    13    10    11   ar
    14    11    12    2
    15    13    14    1
    16    14    15    1
    17    15    16   ar
    18    15    35   ar
    19    16    17   ar
    20    16    36    1
    21    17    18   ar
    22    18    19    1
    23    18    34   ar
    24    19    20    2
    25    20    21    1
    26    20    32    1
    27    21    22   am
    28    21    31    2
    29    22    23    1
    30    23    24   ar
    31    23    28   ar
    32    24    25   ar
    33    25    26   ar
    34    26    27   ar
    35    26    29    1
    36    27    28   ar
    37    29    30    1
    38    32    33    3
    39    34    35   ar
    40    36    37    1
    41    37    38    1
