@<TRIPOS>MOLECULE
29463_ChemDiv_5542-0002
 27 29 0 0 0
SMALL
GASTEIGER
Energy = 0

@<TRIPOS>ATOM
      1 C          -1.2500    1.9750    0.0000 C.ar    1  LIG1        0.0490
      2 C          -1.2500    0.9750    0.0000 C.ar    1  LIG1        0.0623
      3 N          -0.3920    0.4750    0.0000 N.ar    1  LIG1       -0.2427
      4 C           0.4790    0.9880    0.0000 C.ar    1  LIG1        0.1163
      5 C           0.4790    1.9630    0.0000 C.ar    1  LIG1        0.0920
      6 C          -0.3920    2.4710    0.0000 C.ar    1  LIG1        0.0163
      7 C           1.3790    2.4500    0.0000 C.1     1  LIG1        0.1025
      8 N           2.2460    1.9170    0.0000 N.1     1  LIG1       -0.1908
      9 S           1.3790    0.5000    0.0000 S.3     1  LIG1       -0.0844
     10 C           2.2460    1.0330    0.0000 C.3     1  LIG1        0.1505
     11 C           3.1170    0.5460    0.0000 C.2     1  LIG1        0.2570
     12 N           3.1380   -0.4580    0.0000 N.am    1  LIG1       -0.1785
     13 C           2.2830   -0.9580    0.0000 C.ar    1  LIG1        0.0731
     14 C           2.3080   -1.9630    0.0000 C.ar    1  LIG1        0.0123
     15 C           1.4630   -2.4750    0.0000 C.ar    1  LIG1       -0.0206
     16 C           0.5920   -1.9920    0.0000 C.ar    1  LIG1       -0.0042
     17 C           0.5670   -1.0000    0.0000 C.ar    1  LIG1        0.0010
     18 C           1.4210   -0.4830    0.0000 C.ar    1  LIG1        0.0166
     19 C           1.4830   -3.4670    0.0000 C.3     1  LIG1        0.0311
     20 O           3.9630    1.0670    0.0000 O.2     1  LIG1       -0.2720
     21 C          -2.1170    0.4750    0.0000 C.3     1  LIG1        0.0463
     22 C          -2.9880    0.9880    0.0000 C.3     1  LIG1        0.0128
     23 C          -2.9880    1.9630    0.0000 C.3     1  LIG1        0.0695
     24 C          -2.1170    2.4710    0.0000 C.2     1  LIG1        0.1742
     25 O          -2.1170    3.4710    0.0000 O.2     1  LIG1       -0.2913
     26 C          -3.9670    0.8130    0.0000 C.3     1  LIG1        0.0008
     27 C          -3.4960    0.1080    0.0000 C.3     1  LIG1        0.0008
@<TRIPOS>BOND
     1     1     2   ar
     2     1     6   ar
     3     1    24    1
     4     2     3   ar
     5     2    21    1
     6     3     4   ar
     7     4     5   ar
     8     4     9    1
     9     5     6   ar
    10     5     7    1
    11     7     8    3
    12     9    10    1
    13    10    11    1
    14    11    12   am
    15    11    20    2
    16    12    13    1
    17    13    14   ar
    18    13    18   ar
    19    14    15   ar
    20    15    16   ar
    21    15    19    1
    22    16    17   ar
    23    17    18   ar
    24    21    22    1
    25    22    23    1
    26    22    26    1
    27    22    27    1
    28    23    24    1
    29    24    25    2
