@<TRIPOS>MOLECULE
29462_ChemDiv_C679-0469
 26 28 0 0 0
SMALL
GASTEIGER
Energy = 0

@<TRIPOS>ATOM
      1 N           3.0670    1.9790    0.0000 N.ar    1  LIG1       -0.1705
      2 C           3.0500    0.9830    0.0000 C.ar    1  LIG1        0.1992
      3 S           4.0080    0.6670    0.0000 S.2     1  LIG1       -0.0321
      4 C           4.5920    1.4830    0.0000 C.ar    1  LIG1        0.1114
      5 N           4.0130    2.2960    0.0000 N.ar    1  LIG1       -0.1585
      6 C           5.5920    1.4830    0.0000 C.3     1  LIG1        0.0614
      7 N           2.1830    0.4830    0.0000 N.ar    1  LIG1       -0.2213
      8 C           1.3210    1.0000    0.0000 C.ar    1  LIG1        0.1096
      9 C           1.3290    1.9960    0.0000 C.ar    1  LIG1        0.0810
     10 C           2.2000    2.4830    0.0000 C.ar    1  LIG1        0.2834
     11 O           2.2130    3.4920    0.0000 O.2     1  LIG1       -0.2650
     12 C           0.4540    0.5000    0.0000 C.3     1  LIG1        0.2510
     13 O          -0.4080    1.0040    0.0000 O.3     1  LIG1       -0.4690
     14 C          -1.2750    0.5170    0.0000 C.ar    1  LIG1        0.1391
     15 C          -1.2750   -0.4790    0.0000 C.ar    1  LIG1        0.0369
     16 C          -2.1420   -0.9710    0.0000 C.ar    1  LIG1        0.0031
     17 C          -3.0040   -0.4790    0.0000 C.ar    1  LIG1        0.0010
     18 C          -3.8670   -0.9790    0.0000 C.2     1  LIG1        0.0150
     19 C          -3.8670   -1.9880    0.0000 C.2     1  LIG1        0.1249
     20 C          -4.7330   -2.4830    0.0000 C.2     1  LIG1        0.2939
     21 O          -4.7330   -3.4830    0.0000 O.2     1  LIG1       -0.2659
     22 N          -5.5960   -1.9880    0.0000 N.am    1  LIG1       -0.0831
     23 C          -3.0040   -2.4830    0.0000 C.1     1  LIG1        0.1051
     24 N          -3.0040   -3.4880    0.0000 N.1     1  LIG1       -0.1907
     25 C          -3.0080    0.5250    0.0000 C.ar    1  LIG1        0.0031
     26 C          -2.1380    1.0210    0.0000 C.ar    1  LIG1        0.0369
@<TRIPOS>BOND
     1     1     2   ar
     2     1     5   ar
     3     1    10   ar
     4     2     3   ar
     5     2     7   ar
     6     3     4   ar
     7     4     5   ar
     8     4     6    1
     9     7     8   ar
    10     8     9   ar
    11     8    12    1
    12     9    10   ar
    13    10    11    2
    14    12    13    1
    15    13    14    1
    16    14    15   ar
    17    14    26   ar
    18    15    16   ar
    19    16    17   ar
    20    17    18    1
    21    17    25   ar
    22    18    19    2
    23    19    20    1
    24    19    23    1
    25    20    21    2
    26    20    22   am
    27    23    24    3
    28    25    26   ar
