@<TRIPOS>MOLECULE
29461_ChemDiv_5518-2017
 28 30 0 0 0
SMALL
GASTEIGER
Energy = 0

@<TRIPOS>ATOM
      1 C           1.2330    0.5130    0.0000 C.ar    1  LIG1        0.1855
      2 N           2.1130    0.0250    0.0000 N.ar    1  LIG1       -0.2263
      3 C           2.8670    0.6710    0.0000 C.ar    1  LIG1        0.0787
      4 C           3.8420    0.4630    0.0000 C.3     1  LIG1        0.1557
      5 C           4.5080    1.1920    0.0000 C.2     1  LIG1        0.3231
      6 O           5.4830    0.9750    0.0000 O.2     1  LIG1       -0.2497
      7 O           4.2130    2.1500    0.0000 O.3     1  LIG1       -0.4482
      8 C           4.8880    2.8790    0.0000 C.3     1  LIG1        0.2086
      9 C           4.5750    3.8330    0.0000 C.3     1  LIG1        0.0513
     10 C           2.4500    1.6000    0.0000 C.ar    1  LIG1        0.0534
     11 S           1.4540    1.5040    0.0000 S.2     1  LIG1       -0.0495
     12 N           0.3210    0.1290    0.0000 N.am    1  LIG1       -0.1536
     13 C           0.1920   -0.8670    0.0000 C.2     1  LIG1        0.2587
     14 O           1.0040   -1.4670    0.0000 O.2     1  LIG1       -0.2720
     15 C          -0.7040   -1.2670    0.0000 C.3     1  LIG1        0.1505
     16 S          -0.9380   -2.2330    0.0000 S.3     1  LIG1       -0.0844
     17 C          -1.9170   -2.3290    0.0000 C.ar    1  LIG1        0.1163
     18 N          -2.5170   -3.1250    0.0000 N.ar    1  LIG1       -0.2431
     19 C          -3.4960   -3.0170    0.0000 C.ar    1  LIG1        0.0556
     20 C          -3.8920   -2.0830    0.0000 C.ar    1  LIG1       -0.0079
     21 C          -3.3130   -1.2880    0.0000 C.ar    1  LIG1        0.0092
     22 C          -2.3170   -1.4170    0.0000 C.ar    1  LIG1        0.0916
     23 C          -1.7330   -0.6170    0.0000 C.1     1  LIG1        0.1024
     24 N          -1.1380    0.1960    0.0000 N.1     1  LIG1       -0.1908
     25 C          -4.8790   -1.9670    0.0000 C.3     1  LIG1        0.0276
     26 C          -5.4880   -2.7830    0.0000 C.3     1  LIG1        0.0051
     27 C          -5.0920   -3.7130    0.0000 C.3     1  LIG1        0.0066
     28 C          -4.0920   -3.8290    0.0000 C.3     1  LIG1        0.0455
@<TRIPOS>BOND
     1     1     2   ar
     2     1    11   ar
     3     1    12    1
     4     2     3   ar
     5     3     4    1
     6     3    10   ar
     7     4     5    1
     8     5     6    2
     9     5     7    1
    10     7     8    1
    11     8     9    1
    12    10    11   ar
    13    12    13   am
    14    13    14    2
    15    13    15    1
    16    15    16    1
    17    16    17    1
    18    17    18   ar
    19    17    22   ar
    20    18    19   ar
    21    19    20   ar
    22    19    28    1
    23    20    21   ar
    24    20    25    1
    25    21    22   ar
    26    22    23    1
    27    23    24    3
    28    25    26    1
    29    26    27    1
    30    27    28    1
