@<TRIPOS>MOLECULE
29472_ChemDiv_C679-1913
 28 30 0 0 0
SMALL
GASTEIGER
Energy = 0

@<TRIPOS>ATOM
      1 N           2.3710    1.9790    0.0000 N.ar    1  LIG1       -0.1705
      2 C           2.3710    0.9750    0.0000 C.ar    1  LIG1        0.1992
      3 S           3.3250    0.6710    0.0000 S.2     1  LIG1       -0.0321
      4 C           3.9170    1.4790    0.0000 C.ar    1  LIG1        0.1110
      5 N           3.3250    2.2920    0.0000 N.ar    1  LIG1       -0.1585
      6 C           4.9130    1.4790    0.0000 C.3     1  LIG1        0.0545
      7 C           5.4130    0.6130    0.0000 C.3     1  LIG1        0.0073
      8 N           1.5040    0.4750    0.0000 N.ar    1  LIG1       -0.2213
      9 C           0.6330    0.9920    0.0000 C.ar    1  LIG1        0.1096
     10 C           0.6420    1.9880    0.0000 C.ar    1  LIG1        0.0810
     11 C           1.5130    2.4880    0.0000 C.ar    1  LIG1        0.2834
     12 O           1.5250    3.4880    0.0000 O.2     1  LIG1       -0.2650
     13 C          -0.2290    0.4960    0.0000 C.3     1  LIG1        0.2512
     14 O          -1.0920    1.0040    0.0000 O.3     1  LIG1       -0.4659
     15 C          -1.9540    0.5130    0.0000 C.ar    1  LIG1        0.1728
     16 C          -2.8210    1.0210    0.0000 C.ar    1  LIG1        0.1724
     17 C          -3.6920    0.5210    0.0000 C.ar    1  LIG1        0.0401
     18 C          -3.6920   -0.4880    0.0000 C.ar    1  LIG1        0.0046
     19 C          -4.5540   -0.9750    0.0000 C.2     1  LIG1        0.0208
     20 C          -4.5540   -1.9830    0.0000 C.2     1  LIG1        0.1365
     21 C          -3.6920   -2.4830    0.0000 C.1     1  LIG1        0.1108
     22 N          -3.6920   -3.4830    0.0000 N.1     1  LIG1       -0.1901
     23 C          -5.4170   -2.4830    0.0000 C.1     1  LIG1        0.1108
     24 N          -5.4170   -3.4830    0.0000 N.1     1  LIG1       -0.1901
     25 C          -2.8290   -0.9750    0.0000 C.ar    1  LIG1        0.0034
     26 C          -1.9580   -0.4880    0.0000 C.ar    1  LIG1        0.0401
     27 O          -2.8170    2.0210    0.0000 O.3     1  LIG1       -0.4684
     28 C          -3.6790    2.5170    0.0000 C.3     1  LIG1        0.2526
@<TRIPOS>BOND
     1     1     2   ar
     2     1     5   ar
     3     1    11   ar
     4     2     3   ar
     5     2     8   ar
     6     3     4   ar
     7     4     5   ar
     8     4     6    1
     9     6     7    1
    10     8     9   ar
    11     9    10   ar
    12     9    13    1
    13    10    11   ar
    14    11    12    2
    15    13    14    1
    16    14    15    1
    17    15    16   ar
    18    15    26   ar
    19    16    17   ar
    20    16    27    1
    21    17    18   ar
    22    18    19    1
    23    18    25   ar
    24    19    20    2
    25    20    21    1
    26    20    23    1
    27    21    22    3
    28    23    24    3
    29    25    26   ar
    30    27    28    1
