@<TRIPOS>MOLECULE
29478_ChemDiv_4582-0137
 25 28 0 0 0
SMALL
GASTEIGER
Energy = 0

@<TRIPOS>ATOM
      1 N          -0.6880    0.8420    0.0000 N.am    1  LIG1       -0.2372
      2 C           0.2630    1.0540    0.0000 C.ar    1  LIG1        0.0541
      3 C           0.6420    1.9330    0.0000 C.ar    1  LIG1       -0.0078
      4 C           0.2170    2.8210    0.0000 C.3     1  LIG1        0.0323
      5 C          -0.7330    3.0330    0.0000 C.3     1  LIG1        0.0323
      6 C          -1.4960    2.4540    0.0000 C.ar    1  LIG1       -0.0078
      7 C          -1.4960    1.4330    0.0000 C.ar    1  LIG1        0.0541
      8 C          -2.3420    0.9210    0.0000 C.ar    1  LIG1        0.0149
      9 C          -3.1880    1.4330    0.0000 C.ar    1  LIG1        0.0013
     10 C          -3.2210    2.4540    0.0000 C.ar    1  LIG1       -0.0002
     11 C          -2.3790    2.9540    0.0000 C.ar    1  LIG1       -0.0030
     12 C           1.6420    2.0670    0.0000 C.ar    1  LIG1       -0.0030
     13 C           2.2670    1.2210    0.0000 C.ar    1  LIG1       -0.0002
     14 C           1.8460    0.3420    0.0000 C.ar    1  LIG1        0.0013
     15 C           0.8500    0.2460    0.0000 C.ar    1  LIG1        0.0149
     16 C          -0.8920   -0.1330    0.0000 C.2     1  LIG1        0.2445
     17 C          -0.1880   -0.8210    0.0000 C.3     1  LIG1        0.1492
     18 S           0.7460   -0.5750    0.0000 S.3     1  LIG1       -0.0851
     19 C           1.4580   -1.2710    0.0000 C.ar    1  LIG1        0.1071
     20 N           2.4880   -1.0580    0.0000 N.ar    1  LIG1       -0.2376
     21 C           3.2170   -1.7710    0.0000 C.ar    1  LIG1        0.0994
     22 C           2.9000   -2.7130    0.0000 C.ar    1  LIG1        0.0207
     23 C           1.9500   -3.0290    0.0000 C.ar    1  LIG1        0.0037
     24 C           1.2130   -2.2920    0.0000 C.ar    1  LIG1        0.0255
     25 O          -1.8170   -0.5040    0.0000 O.2     1  LIG1       -0.2732
@<TRIPOS>BOND
     1     1     2    1
     2     1     7    1
     3     1    16   am
     4     2     3   ar
     5     2    15   ar
     6     3     4    1
     7     3    12   ar
     8     4     5    1
     9     5     6    1
    10     6     7   ar
    11     6    11   ar
    12     7     8   ar
    13     8     9   ar
    14     9    10   ar
    15    10    11   ar
    16    12    13   ar
    17    13    14   ar
    18    14    15   ar
    19    16    17    1
    20    16    25    2
    21    17    18    1
    22    18    19    1
    23    19    20   ar
    24    19    24   ar
    25    20    21   ar
    26    21    22   ar
    27    22    23   ar
    28    23    24   ar
