@<TRIPOS>MOLECULE
29471_ChemDiv_8017-6219
 21 23 0 0 0
SMALL
GASTEIGER
Energy = 0

@<TRIPOS>ATOM
      1 N          -1.3000    0.5000    0.0000 N.ar    1  LIG1       -0.2431
      2 C          -0.4330    1.0000    0.0000 C.ar    1  LIG1        0.1161
      3 C          -0.4330    2.0000    0.0000 C.ar    1  LIG1        0.0916
      4 C           0.4330    2.5000    0.0000 C.1     1  LIG1        0.1024
      5 N           1.2960    2.0000    0.0000 N.1     1  LIG1       -0.1908
      6 C          -1.3000    2.5000    0.0000 C.ar    1  LIG1        0.0092
      7 C          -2.1710    2.0000    0.0000 C.ar    1  LIG1       -0.0079
      8 C          -2.1710    1.0000    0.0000 C.ar    1  LIG1        0.0556
      9 C          -3.0330    0.5000    0.0000 C.3     1  LIG1        0.0455
     10 C          -3.9000    1.0000    0.0000 C.3     1  LIG1        0.0066
     11 C          -3.9000    2.0000    0.0000 C.3     1  LIG1        0.0051
     12 C          -3.0330    2.5000    0.0000 C.3     1  LIG1        0.0276
     13 S           0.4330    0.5000    0.0000 S.3     1  LIG1       -0.0894
     14 C           0.4330   -0.4960    0.0000 C.3     1  LIG1        0.0914
     15 C           1.2960   -0.9960    0.0000 C.ar    1  LIG1        0.0083
     16 C           1.2960   -1.9960    0.0000 C.ar    1  LIG1        0.0964
     17 N           2.1670   -2.4960    0.0000 N.ar    1  LIG1       -0.2327
     18 C           3.0330   -1.9960    0.0000 C.ar    1  LIG1        0.1383
     19 CL          3.8960   -2.4960    0.0000 Cl      1  LIG1       -0.0613
     20 C           3.0330   -0.9960    0.0000 C.ar    1  LIG1        0.0305
     21 C           2.1670   -0.5040    0.0000 C.ar    1  LIG1        0.0006
@<TRIPOS>BOND
     1     1     2   ar
     2     1     8   ar
     3     2     3   ar
     4     2    13    1
     5     3     4    1
     6     3     6   ar
     7     4     5    3
     8     6     7   ar
     9     7     8   ar
    10     7    12    1
    11     8     9    1
    12     9    10    1
    13    10    11    1
    14    11    12    1
    15    13    14    1
    16    14    15    1
    17    15    16   ar
    18    15    21   ar
    19    16    17   ar
    20    17    18   ar
    21    18    19    1
    22    18    20   ar
    23    20    21   ar
