@<TRIPOS>MOLECULE
29473_ChemDiv_8016-5696
 27 30 0 0 0
SMALL
GASTEIGER
Energy = 0

@<TRIPOS>ATOM
      1 C          -0.4580   -1.5170    0.0000 C.2     1  LIG1        0.2690
      2 C          -0.4580   -2.5170    0.0000 C.ar    1  LIG1        0.0554
      3 C           0.4040   -3.0130    0.0000 C.ar    1  LIG1        0.0044
      4 C           1.2670   -2.5170    0.0000 C.ar    1  LIG1        0.0001
      5 C           2.1330   -3.0130    0.0000 C.ar    1  LIG1        0.0000
      6 C           3.0040   -2.5170    0.0000 C.ar    1  LIG1        0.0000
      7 C           3.0000   -1.5130    0.0000 C.ar    1  LIG1        0.0000
      8 C           2.1290   -1.0170    0.0000 C.ar    1  LIG1        0.0000
      9 C           1.2670   -1.5170    0.0000 C.ar    1  LIG1        0.0000
     10 C           0.4040   -4.0080    0.0000 C.ar    1  LIG1        0.0001
     11 C          -0.4630   -4.5170    0.0000 C.ar    1  LIG1        0.0000
     12 C          -1.3250   -4.0170    0.0000 C.ar    1  LIG1        0.0001
     13 C          -1.3250   -3.0170    0.0000 C.ar    1  LIG1        0.0046
     14 N          -1.3250   -1.0170    0.0000 N.am    1  LIG1       -0.1754
     15 C          -1.3250   -0.0170    0.0000 C.ar    1  LIG1        0.0738
     16 C          -2.1960    0.4880    0.0000 C.ar    1  LIG1        0.0179
     17 C          -2.1960    1.4750    0.0000 C.ar    1  LIG1        0.0162
     18 C          -1.3210    1.9880    0.0000 C.ar    1  LIG1        0.0539
     19 N          -1.3250    2.9830    0.0000 N.am    1  LIG1       -0.2586
     20 C          -2.1330    3.5670    0.0000 C.2     1  LIG1        0.2294
     21 O          -3.0080    3.0750    0.0000 O.2     1  LIG1       -0.2745
     22 C          -1.8330    4.5040    0.0000 C.3     1  LIG1        0.0874
     23 C          -0.8250    4.5170    0.0000 C.3     1  LIG1        0.0315
     24 C          -0.5130    3.5670    0.0000 C.3     1  LIG1        0.0987
     25 C          -0.4580    1.4880    0.0000 C.ar    1  LIG1        0.0162
     26 C          -0.4580    0.4880    0.0000 C.ar    1  LIG1        0.0179
     27 O           0.4040   -1.0170    0.0000 O.2     1  LIG1       -0.2680
@<TRIPOS>BOND
     1     1     2    1
     2     1    14   am
     3     1    27    2
     4     2     3   ar
     5     2    13   ar
     6     3     4    1
     7     3    10   ar
     8     4     5   ar
     9     4     9   ar
    10     5     6   ar
    11     6     7   ar
    12     7     8   ar
    13     8     9   ar
    14    10    11   ar
    15    11    12   ar
    16    12    13   ar
    17    14    15    1
    18    15    16   ar
    19    15    26   ar
    20    16    17   ar
    21    17    18   ar
    22    18    19    1
    23    18    25   ar
    24    19    20   am
    25    19    24    1
    26    20    21    2
    27    20    22    1
    28    22    23    1
    29    23    24    1
    30    25    26   ar
