@<TRIPOS>MOLECULE
29479_ChemDiv_8016-5687
 25 28 0 0 0
SMALL
GASTEIGER
Energy = 0

@<TRIPOS>ATOM
      1 S           1.8670   -0.7170    0.0000 S.O2    1  LIG1        0.0766
      2 N           2.8670   -0.7210    0.0000 N.pl3   1  LIG1       -0.1906
      3 C           3.4580    0.0830    0.0000 C.ar    1  LIG1        0.0649
      4 C           4.3960   -0.2210    0.0000 C.ar    1  LIG1       -0.0055
      5 C           4.3960   -1.2250    0.0000 C.3     1  LIG1        0.0510
      6 C           3.4460   -1.5290    0.0000 C.3     1  LIG1        0.1205
      7 C           5.1460    0.4290    0.0000 C.ar    1  LIG1       -0.0029
      8 C           4.9460    1.4040    0.0000 C.ar    1  LIG1       -0.0002
      9 C           3.9960    1.7210    0.0000 C.ar    1  LIG1        0.0013
     10 C           3.2580    1.0540    0.0000 C.ar    1  LIG1        0.0158
     11 C           0.8670   -0.7080    0.0000 C.ar    1  LIG1        0.1254
     12 C           0.3580   -1.5540    0.0000 C.ar    1  LIG1        0.0202
     13 C          -0.6460   -1.5460    0.0000 C.ar    1  LIG1        0.0014
     14 C          -1.1420   -0.6670    0.0000 C.ar    1  LIG1        0.0001
     15 C          -2.1290   -0.6580    0.0000 C.ar    1  LIG1        0.0000
     16 C          -2.6290    0.2170    0.0000 C.ar    1  LIG1        0.0005
     17 C          -3.6290    0.2380    0.0000 C.ar    1  LIG1        0.0067
     18 C          -4.1420   -0.6290    0.0000 C.ar    1  LIG1        0.0346
     19 C          -3.6420   -1.5080    0.0000 C.ar    1  LIG1        0.0067
     20 C          -2.6420   -1.5170    0.0000 C.ar    1  LIG1        0.0005
     21 BR         -5.1500   -0.6290    0.0000 Br      1  LIG1       -0.0490
     22 C          -0.6290    0.1960    0.0000 C.ar    1  LIG1        0.0014
     23 C           0.3790    0.1790    0.0000 C.ar    1  LIG1        0.0202
     24 O           1.8920    0.2830    0.0000 O.2     1  LIG1       -0.1497
     25 O           1.8460   -1.7170    0.0000 O.2     1  LIG1       -0.1497
@<TRIPOS>BOND
     1     1     2    1
     2     1    11    1
     3     1    24    2
     4     1    25    2
     5     2     3    1
     6     2     6    1
     7     3     4   ar
     8     3    10   ar
     9     4     5    1
    10     4     7   ar
    11     5     6    1
    12     7     8   ar
    13     8     9   ar
    14     9    10   ar
    15    11    12   ar
    16    11    23   ar
    17    12    13   ar
    18    13    14   ar
    19    14    15    1
    20    14    22   ar
    21    15    16   ar
    22    15    20   ar
    23    16    17   ar
    24    17    18   ar
    25    18    19   ar
    26    18    21    1
    27    19    20   ar
    28    22    23   ar
