@<TRIPOS>MOLECULE
29474_ChemDiv_4477-1537
 25 28 0 0 0
SMALL
GASTEIGER
Energy = 0

@<TRIPOS>ATOM
      1 N           0.1210    1.4630    0.0000 N.am    1  LIG1       -0.2372
      2 C          -0.7670    1.8460    0.0000 C.ar    1  LIG1        0.0541
      3 C          -1.1040    2.7460    0.0000 C.ar    1  LIG1       -0.0078
      4 C          -0.4830    3.6540    0.0000 C.3     1  LIG1        0.0323
      5 C           0.4670    3.6960    0.0000 C.3     1  LIG1        0.0323
      6 C           1.1290    2.9460    0.0000 C.ar    1  LIG1       -0.0078
      7 C           0.9830    1.9960    0.0000 C.ar    1  LIG1        0.0541
      8 C           1.7830    1.3210    0.0000 C.ar    1  LIG1        0.0149
      9 C           2.6920    1.7000    0.0000 C.ar    1  LIG1        0.0013
     10 C           2.8420    2.7080    0.0000 C.ar    1  LIG1       -0.0002
     11 C           2.0790    3.3080    0.0000 C.ar    1  LIG1       -0.0030
     12 C          -2.0540    2.9830    0.0000 C.ar    1  LIG1       -0.0030
     13 C          -2.7250    2.2330    0.0000 C.ar    1  LIG1       -0.0002
     14 C          -2.3790    1.3210    0.0000 C.ar    1  LIG1        0.0013
     15 C          -1.4290    1.0830    0.0000 C.ar    1  LIG1        0.0149
     16 C           0.1790    0.4920    0.0000 C.2     1  LIG1        0.2445
     17 C          -0.7080   -0.1420    0.0000 C.3     1  LIG1        0.1498
     18 S          -0.6290   -1.1210    0.0000 S.3     1  LIG1       -0.0768
     19 C          -1.1040   -1.4460    0.0000 C.ar    1  LIG1        0.1596
     20 S          -1.0750   -2.4750    0.0000 S.2     1  LIG1       -0.0435
     21 C          -2.1040   -2.9000    0.0000 C.ar    1  LIG1        0.1120
     22 N          -2.8460   -2.3880    0.0000 N.ar    1  LIG1       -0.1448
     23 N          -1.8380   -0.9710    0.0000 N.ar    1  LIG1       -0.1347
     24 C          -2.1420   -3.6920    0.0000 C.3     1  LIG1        0.0614
     25 O           1.1000    0.1380    0.0000 O.2     1  LIG1       -0.2732
@<TRIPOS>BOND
     1     1     2    1
     2     1     7    1
     3     1    16   am
     4     2     3   ar
     5     2    15   ar
     6     3     4    1
     7     3    12   ar
     8     4     5    1
     9     5     6    1
    10     6     7   ar
    11     6    11   ar
    12     7     8   ar
    13     8     9   ar
    14     9    10   ar
    15    10    11   ar
    16    12    13   ar
    17    13    14   ar
    18    14    15   ar
    19    16    17    1
    20    16    25    2
    21    17    18    1
    22    18    19    1
    23    19    20   ar
    24    19    23   ar
    25    20    21   ar
    26    21    22   ar
    27    21    24    1
    28    22    23   ar
