@<TRIPOS>MOLECULE
29476_ChemDiv_4477-2289
 27 30 0 0 0
SMALL
GASTEIGER
Energy = 0

@<TRIPOS>ATOM
      1 N          -1.1790    1.3330    0.0000 N.am    1  LIG1       -0.2372
      2 C          -1.9790    1.9210    0.0000 C.ar    1  LIG1        0.0541
      3 C          -1.9790    2.9460    0.0000 C.ar    1  LIG1       -0.0078
      4 C          -1.2130    3.5330    0.0000 C.3     1  LIG1        0.0323
      5 C          -0.2540    3.3250    0.0000 C.3     1  LIG1        0.0323
      6 C           0.1710    2.4420    0.0000 C.ar    1  LIG1       -0.0078
      7 C          -0.2000    1.5420    0.0000 C.ar    1  LIG1        0.0541
      8 C           0.3790    0.7500    0.0000 C.ar    1  LIG1        0.0149
      9 C           1.3580    0.8290    0.0000 C.ar    1  LIG1        0.0013
     10 C           1.7830    1.7130    0.0000 C.ar    1  LIG1       -0.0002
     11 C           1.1920    2.5580    0.0000 C.ar    1  LIG1       -0.0030
     12 C          -2.8710    3.4460    0.0000 C.ar    1  LIG1       -0.0030
     13 C          -3.7170    2.9460    0.0000 C.ar    1  LIG1       -0.0002
     14 C          -3.6710    1.9210    0.0000 C.ar    1  LIG1        0.0013
     15 C          -2.8420    1.4210    0.0000 C.ar    1  LIG1        0.0149
     16 C          -1.3630    0.3630    0.0000 C.2     1  LIG1        0.2445
     17 C          -0.6750   -0.3330    0.0000 C.3     1  LIG1        0.1507
     18 S           0.2750   -0.0880    0.0000 S.3     1  LIG1       -0.0657
     19 C           1.0170   -0.8250    0.0000 C.ar    1  LIG1        0.1960
     20 N           1.9920   -0.6130    0.0000 N.ar    1  LIG1       -0.1826
     21 C           2.7000   -1.3130    0.0000 C.ar    1  LIG1        0.2859
     22 C           2.3920   -2.3040    0.0000 C.ar    1  LIG1        0.1250
     23 C           1.4380   -2.5540    0.0000 C.ar    1  LIG1        0.2859
     24 N           0.7500   -1.7880    0.0000 N.ar    1  LIG1       -0.1826
     25 O           1.2170   -3.5290    0.0000 O.3     1  LIG1       -0.2650
     26 O           3.7130   -1.0710    0.0000 O.3     1  LIG1       -0.2650
     27 O          -2.2960   -0.0170    0.0000 O.2     1  LIG1       -0.2732
@<TRIPOS>BOND
     1     1     2    1
     2     1     7    1
     3     1    16   am
     4     2     3   ar
     5     2    15   ar
     6     3     4    1
     7     3    12   ar
     8     4     5    1
     9     5     6    1
    10     6     7   ar
    11     6    11   ar
    12     7     8   ar
    13     8     9   ar
    14     9    10   ar
    15    10    11   ar
    16    12    13   ar
    17    13    14   ar
    18    14    15   ar
    19    16    17    1
    20    16    27    2
    21    17    18    1
    22    18    19    1
    23    19    20   ar
    24    19    24   ar
    25    20    21   ar
    26    21    22   ar
    27    21    26    1
    28    22    23   ar
    29    23    24   ar
    30    23    25    1
