@<TRIPOS>MOLECULE
29484_ChemDiv_5371-4784
 26 29 0 0 0
SMALL
GASTEIGER
Energy = 0

@<TRIPOS>ATOM
      1 N           1.3000   -1.0040    0.0000 N.am    1  LIG1       -0.2357
      2 C           1.3000    0.0080    0.0000 C.ar    1  LIG1        0.0641
      3 C           2.1710    0.4960    0.0000 C.ar    1  LIG1        0.0435
      4 S           3.0330    0.0080    0.0000 S.3     1  LIG1       -0.0844
      5 C           3.0330   -1.0170    0.0000 C.ar    1  LIG1        0.0435
      6 C           2.1630   -1.5040    0.0000 C.ar    1  LIG1        0.0641
      7 C           2.1460   -2.4920    0.0000 C.ar    1  LIG1        0.0157
      8 C           3.0210   -3.0040    0.0000 C.ar    1  LIG1        0.0013
      9 C           3.8830   -2.5080    0.0000 C.ar    1  LIG1        0.0006
     10 C           3.8830   -1.5040    0.0000 C.ar    1  LIG1        0.0077
     11 C           2.1630    1.5080    0.0000 C.ar    1  LIG1        0.0077
     12 C           1.2830    2.0080    0.0000 C.ar    1  LIG1        0.0006
     13 C           0.4290    1.4830    0.0000 C.ar    1  LIG1        0.0013
     14 C           0.4330    0.4960    0.0000 C.ar    1  LIG1        0.0157
     15 C           0.4290   -1.5040    0.0000 C.2     1  LIG1        0.2446
     16 C          -0.4330   -0.9920    0.0000 C.3     1  LIG1        0.1507
     17 S          -0.4210    0.0080    0.0000 S.3     1  LIG1       -0.0658
     18 C          -1.3080    0.4960    0.0000 C.ar    1  LIG1        0.1929
     19 N          -1.2920    1.5080    0.0000 N.ar    1  LIG1       -0.2028
     20 C          -2.1540    2.0080    0.0000 C.ar    1  LIG1        0.1747
     21 C          -3.0210    1.5210    0.0000 C.ar    1  LIG1        0.0753
     22 C          -3.0250    0.5130    0.0000 C.ar    1  LIG1        0.1747
     23 N          -2.1710    0.0130    0.0000 N.ar    1  LIG1       -0.2028
     24 N          -3.8880    0.0130    0.0000 N.pl3   1  LIG1       -0.1070
     25 N          -2.1420    3.0080    0.0000 N.pl3   1  LIG1       -0.1070
     26 O           0.4290   -2.4920    0.0000 O.2     1  LIG1       -0.2732
@<TRIPOS>BOND
     1     1     2    1
     2     1     6    1
     3     1    15   am
     4     2     3   ar
     5     2    14   ar
     6     3     4    1
     7     3    11   ar
     8     4     5    1
     9     5     6   ar
    10     5    10   ar
    11     6     7   ar
    12     7     8   ar
    13     8     9   ar
    14     9    10   ar
    15    11    12   ar
    16    12    13   ar
    17    13    14   ar
    18    15    16    1
    19    15    26    2
    20    16    17    1
    21    17    18    1
    22    18    19   ar
    23    18    23   ar
    24    19    20   ar
    25    20    21   ar
    26    20    25    1
    27    21    22   ar
    28    22    23   ar
    29    22    24    1
