@<TRIPOS>MOLECULE
29481_ChemDiv_8017-4968
 27 30 0 0 0
SMALL
GASTEIGER
Energy = 0

@<TRIPOS>ATOM
      1 S           1.7290    0.1330    0.0000 S.O2    1  LIG1        0.0765
      2 N           2.6790    0.4380    0.0000 N.pl3   1  LIG1       -0.1923
      3 C           3.4960   -0.1500    0.0000 C.3     1  LIG1        0.1005
      4 C           4.3040    0.4380    0.0000 C.3     1  LIG1        0.0492
      5 C           3.9960    1.3880    0.0000 C.ar    1  LIG1       -0.0056
      6 C           2.9920    1.3880    0.0000 C.ar    1  LIG1        0.0648
      7 C           2.4920    2.2580    0.0000 C.ar    1  LIG1        0.0158
      8 C           2.9920    3.1210    0.0000 C.ar    1  LIG1        0.0013
      9 C           3.9960    3.1210    0.0000 C.ar    1  LIG1       -0.0002
     10 C           4.4960    2.2580    0.0000 C.ar    1  LIG1       -0.0029
     11 C           3.4960   -1.1500    0.0000 C.3     1  LIG1        0.0237
     12 C           0.7790   -0.1790    0.0000 C.ar    1  LIG1        0.1256
     13 C           0.5750   -1.1540    0.0000 C.ar    1  LIG1        0.0218
     14 C          -0.3830   -1.4670    0.0000 C.ar    1  LIG1        0.0353
     15 C          -1.1210   -0.8000    0.0000 C.ar    1  LIG1        0.1385
     16 C          -0.9130    0.1830    0.0000 C.ar    1  LIG1        0.0383
     17 C           0.0380    0.4880    0.0000 C.ar    1  LIG1        0.0233
     18 O          -2.0710   -1.1040    0.0000 O.3     1  LIG1       -0.4755
     19 C          -2.8080   -0.4420    0.0000 C.3     1  LIG1        0.2054
     20 C          -3.7630   -0.7420    0.0000 C.3     1  LIG1        0.0473
     21 C          -4.5000   -0.0790    0.0000 C.3     1  LIG1        0.0040
     22 C          -0.5830   -2.4420    0.0000 C.ar    1  LIG1        0.0031
     23 C           0.1630   -3.1170    0.0000 C.ar    1  LIG1        0.0001
     24 C           1.1170   -2.8000    0.0000 C.ar    1  LIG1        0.0000
     25 C           1.3170   -1.8170    0.0000 C.ar    1  LIG1        0.0014
     26 O           1.4170    1.0830    0.0000 O.2     1  LIG1       -0.1497
     27 O           2.0420   -0.8170    0.0000 O.2     1  LIG1       -0.1497
@<TRIPOS>BOND
     1     1     2    1
     2     1    12    1
     3     1    26    2
     4     1    27    2
     5     2     3    1
     6     2     6    1
     7     3     4    1
     8     3    11    1
     9     4     5    1
    10     5     6   ar
    11     5    10   ar
    12     6     7   ar
    13     7     8   ar
    14     8     9   ar
    15     9    10   ar
    16    12    13   ar
    17    12    17   ar
    18    13    14   ar
    19    13    25   ar
    20    14    15   ar
    21    14    22   ar
    22    15    16   ar
    23    15    18    1
    24    16    17   ar
    25    18    19    1
    26    19    20    1
    27    20    21    1
    28    22    23   ar
    29    23    24   ar
    30    24    25   ar
