@<TRIPOS>MOLECULE
29487_ChemDiv_D256-0538
 32 36 0 0 0
SMALL
GASTEIGER
Energy = 0

@<TRIPOS>ATOM
      1 S          -4.1130    0.0380    0.0000 S.O2    1  LIG1        0.0766
      2 N          -3.8080    0.9960    0.0000 N.pl3   1  LIG1       -0.1906
      3 C          -2.8580    1.3040    0.0000 C.ar    1  LIG1        0.0649
      4 C          -2.8580    2.3080    0.0000 C.ar    1  LIG1       -0.0054
      5 C          -1.9920    2.8210    0.0000 C.ar    1  LIG1        0.0016
      6 C          -1.1170    2.3170    0.0000 C.ar    1  LIG1        0.0548
      7 C          -0.2500    2.8210    0.0000 C.2     1  LIG1        0.2651
      8 N           0.6210    2.3210    0.0000 N.am    1  LIG1       -0.1968
      9 C           1.4880    2.8210    0.0000 C.3     1  LIG1        0.1419
     10 C           2.3500    2.3330    0.0000 C.ar    1  LIG1        0.0027
     11 C           3.2040    2.8330    0.0000 C.ar    1  LIG1        0.0376
     12 C           4.0670    2.3380    0.0000 C.ar    1  LIG1        0.1762
     13 C           4.0710    1.3460    0.0000 C.ar    1  LIG1        0.1764
     14 O           5.0250    1.0420    0.0000 O.3     1  LIG1       -0.4346
     15 C           5.6040    1.8500    0.0000 C.3     1  LIG1        0.4294
     16 O           5.0130    2.6500    0.0000 O.3     1  LIG1       -0.4346
     17 C           3.2170    0.8420    0.0000 C.ar    1  LIG1        0.0399
     18 C           2.3500    1.3290    0.0000 C.ar    1  LIG1        0.0008
     19 O          -0.2580    3.8210    0.0000 O.2     1  LIG1       -0.2684
     20 C          -1.1170    1.3040    0.0000 C.ar    1  LIG1        0.0059
     21 C          -1.9920    0.8040    0.0000 C.ar    1  LIG1        0.0160
     22 C          -3.8170    2.6130    0.0000 C.3     1  LIG1        0.0510
     23 C          -4.4000    1.8000    0.0000 C.3     1  LIG1        0.1205
     24 C          -4.3790   -0.9290    0.0000 C.ar    1  LIG1        0.1255
     25 C          -3.6790   -1.6290    0.0000 C.ar    1  LIG1        0.0211
     26 C          -3.9380   -2.5920    0.0000 C.ar    1  LIG1        0.0128
     27 C          -4.9130   -2.8500    0.0000 C.ar    1  LIG1        0.0578
     28 C          -5.6080   -2.1380    0.0000 C.ar    1  LIG1        0.0128
     29 C          -5.3420   -1.1790    0.0000 C.ar    1  LIG1        0.0211
     30 CL         -5.1750   -3.8170    0.0000 Cl      1  LIG1       -0.0822
     31 O          -5.0790    0.3250    0.0000 O.2     1  LIG1       -0.1497
     32 O          -3.1540   -0.2500    0.0000 O.2     1  LIG1       -0.1497
@<TRIPOS>BOND
     1     1     2    1
     2     1    24    1
     3     1    31    2
     4     1    32    2
     5     2     3    1
     6     2    23    1
     7     3     4   ar
     8     3    21   ar
     9     4     5   ar
    10     4    22    1
    11     5     6   ar
    12     6     7    1
    13     6    20   ar
    14     7     8   am
    15     7    19    2
    16     8     9    1
    17     9    10    1
    18    10    11   ar
    19    10    18   ar
    20    11    12   ar
    21    12    13   ar
    22    12    16    1
    23    13    14    1
    24    13    17   ar
    25    14    15    1
    26    15    16    1
    27    17    18   ar
    28    20    21   ar
    29    22    23    1
    30    24    25   ar
    31    24    29   ar
    32    25    26   ar
    33    26    27   ar
    34    27    28   ar
    35    27    30    1
    36    28    29   ar
