@<TRIPOS>MOLECULE
29483_ChemDiv_D256-0220
 34 38 0 0 0
SMALL
GASTEIGER
Energy = 0

@<TRIPOS>ATOM
      1 S          -3.7380   -2.2250    0.0000 S.O2    1  LIG1        0.0766
      2 N          -3.4330   -1.2670    0.0000 N.pl3   1  LIG1       -0.1906
      3 C          -2.4880   -0.9580    0.0000 C.ar    1  LIG1        0.0649
      4 C          -2.4880    0.0460    0.0000 C.ar    1  LIG1       -0.0054
      5 C          -1.6210    0.5540    0.0000 C.ar    1  LIG1        0.0016
      6 C          -0.7460    0.0540    0.0000 C.ar    1  LIG1        0.0552
      7 C           0.1210    0.5540    0.0000 C.2     1  LIG1        0.2690
      8 N           0.9920    0.0580    0.0000 N.am    1  LIG1       -0.1754
      9 C           1.8420    0.5750    0.0000 C.ar    1  LIG1        0.0739
     10 C           2.7250    0.0920    0.0000 C.ar    1  LIG1        0.0197
     11 C           3.5750    0.6080    0.0000 C.ar    1  LIG1        0.0388
     12 C           3.5540    1.6040    0.0000 C.ar    1  LIG1        0.1454
     13 O           4.4080    2.1210    0.0000 O.3     1  LIG1       -0.4535
     14 C           4.3790    3.1130    0.0000 C.ar    1  LIG1        0.1453
     15 C           5.2290    3.6420    0.0000 C.ar    1  LIG1        0.0375
     16 C           5.2170    4.6290    0.0000 C.ar    1  LIG1        0.0031
     17 C           4.3330    5.1080    0.0000 C.ar    1  LIG1        0.0002
     18 C           3.4830    4.5920    0.0000 C.ar    1  LIG1        0.0031
     19 C           3.5130    3.5960    0.0000 C.ar    1  LIG1        0.0375
     20 C           2.6750    2.0920    0.0000 C.ar    1  LIG1        0.0388
     21 C           1.8290    1.5750    0.0000 C.ar    1  LIG1        0.0197
     22 O           0.1130    1.5580    0.0000 O.2     1  LIG1       -0.2680
     23 C          -0.7460   -0.9580    0.0000 C.ar    1  LIG1        0.0059
     24 C          -1.6210   -1.4580    0.0000 C.ar    1  LIG1        0.0160
     25 C          -3.4420    0.3500    0.0000 C.3     1  LIG1        0.0510
     26 C          -4.0250   -0.4630    0.0000 C.3     1  LIG1        0.1205
     27 O          -2.7790   -2.5130    0.0000 O.2     1  LIG1       -0.1497
     28 O          -4.7040   -1.9330    0.0000 O.2     1  LIG1       -0.1497
     29 C          -4.0040   -3.1920    0.0000 C.ar    1  LIG1        0.1254
     30 C          -3.3040   -3.8880    0.0000 C.ar    1  LIG1        0.0202
     31 C          -3.5630   -4.8500    0.0000 C.ar    1  LIG1        0.0014
     32 C          -4.5380   -5.1080    0.0000 C.ar    1  LIG1        0.0001
     33 C          -5.2330   -4.3960    0.0000 C.ar    1  LIG1        0.0014
     34 C          -4.9670   -3.4380    0.0000 C.ar    1  LIG1        0.0202
@<TRIPOS>BOND
     1     1     2    1
     2     1    27    2
     3     1    28    2
     4     1    29    1
     5     2     3    1
     6     2    26    1
     7     3     4   ar
     8     3    24   ar
     9     4     5   ar
    10     4    25    1
    11     5     6   ar
    12     6     7    1
    13     6    23   ar
    14     7     8   am
    15     7    22    2
    16     8     9    1
    17     9    10   ar
    18     9    21   ar
    19    10    11   ar
    20    11    12   ar
    21    12    13    1
    22    12    20   ar
    23    13    14    1
    24    14    15   ar
    25    14    19   ar
    26    15    16   ar
    27    16    17   ar
    28    17    18   ar
    29    18    19   ar
    30    20    21   ar
    31    23    24   ar
    32    25    26    1
    33    29    30   ar
    34    29    34   ar
    35    30    31   ar
    36    31    32   ar
    37    32    33   ar
    38    33    34   ar
