@<TRIPOS>MOLECULE
29480_ChemDiv_6456-0393
 28 31 0 0 0
SMALL
GASTEIGER
Energy = 0

@<TRIPOS>ATOM
      1 N          -0.2500    1.7000    0.0000 N.am    1  LIG1       -0.2372
      2 C          -0.9880    2.3130    0.0000 C.ar    1  LIG1        0.0541
      3 C          -0.9880    3.3250    0.0000 C.ar    1  LIG1       -0.0078
      4 C          -0.2500    3.9460    0.0000 C.3     1  LIG1        0.0323
      5 C           0.7670    3.7250    0.0000 C.3     1  LIG1        0.0323
      6 C           1.2040    2.8500    0.0000 C.ar    1  LIG1       -0.0078
      7 C           0.7670    1.9210    0.0000 C.ar    1  LIG1        0.0541
      8 C           1.2830    1.0960    0.0000 C.ar    1  LIG1        0.0149
      9 C           2.2540    1.1330    0.0000 C.ar    1  LIG1        0.0013
     10 C           2.7380    2.0540    0.0000 C.ar    1  LIG1       -0.0002
     11 C           2.1960    2.9040    0.0000 C.ar    1  LIG1       -0.0030
     12 C          -1.8630    3.8630    0.0000 C.ar    1  LIG1       -0.0030
     13 C          -2.7420    3.3710    0.0000 C.ar    1  LIG1       -0.0002
     14 C          -2.7420    2.3130    0.0000 C.ar    1  LIG1        0.0013
     15 C          -1.8630    1.8380    0.0000 C.ar    1  LIG1        0.0149
     16 C          -0.4290    0.6960    0.0000 C.2     1  LIG1        0.2445
     17 C           0.3630    0.0380    0.0000 C.3     1  LIG1        0.1492
     18 S           0.1920   -0.9750    0.0000 S.3     1  LIG1       -0.0851
     19 C           0.9380   -1.5880    0.0000 C.ar    1  LIG1        0.1082
     20 C           0.7670   -2.5920    0.0000 C.ar    1  LIG1        0.0375
     21 C          -0.1580   -2.9540    0.0000 C.2     1  LIG1        0.0748
     22 O          -0.2960   -3.9420    0.0000 O.co2   1  LIG1       -0.5445
     23 O          -0.9790   -2.3710    0.0000 O.co2   1  LIG1       -0.5445
     24 C           1.5420   -3.2000    0.0000 C.ar    1  LIG1        0.0047
     25 C           2.4170   -2.8460    0.0000 C.ar    1  LIG1        0.0208
     26 C           2.6000   -1.8880    0.0000 C.ar    1  LIG1        0.0994
     27 N           1.8580   -1.2290    0.0000 N.ar    1  LIG1       -0.2376
     28 O          -1.3460    0.3880    0.0000 O.2     1  LIG1       -0.2732
@<TRIPOS>BOND
     1     1     2    1
     2     1     7    1
     3     1    16   am
     4     2     3   ar
     5     2    15   ar
     6     3     4    1
     7     3    12   ar
     8     4     5    1
     9     5     6    1
    10     6     7   ar
    11     6    11   ar
    12     7     8   ar
    13     8     9   ar
    14     9    10   ar
    15    10    11   ar
    16    12    13   ar
    17    13    14   ar
    18    14    15   ar
    19    16    17    1
    20    16    28    2
    21    17    18    1
    22    18    19    1
    23    19    20   ar
    24    19    27   ar
    25    20    21    1
    26    20    24   ar
    27    21    22   ar
    28    21    23   ar
    29    24    25   ar
    30    25    26   ar
    31    26    27   ar
