@<TRIPOS>MOLECULE
29482_ChemDiv_3390-0329
 26 29 0 0 0
SMALL
GASTEIGER
Energy = 0

@<TRIPOS>ATOM
      1 N           0.0500    1.7630    0.0000 N.am    1  LIG1       -0.2357
      2 C          -0.8040    2.2540    0.0000 C.ar    1  LIG1        0.0641
      3 C          -0.8420    3.2380    0.0000 C.ar    1  LIG1        0.0435
      4 S           0.0040    3.7290    0.0000 S.3     1  LIG1       -0.0844
      5 C           0.8380    3.2380    0.0000 C.ar    1  LIG1        0.0435
      6 C           0.8920    2.2540    0.0000 C.ar    1  LIG1        0.0641
      7 C           1.7250    1.7630    0.0000 C.ar    1  LIG1        0.0157
      8 C           2.5790    2.2540    0.0000 C.ar    1  LIG1        0.0013
      9 C           2.5330    3.2380    0.0000 C.ar    1  LIG1        0.0006
     10 C           1.6880    3.7290    0.0000 C.ar    1  LIG1        0.0077
     11 C          -1.7290    3.6830    0.0000 C.ar    1  LIG1        0.0077
     12 C          -2.5830    3.1460    0.0000 C.ar    1  LIG1        0.0006
     13 C          -2.5380    2.1710    0.0000 C.ar    1  LIG1        0.0013
     14 C          -1.6460    1.7250    0.0000 C.ar    1  LIG1        0.0157
     15 C           0.0500    0.7540    0.0000 C.2     1  LIG1        0.2446
     16 C          -1.0000    0.3920    0.0000 C.3     1  LIG1        0.1507
     17 S          -1.0000   -0.8790    0.0000 S.3     1  LIG1       -0.0657
     18 C          -0.1630   -1.3630    0.0000 C.ar    1  LIG1        0.1960
     19 N           0.6040   -0.8790    0.0000 N.ar    1  LIG1       -0.1826
     20 C           1.5040   -1.2750    0.0000 C.ar    1  LIG1        0.2859
     21 C           1.6420   -2.1960    0.0000 C.ar    1  LIG1        0.1250
     22 C           0.8290   -2.7710    0.0000 C.ar    1  LIG1        0.2859
     23 N          -0.0920   -2.3630    0.0000 N.ar    1  LIG1       -0.1826
     24 O           1.0040   -3.7250    0.0000 O.3     1  LIG1       -0.2650
     25 O           2.3580   -0.5250    0.0000 O.3     1  LIG1       -0.2650
     26 O           0.8920    0.2540    0.0000 O.2     1  LIG1       -0.2732
@<TRIPOS>BOND
     1     1     2    1
     2     1     6    1
     3     1    15   am
     4     2     3   ar
     5     2    14   ar
     6     3     4    1
     7     3    11   ar
     8     4     5    1
     9     5     6   ar
    10     5    10   ar
    11     6     7   ar
    12     7     8   ar
    13     8     9   ar
    14     9    10   ar
    15    11    12   ar
    16    12    13   ar
    17    13    14   ar
    18    15    16    1
    19    15    26    2
    20    16    17    1
    21    17    18    1
    22    18    19   ar
    23    18    23   ar
    24    19    20   ar
    25    20    21   ar
    26    20    25    1
    27    21    22   ar
    28    22    23   ar
    29    22    24    1
