@<TRIPOS>MOLECULE
29492_ChemDiv_K751-0051
 17 18 0 0 0
SMALL
GASTEIGER
Energy = 0

@<TRIPOS>ATOM
      1 N          -1.4790    0.0000    0.0000 N.ar    1  LIG1       -0.1705
      2 C          -1.4790    1.0040    0.0000 C.ar    1  LIG1        0.1991
      3 S          -0.5290    1.3080    0.0000 S.2     1  LIG1       -0.0316
      4 C           0.0630    0.5040    0.0000 C.ar    1  LIG1        0.1223
      5 N          -0.5290   -0.3000    0.0000 N.ar    1  LIG1       -0.1579
      6 C           1.0630    0.5040    0.0000 C.3     1  LIG1        0.1637
      7 C           1.5670   -0.3630    0.0000 C.2     1  LIG1        0.3237
      8 O           1.0630   -1.2290    0.0000 O.2     1  LIG1       -0.2496
      9 O           2.5670   -0.3630    0.0000 O.3     1  LIG1       -0.4482
     10 C           3.0670   -1.2290    0.0000 C.3     1  LIG1        0.2086
     11 C           4.0710   -1.2290    0.0000 C.3     1  LIG1        0.0513
     12 N          -2.3420    1.5040    0.0000 N.ar    1  LIG1       -0.2250
     13 C          -3.2040    1.0040    0.0000 C.ar    1  LIG1        0.0663
     14 C          -3.2040    0.0000    0.0000 C.ar    1  LIG1        0.0773
     15 C          -2.3420   -0.5000    0.0000 C.ar    1  LIG1        0.2833
     16 O          -2.3380   -1.5000    0.0000 O.2     1  LIG1       -0.2650
     17 C          -4.0750    1.5040    0.0000 C.3     1  LIG1        0.0523
@<TRIPOS>BOND
     1     1     2   ar
     2     1     5   ar
     3     1    15   ar
     4     2     3   ar
     5     2    12   ar
     6     3     4   ar
     7     4     5   ar
     8     4     6    1
     9     6     7    1
    10     7     8    2
    11     7     9    1
    12     9    10    1
    13    10    11    1
    14    12    13   ar
    15    13    14   ar
    16    13    17    1
    17    14    15   ar
    18    15    16    2
