@<TRIPOS>MOLECULE
29490_ChemDiv_G265-0327
 30 35 0 0 0
SMALL
GASTEIGER
Energy = 0

@<TRIPOS>ATOM
      1 N          -2.2040   -1.0080    0.0000 N.ar    1  LIG1       -0.1705
      2 C          -1.9000   -0.0920    0.0000 C.ar    1  LIG1        0.1992
      3 S          -2.6710    0.4710    0.0000 S.2     1  LIG1       -0.0321
      4 C          -3.4540   -0.0920    0.0000 C.ar    1  LIG1        0.1106
      5 N          -3.1540   -1.0130    0.0000 N.ar    1  LIG1       -0.1585
      6 C          -4.3580    0.2130    0.0000 C.3     1  LIG1        0.0484
      7 C          -4.5580    1.1460    0.0000 C.3     1  LIG1        0.0069
      8 C          -5.0750   -0.4330    0.0000 C.3     1  LIG1        0.0069
      9 N          -0.9540    0.1080    0.0000 N.ar    1  LIG1       -0.2213
     10 C          -0.3170   -0.6210    0.0000 C.ar    1  LIG1        0.1097
     11 C          -0.6170   -1.5250    0.0000 C.ar    1  LIG1        0.0810
     12 C          -1.5580   -1.7210    0.0000 C.ar    1  LIG1        0.2834
     13 O          -1.8710   -2.6250    0.0000 O.2     1  LIG1       -0.2650
     14 C           0.6210   -0.4250    0.0000 C.3     1  LIG1        0.2541
     15 O           1.2830   -1.1630    0.0000 O.3     1  LIG1       -0.4418
     16 C           2.2500   -0.9500    0.0000 C.2     1  LIG1        0.3162
     17 C           2.5630   -0.0130    0.0000 C.3     1  LIG1        0.0887
     18 C           2.6580    0.9210    0.0000 C.3     1  LIG1        0.0066
     19 C           3.2540    1.6210    0.0000 C.3     1  LIG1       -0.0191
     20 C           2.7460    2.6290    0.0000 C.3     1  LIG1       -0.0079
     21 C           2.6710    1.6290    0.0000 C.3     1  LIG1       -0.0191
     22 C           2.0080    0.9040    0.0000 C.3     1  LIG1        0.0066
     23 C           3.6330    1.2830    0.0000 C.3     1  LIG1       -0.0079
     24 C           4.1500    0.3670    0.0000 C.3     1  LIG1       -0.0191
     25 C           3.4880   -0.3580    0.0000 C.3     1  LIG1        0.0066
     26 C           4.1670    1.2960    0.0000 C.3     1  LIG1       -0.0079
     27 O           2.9290   -1.6920    0.0000 O.2     1  LIG1       -0.2501
     28 H           3.9080    2.3580    0.0000 H       1  LIG1        0.0318
     29 H           1.7500    2.0210    0.0000 H       1  LIG1        0.0318
     30 H           5.0710    0.0040    0.0000 H       1  LIG1        0.0318
@<TRIPOS>BOND
     1     1     2   ar
     2     1     5   ar
     3     1    12   ar
     4     2     3   ar
     5     2     9   ar
     6     3     4   ar
     7     4     5   ar
     8     4     6    1
     9     6     7    1
    10     6     8    1
    11     7     8    1
    12     9    10   ar
    13    10    11   ar
    14    10    14    1
    15    11    12   ar
    16    12    13    2
    17    14    15    1
    18    15    16    1
    19    16    17    1
    20    16    27    2
    21    17    18    1
    22    17    22    1
    23    17    25    1
    24    18    19    1
    25    19    20    1
    26    19    26    1
    27    19    28    1
    28    21    20    1
    29    21    22    1
    30    21    23    1
    31    21    29    1
    32    23    24    1
    33    24    25    1
    34    24    26    1
    35    24    30    1
