@<TRIPOS>MOLECULE
29508_ChemDiv_5591-2077
 29 32 0 0 0
SMALL
GASTEIGER
Energy = 0

@<TRIPOS>ATOM
      1 C           0.4830   -0.9670    0.0000 C.ar    1  LIG1        0.1129
      2 C           1.0420   -1.8250    0.0000 C.ar    1  LIG1        0.1515
      3 O           0.4830   -2.6040    0.0000 O.2     1  LIG1       -0.4533
      4 C          -0.4420   -2.3040    0.0000 C.ar    1  LIG1        0.1454
      5 C          -0.4420   -1.3080    0.0000 C.ar    1  LIG1        0.0420
      6 C          -1.2830   -0.7830    0.0000 C.ar    1  LIG1       -0.0205
      7 C          -2.1790   -1.2670    0.0000 C.ar    1  LIG1       -0.1121
      8 N          -3.0380   -0.7500    0.0000 N.pl3   1  LIG1       -0.5353
      9 S          -2.9920    0.2630    0.0000 S.O2    1  LIG1       -0.0520
     10 C          -2.9750    1.2330    0.0000 C.ar    1  LIG1        0.1187
     11 S          -2.1580    1.7750    0.0000 S.2     1  LIG1       -0.0697
     12 C          -2.3960    2.7420    0.0000 C.ar    1  LIG1        0.0367
     13 C          -3.3630    2.7960    0.0000 C.ar    1  LIG1        0.0088
     14 C          -3.7540    1.8670    0.0000 C.ar    1  LIG1        0.0241
     15 O          -1.9960    0.2130    0.0000 O.2     1  LIG1       -0.1837
     16 O          -4.0130    0.2630    0.0000 O.2     1  LIG1       -0.1837
     17 C          -2.1790   -2.3040    0.0000 C.ar    1  LIG1       -0.0207
     18 C          -1.2830   -2.7920    0.0000 C.ar    1  LIG1        0.0356
     19 C           2.0130   -1.6380    0.0000 C.ar    1  LIG1        0.0348
     20 C           2.3380   -0.6670    0.0000 C.ar    1  LIG1        0.0030
     21 C           3.3500   -0.4790    0.0000 C.ar    1  LIG1        0.0001
     22 C           4.0080   -1.2670    0.0000 C.ar    1  LIG1        0.0000
     23 C           3.6380   -2.1960    0.0000 C.ar    1  LIG1        0.0001
     24 C           2.6790   -2.3790    0.0000 C.ar    1  LIG1        0.0030
     25 C           0.8540   -0.0080    0.0000 C.2     1  LIG1        0.3443
     26 O           1.8290    0.1750    0.0000 O.2     1  LIG1       -0.2448
     27 O           0.2000    0.7710    0.0000 O.3     1  LIG1       -0.4454
     28 C           0.5290    1.6960    0.0000 C.3     1  LIG1        0.2089
     29 C          -0.1420    2.4380    0.0000 C.3     1  LIG1        0.0513
@<TRIPOS>BOND
     1     1     2   ar
     2     1     5   ar
     3     1    25    1
     4     2     3   ar
     5     2    19    1
     6     3     4   ar
     7     4     5   ar
     8     4    18   ar
     9     5     6   ar
    10     6     7   ar
    11     7     8    1
    12     7    17   ar
    13     8     9    1
    14     9    10    1
    15     9    15    2
    16     9    16    2
    17    10    11   ar
    18    10    14   ar
    19    11    12   ar
    20    12    13   ar
    21    13    14   ar
    22    17    18   ar
    23    19    20   ar
    24    19    24   ar
    25    20    21   ar
    26    21    22   ar
    27    22    23   ar
    28    23    24   ar
    29    25    26    2
    30    25    27    1
    31    27    28    1
    32    28    29    1
