@<TRIPOS>MOLECULE
29504_ChemDiv_4477-0289
 32 37 0 0 0
SMALL
GASTEIGER
Energy = 0

@<TRIPOS>ATOM
      1 C          -0.3080   -0.3790    0.0000 C.3     1  LIG1        0.2105
      2 C           0.3670    0.3750    0.0000 C.3     1  LIG1        0.1278
      3 C          -0.1420    1.2500    0.0000 C.3     1  LIG1        0.1205
      4 C           0.4710    1.9920    0.0000 C.2     1  LIG1        0.2380
      5 N           1.4210    1.6170    0.0000 N.am    1  LIG1       -0.2080
      6 C           1.3330    0.6170    0.0000 C.2     1  LIG1        0.2384
      7 O           2.0830   -0.0290    0.0000 O.2     1  LIG1       -0.2740
      8 C           2.2750    2.1290    0.0000 C.ar    1  LIG1        0.0606
      9 C           2.2630    3.1130    0.0000 C.ar    1  LIG1        0.0153
     10 C           3.0880    3.6380    0.0000 C.ar    1  LIG1        0.0013
     11 C           3.9630    3.1790    0.0000 C.ar    1  LIG1        0.0001
     12 C           4.0040    2.1630    0.0000 C.ar    1  LIG1        0.0013
     13 C           3.1580    1.6420    0.0000 C.ar    1  LIG1        0.0153
     14 O           0.2080    2.9330    0.0000 O.2     1  LIG1       -0.2740
     15 C          -1.1080    1.0540    0.0000 C.3     1  LIG1        0.1475
     16 O          -1.2210    0.0420    0.0000 O.3     1  LIG1       -0.3410
     17 C          -2.0790    1.3210    0.0000 C.ar    1  LIG1        0.0051
     18 C          -2.7960    0.6170    0.0000 C.ar    1  LIG1       -0.0019
     19 C          -3.7500    0.8880    0.0000 C.ar    1  LIG1       -0.0002
     20 C          -4.0080    1.8540    0.0000 C.ar    1  LIG1       -0.0000
     21 C          -3.3210    2.5500    0.0000 C.ar    1  LIG1       -0.0002
     22 C          -2.3460    2.2920    0.0000 C.ar    1  LIG1       -0.0019
     23 C          -1.0960   -0.9420    0.0000 C.2     1  LIG1        0.2048
     24 C          -0.7920   -1.8960    0.0000 C.ar    1  LIG1        0.0403
     25 C           0.2250   -1.8960    0.0000 C.ar    1  LIG1        0.0403
     26 C           0.5210   -0.9420    0.0000 C.2     1  LIG1        0.2048
     27 O           1.4920   -0.6130    0.0000 O.2     1  LIG1       -0.2884
     28 C           0.7290   -2.7540    0.0000 C.ar    1  LIG1        0.0030
     29 C           0.2250   -3.6330    0.0000 C.ar    1  LIG1        0.0001
     30 C          -0.7920   -3.6330    0.0000 C.ar    1  LIG1        0.0001
     31 C          -1.2920   -2.7540    0.0000 C.ar    1  LIG1        0.0030
     32 O          -2.0580   -0.6080    0.0000 O.2     1  LIG1       -0.2884
@<TRIPOS>BOND
     1     1     2    1
     2     1    16    1
     3     1    23    1
     4     1    26    1
     5     2     3    1
     6     2     6    1
     7     3     4    1
     8     3    15    1
     9     4     5   am
    10     4    14    2
    11     5     6   am
    12     5     8    1
    13     6     7    2
    14     8     9   ar
    15     8    13   ar
    16     9    10   ar
    17    10    11   ar
    18    11    12   ar
    19    12    13   ar
    20    15    16    1
    21    15    17    1
    22    17    18   ar
    23    17    22   ar
    24    18    19   ar
    25    19    20   ar
    26    20    21   ar
    27    21    22   ar
    28    23    24    1
    29    23    32    2
    30    24    25   ar
    31    24    31   ar
    32    25    26    1
    33    25    28   ar
    34    26    27    2
    35    28    29   ar
    36    29    30   ar
    37    30    31   ar
