@<TRIPOS>MOLECULE
29509_ChemDiv_3396-0037
 27 31 0 0 0
SMALL
GASTEIGER
Energy = 0

@<TRIPOS>ATOM
      1 C           1.3540   -0.4000    0.0000 C.ar    1  LIG1        0.1927
      2 C           1.8250    0.4790    0.0000 C.ar    1  LIG1        0.1912
      3 N           1.3330    1.3250    0.0000 N.ar    1  LIG1        0.0805
      4 N           0.3380    1.3250    0.0000 N.ar    1  LIG1        0.2428
      5 C          -0.1540    0.4790    0.0000 C.ar    1  LIG1        0.4475
      6 N           0.3380   -0.4000    0.0000 N.ar    1  LIG1       -0.1507
      7 S          -1.1670    0.4790    0.0000 S.3     1  LIG1       -0.0052
      8 C          -1.6670    1.3250    0.0000 C.3     1  LIG1        0.1551
      9 C          -2.6750    1.3250    0.0000 C.2     1  LIG1        0.2409
     10 N          -3.1710    0.4500    0.0000 N.am    1  LIG1       -0.2582
     11 C          -2.6750   -0.4210    0.0000 C.ar    1  LIG1        0.0498
     12 C          -3.1710   -1.2920    0.0000 C.ar    1  LIG1       -0.0084
     13 C          -4.1630   -1.2920    0.0000 C.3     1  LIG1        0.0294
     14 C          -4.6630   -0.4210    0.0000 C.3     1  LIG1        0.0266
     15 C          -4.1880    0.4500    0.0000 C.3     1  LIG1        0.0986
     16 C          -2.6540   -2.1710    0.0000 C.ar    1  LIG1       -0.0030
     17 C          -1.6670   -2.1710    0.0000 C.ar    1  LIG1       -0.0002
     18 C          -1.1670   -1.2920    0.0000 C.ar    1  LIG1        0.0013
     19 C          -1.6670   -0.4210    0.0000 C.ar    1  LIG1        0.0146
     20 O          -3.2000    2.1750    0.0000 O.2     1  LIG1       -0.2736
     21 C           2.8130    0.2880    0.0000 C.ar    1  LIG1        0.0444
     22 C           2.9330   -0.6790    0.0000 C.ar    1  LIG1        0.0847
     23 N           2.0420   -1.1290    0.0000 N.ar    1  LIG1       -0.2249
     24 C           3.8540   -1.0830    0.0000 C.ar    1  LIG1        0.0192
     25 C           4.6580   -0.4670    0.0000 C.ar    1  LIG1        0.0015
     26 C           4.5380    0.5000    0.0000 C.ar    1  LIG1        0.0002
     27 C           3.6210    0.8960    0.0000 C.ar    1  LIG1        0.0033
@<TRIPOS>BOND
     1     1     2   ar
     2     1     6   ar
     3     1    23   ar
     4     2     3   ar
     5     2    21   ar
     6     3     4   ar
     7     4     5   ar
     8     5     6   ar
     9     5     7    1
    10     7     8    1
    11     8     9    1
    12     9    10   am
    13     9    20    2
    14    10    11    1
    15    10    15    1
    16    11    12   ar
    17    11    19   ar
    18    12    13    1
    19    12    16   ar
    20    13    14    1
    21    14    15    1
    22    16    17   ar
    23    17    18   ar
    24    18    19   ar
    25    21    22   ar
    26    21    27   ar
    27    22    23   ar
    28    22    24   ar
    29    24    25   ar
    30    25    26   ar
    31    26    27   ar
