@<TRIPOS>MOLECULE
29510_ChemDiv_5591-3257
 35 38 0 0 0
SMALL
GASTEIGER
Energy = 0

@<TRIPOS>ATOM
      1 S          -2.3960    0.1790    0.0000 S.O2    1  LIG1        0.0823
      2 N          -2.5630    1.1790    0.0000 N.am    1  LIG1       -0.1376
      3 C          -1.8040    1.8210    0.0000 C.ar    1  LIG1        0.0767
      4 C          -0.8830    1.4750    0.0000 C.ar    1  LIG1        0.0200
      5 C          -0.1250    2.1330    0.0000 C.ar    1  LIG1        0.0451
      6 C           0.8630    1.9920    0.0000 C.ar    1  LIG1        0.1130
      7 C           1.3080    2.8920    0.0000 C.ar    1  LIG1        0.1515
      8 O           0.5920    3.5880    0.0000 O.2     1  LIG1       -0.4533
      9 C          -0.2960    3.1210    0.0000 C.ar    1  LIG1        0.1456
     10 C          -1.2290    3.4670    0.0000 C.ar    1  LIG1        0.0388
     11 C          -1.9880    2.8250    0.0000 C.ar    1  LIG1        0.0198
     12 C           2.2960    3.0630    0.0000 C.ar    1  LIG1        0.0348
     13 C           2.9380    2.2880    0.0000 C.ar    1  LIG1        0.0030
     14 C           3.9250    2.4630    0.0000 C.ar    1  LIG1        0.0001
     15 C           4.2710    3.4000    0.0000 C.ar    1  LIG1        0.0000
     16 C           3.6250    4.1710    0.0000 C.ar    1  LIG1        0.0001
     17 C           2.6380    4.0000    0.0000 C.ar    1  LIG1        0.0030
     18 C           1.3420    1.1040    0.0000 C.2     1  LIG1        0.3443
     19 O           0.7960    0.2580    0.0000 O.2     1  LIG1       -0.2448
     20 O           2.3380    1.0630    0.0000 O.3     1  LIG1       -0.4454
     21 C           2.8040    0.1790    0.0000 C.3     1  LIG1        0.2089
     22 C           2.2710   -0.6630    0.0000 C.3     1  LIG1        0.0513
     23 C          -3.5040    1.5250    0.0000 C.2     1  LIG1        0.2485
     24 O          -4.2750    0.8710    0.0000 O.2     1  LIG1       -0.2729
     25 C          -3.6830    2.5130    0.0000 C.3     1  LIG1        0.0968
     26 C          -2.2330   -0.8130    0.0000 C.ar    1  LIG1        0.1260
     27 C          -2.9790   -1.4540    0.0000 C.ar    1  LIG1        0.0233
     28 C          -2.8170   -2.4380    0.0000 C.ar    1  LIG1        0.0383
     29 C          -1.9040   -2.7880    0.0000 C.ar    1  LIG1        0.1388
     30 C          -1.1290   -2.1460    0.0000 C.ar    1  LIG1        0.0383
     31 C          -1.3000   -1.1580    0.0000 C.ar    1  LIG1        0.0233
     32 O          -1.7460   -3.7920    0.0000 O.3     1  LIG1       -0.4714
     33 C          -0.8330   -4.1710    0.0000 C.3     1  LIG1        0.2525
     34 O          -3.3670    0.0080    0.0000 O.2     1  LIG1       -0.1493
     35 O          -1.4250    0.3580    0.0000 O.2     1  LIG1       -0.1493
@<TRIPOS>BOND
     1     1     2    1
     2     1    26    1
     3     1    34    2
     4     1    35    2
     5     2     3    1
     6     2    23   am
     7     3     4   ar
     8     3    11   ar
     9     4     5   ar
    10     5     6   ar
    11     5     9   ar
    12     6     7   ar
    13     6    18    1
    14     7     8   ar
    15     7    12    1
    16     8     9   ar
    17     9    10   ar
    18    10    11   ar
    19    12    13   ar
    20    12    17   ar
    21    13    14   ar
    22    14    15   ar
    23    15    16   ar
    24    16    17   ar
    25    18    19    2
    26    18    20    1
    27    20    21    1
    28    21    22    1
    29    23    24    2
    30    23    25    1
    31    26    27   ar
    32    26    31   ar
    33    27    28   ar
    34    28    29   ar
    35    29    30   ar
    36    29    32    1
    37    30    31   ar
    38    32    33    1
