@<TRIPOS>MOLECULE
29514_ChemDiv_8015-0978
 31 34 0 0 0
SMALL
GASTEIGER
Energy = 0

@<TRIPOS>ATOM
      1 S           1.3830   -0.8000    0.0000 S.O2    1  LIG1       -0.0578
      2 N           0.8880   -1.6630    0.0000 N.pl3   1  LIG1       -0.5358
      3 C          -0.1210   -1.6630    0.0000 C.ar    1  LIG1       -0.1123
      4 C          -0.6130   -0.8000    0.0000 C.ar    1  LIG1       -0.0237
      5 C          -1.6130   -0.8000    0.0000 C.ar    1  LIG1        0.0012
      6 C          -2.1170   -1.6630    0.0000 C.ar    1  LIG1        0.0344
      7 C          -3.1170   -1.6630    0.0000 C.ar    1  LIG1        0.1453
      8 O          -3.7080   -2.4710    0.0000 O.2     1  LIG1       -0.4535
      9 C          -4.6500   -2.1630    0.0000 C.ar    1  LIG1        0.1453
     10 C          -4.6500   -1.1630    0.0000 C.ar    1  LIG1        0.0376
     11 C          -3.7080   -0.8540    0.0000 C.ar    1  LIG1        0.0405
     12 C          -5.5170   -0.6630    0.0000 C.ar    1  LIG1        0.0031
     13 C          -6.3750   -1.1630    0.0000 C.ar    1  LIG1        0.0002
     14 C          -6.3750   -2.1630    0.0000 C.ar    1  LIG1        0.0031
     15 C          -5.5170   -2.6670    0.0000 C.ar    1  LIG1        0.0375
     16 C          -1.6130   -2.5250    0.0000 C.ar    1  LIG1        0.0012
     17 C          -0.6130   -2.5250    0.0000 C.ar    1  LIG1       -0.0237
     18 C           1.8830    0.0670    0.0000 C.ar    1  LIG1        0.0893
     19 C           1.3830    0.9330    0.0000 C.ar    1  LIG1        0.0166
     20 C           1.8830    1.8000    0.0000 C.ar    1  LIG1       -0.0029
     21 C           2.8830    1.8000    0.0000 C.ar    1  LIG1       -0.0203
     22 C           3.3830    0.9330    0.0000 C.ar    1  LIG1       -0.0029
     23 C           2.8830    0.0670    0.0000 C.ar    1  LIG1        0.0166
     24 C           3.3830    2.6580    0.0000 C.3     1  LIG1        0.0498
     25 C           4.3960    2.6710    0.0000 C.3     1  LIG1        0.1198
     26 N           4.8710    1.7790    0.0000 N.am    1  LIG1       -0.2051
     27 C           5.8710    1.7790    0.0000 C.2     1  LIG1        0.2419
     28 O           6.3750    0.9130    0.0000 O.2     1  LIG1       -0.2733
     29 C           6.3750    2.6500    0.0000 C.3     1  LIG1        0.0964
     30 O           2.2500   -1.2960    0.0000 O.2     1  LIG1       -0.1842
     31 O           0.5130   -0.2960    0.0000 O.2     1  LIG1       -0.1842
@<TRIPOS>BOND
     1     1     2    1
     2     1    18    1
     3     1    30    2
     4     1    31    2
     5     2     3    1
     6     3     4   ar
     7     3    17   ar
     8     4     5   ar
     9     5     6   ar
    10     6     7    1
    11     6    16   ar
    12     7     8   ar
    13     7    11   ar
    14     8     9   ar
    15     9    10   ar
    16     9    15   ar
    17    10    11   ar
    18    10    12   ar
    19    12    13   ar
    20    13    14   ar
    21    14    15   ar
    22    16    17   ar
    23    18    19   ar
    24    18    23   ar
    25    19    20   ar
    26    20    21   ar
    27    21    22   ar
    28    21    24    1
    29    22    23   ar
    30    24    25    1
    31    25    26    1
    32    26    27   am
    33    27    28    2
    34    27    29    1
