@<TRIPOS>MOLECULE
29511_ChemDiv_3396-0077
 23 26 0 0 0
SMALL
GASTEIGER
Energy = 0

@<TRIPOS>ATOM
      1 N           2.3460   -0.9210    0.0000 N.ar    1  LIG1       -0.2004
      2 C           3.3500   -0.9210    0.0000 C.ar    1  LIG1        0.1866
      3 C           3.8420   -0.0630    0.0000 C.ar    1  LIG1        0.1534
      4 C           3.3500    0.8170    0.0000 C.ar    1  LIG1        0.1923
      5 N           2.3460    0.8170    0.0000 N.ar    1  LIG1       -0.2012
      6 C           1.8580   -0.0630    0.0000 C.ar    1  LIG1        0.1931
      7 S           0.8630   -0.0630    0.0000 S.3     1  LIG1       -0.0674
      8 C           0.3630    0.8170    0.0000 C.3     1  LIG1        0.1310
      9 C          -0.6290    0.8170    0.0000 C.ar    1  LIG1        0.1551
     10 O          -1.3000    0.0710    0.0000 O.2     1  LIG1       -0.4380
     11 C          -2.2000    0.4790    0.0000 C.ar    1  LIG1        0.2293
     12 N          -2.1040    1.4710    0.0000 N.ar    1  LIG1       -0.2069
     13 C          -1.1330    1.6750    0.0000 C.ar    1  LIG1        0.1358
     14 C          -3.1210    0.0500    0.0000 C.ar    1  LIG1        0.0536
     15 C          -3.9420    0.6080    0.0000 C.ar    1  LIG1        0.0046
     16 C          -4.8420    0.1920    0.0000 C.ar    1  LIG1        0.0002
     17 C          -4.9250   -0.8250    0.0000 C.ar    1  LIG1        0.0000
     18 C          -4.0960   -1.3830    0.0000 C.ar    1  LIG1        0.0002
     19 C          -3.1960   -0.9630    0.0000 C.ar    1  LIG1        0.0046
     20 N           3.8670    1.6750    0.0000 N.pl3   1  LIG1       -0.1054
     21 N           4.8250   -0.2710    0.0000 N.ar    1  LIG1       -0.2179
     22 C           4.9210   -1.2710    0.0000 C.ar    1  LIG1        0.2005
     23 N           4.0170   -1.6710    0.0000 N.ar    1  LIG1       -0.2032
@<TRIPOS>BOND
     1     1     2   ar
     2     1     6   ar
     3     2     3   ar
     4     2    23   ar
     5     3     4   ar
     6     3    21   ar
     7     4     5   ar
     8     4    20    1
     9     5     6   ar
    10     6     7    1
    11     7     8    1
    12     8     9    1
    13     9    10   ar
    14     9    13   ar
    15    10    11   ar
    16    11    12   ar
    17    11    14    1
    18    12    13   ar
    19    14    15   ar
    20    14    19   ar
    21    15    16   ar
    22    16    17   ar
    23    17    18   ar
    24    18    19   ar
    25    21    22   ar
    26    22    23   ar
