@<TRIPOS>MOLECULE
29517_ChemDiv_8008-9389
 23 25 0 0 0
SMALL
GASTEIGER
Energy = 0

@<TRIPOS>ATOM
      1 N          -0.4630   -0.0790    0.0000 N.ar    1  LIG1       -0.3253
      2 C          -1.4040    0.2290    0.0000 C.ar    1  LIG1        0.0401
      3 C          -1.4040    1.2290    0.0000 C.ar    1  LIG1        0.0478
      4 C          -0.4630    1.5330    0.0000 C.ar    1  LIG1        0.0211
      5 C           0.1290    0.7380    0.0000 C.ar    1  LIG1        0.0600
      6 C           1.1130    0.6380    0.0000 C.ar    1  LIG1        0.0158
      7 C           1.6830    1.4540    0.0000 C.ar    1  LIG1        0.0019
      8 C           2.6830    1.3710    0.0000 C.ar    1  LIG1        0.0067
      9 C           3.1130    0.4750    0.0000 C.ar    1  LIG1        0.0346
     10 C           2.5420   -0.3460    0.0000 C.ar    1  LIG1        0.0067
     11 C           1.5420   -0.2630    0.0000 C.ar    1  LIG1        0.0019
     12 BR          4.1130    0.3920    0.0000 Br      1  LIG1       -0.0490
     13 C          -2.2580    1.7420    0.0000 C.2     1  LIG1        0.1742
     14 C          -3.1330    1.2500    0.0000 C.3     1  LIG1        0.0695
     15 C          -3.1330    0.2290    0.0000 C.3     1  LIG1        0.0128
     16 C          -2.2580   -0.2630    0.0000 C.3     1  LIG1        0.0443
     17 C          -4.1170    0.3080    0.0000 C.3     1  LIG1        0.0008
     18 C          -3.3790   -0.7330    0.0000 C.3     1  LIG1        0.0008
     19 O          -2.2580    2.7420    0.0000 O.2     1  LIG1       -0.2913
     20 C          -0.1170   -1.0380    0.0000 C.3     1  LIG1        0.1474
     21 C          -0.7920   -1.7960    0.0000 C.2     1  LIG1        0.0732
     22 O          -0.4630   -2.7380    0.0000 O.co2   1  LIG1       -0.5472
     23 O          -1.7710   -1.5880    0.0000 O.co2   1  LIG1       -0.5472
@<TRIPOS>BOND
     1     1     2   ar
     2     1     5   ar
     3     1    20    1
     4     2     3   ar
     5     2    16    1
     6     3     4   ar
     7     3    13    1
     8     4     5   ar
     9     5     6    1
    10     6     7   ar
    11     6    11   ar
    12     7     8   ar
    13     8     9   ar
    14     9    10   ar
    15     9    12    1
    16    10    11   ar
    17    13    14    1
    18    13    19    2
    19    14    15    1
    20    15    16    1
    21    15    17    1
    22    15    18    1
    23    20    21    1
    24    21    22   ar
    25    21    23   ar
