@<TRIPOS>MOLECULE
29515_ChemDiv_8008-5618
 22 24 0 0 0
SMALL
GASTEIGER
Energy = 0

@<TRIPOS>ATOM
      1 N          -0.3920   -0.3920    0.0000 N.ar    1  LIG1       -0.3253
      2 C          -1.0170    0.3750    0.0000 C.ar    1  LIG1        0.0401
      3 C          -0.4920    1.2380    0.0000 C.ar    1  LIG1        0.0478
      4 C           0.5040    0.9670    0.0000 C.ar    1  LIG1        0.0211
      5 C           0.5580   -0.0420    0.0000 C.ar    1  LIG1        0.0600
      6 C           1.3790   -0.5960    0.0000 C.ar    1  LIG1        0.0158
      7 C           2.2670   -0.1540    0.0000 C.ar    1  LIG1        0.0014
      8 C           3.0960   -0.6960    0.0000 C.ar    1  LIG1        0.0000
      9 C           3.0540   -1.6880    0.0000 C.ar    1  LIG1        0.0000
     10 C           2.1580   -2.1330    0.0000 C.ar    1  LIG1        0.0000
     11 C           1.3380   -1.5920    0.0000 C.ar    1  LIG1        0.0014
     12 C          -1.0170    2.1000    0.0000 C.2     1  LIG1        0.1742
     13 C          -2.0080    2.1210    0.0000 C.3     1  LIG1        0.0695
     14 C          -2.5290    1.2380    0.0000 C.3     1  LIG1        0.0128
     15 C          -2.0210    0.3630    0.0000 C.3     1  LIG1        0.0443
     16 C          -3.0420    2.1000    0.0000 C.3     1  LIG1        0.0008
     17 C          -3.1000    0.4290    0.0000 C.3     1  LIG1        0.0008
     18 O          -0.5330    2.9750    0.0000 O.2     1  LIG1       -0.2913
     19 C          -0.6920   -1.3460    0.0000 C.3     1  LIG1        0.1474
     20 C          -0.0170   -2.0750    0.0000 C.2     1  LIG1        0.0732
     21 O           0.9630   -1.8420    0.0000 O.co2   1  LIG1       -0.5472
     22 O          -0.3670   -2.9710    0.0000 O.co2   1  LIG1       -0.5472
@<TRIPOS>BOND
     1     1     2   ar
     2     1     5   ar
     3     1    19    1
     4     2     3   ar
     5     2    15    1
     6     3     4   ar
     7     3    12    1
     8     4     5   ar
     9     5     6    1
    10     6     7   ar
    11     6    11   ar
    12     7     8   ar
    13     8     9   ar
    14     9    10   ar
    15    10    11   ar
    16    12    13    1
    17    12    18    2
    18    13    14    1
    19    14    15    1
    20    14    16    1
    21    14    17    1
    22    19    20    1
    23    20    21   ar
    24    20    22   ar
