@<TRIPOS>MOLECULE
29512_ChemDiv_5591-3317
 34 37 0 0 0
SMALL
GASTEIGER
Energy = 0

@<TRIPOS>ATOM
      1 S          -2.5170   -1.1330    0.0000 S.O2    1  LIG1        0.0823
      2 N          -2.0170   -0.2630    0.0000 N.am    1  LIG1       -0.1376
      3 C          -1.0210   -0.2710    0.0000 C.ar    1  LIG1        0.0767
      4 C          -0.5210    0.6000    0.0000 C.ar    1  LIG1        0.0200
      5 C           0.4830    0.6000    0.0000 C.ar    1  LIG1        0.0451
      6 C           1.1580    1.3420    0.0000 C.ar    1  LIG1        0.1130
      7 C           2.0540    0.9330    0.0000 C.ar    1  LIG1        0.1515
      8 O           1.9580   -0.0500    0.0000 O.2     1  LIG1       -0.4533
      9 C           0.9790   -0.2630    0.0000 C.ar    1  LIG1        0.1456
     10 C           0.4830   -1.1330    0.0000 C.ar    1  LIG1        0.0388
     11 C          -0.5210   -1.1330    0.0000 C.ar    1  LIG1        0.0198
     12 C           2.8250    1.5670    0.0000 C.ar    1  LIG1        0.0348
     13 C           3.7630    1.2040    0.0000 C.ar    1  LIG1        0.0030
     14 C           4.5330    1.8380    0.0000 C.ar    1  LIG1        0.0001
     15 C           4.3790    2.8250    0.0000 C.ar    1  LIG1        0.0000
     16 C           3.4420    3.1830    0.0000 C.ar    1  LIG1        0.0001
     17 C           2.6710    2.5500    0.0000 C.ar    1  LIG1        0.0030
     18 C           0.9670    2.3290    0.0000 C.2     1  LIG1        0.3443
     19 O           0.0290    2.6630    0.0000 O.2     1  LIG1       -0.2448
     20 O           1.7210    2.9750    0.0000 O.3     1  LIG1       -0.4454
     21 C           1.5500    3.9540    0.0000 C.3     1  LIG1        0.2089
     22 C           2.3130    4.6000    0.0000 C.3     1  LIG1        0.0513
     23 C          -2.5170    0.6000    0.0000 C.2     1  LIG1        0.2485
     24 O          -3.5250    0.6000    0.0000 O.2     1  LIG1       -0.2729
     25 C          -2.0170    1.4630    0.0000 C.3     1  LIG1        0.0968
     26 C          -3.0250   -2.0000    0.0000 C.ar    1  LIG1        0.1260
     27 C          -2.5250   -2.8630    0.0000 C.ar    1  LIG1        0.0225
     28 C          -3.0250   -3.7330    0.0000 C.ar    1  LIG1        0.0310
     29 C          -4.0250   -3.7330    0.0000 C.ar    1  LIG1        0.1402
     30 C          -4.5210   -2.8630    0.0000 C.ar    1  LIG1        0.0310
     31 C          -4.0250   -2.0000    0.0000 C.ar    1  LIG1        0.0225
     32 F          -4.5380   -4.6000    0.0000 F       1  LIG1       -0.2042
     33 O          -1.6500   -1.6380    0.0000 O.2     1  LIG1       -0.1493
     34 O          -3.3880   -0.6250    0.0000 O.2     1  LIG1       -0.1493
@<TRIPOS>BOND
     1     1     2    1
     2     1    26    1
     3     1    33    2
     4     1    34    2
     5     2     3    1
     6     2    23   am
     7     3     4   ar
     8     3    11   ar
     9     4     5   ar
    10     5     6   ar
    11     5     9   ar
    12     6     7   ar
    13     6    18    1
    14     7     8   ar
    15     7    12    1
    16     8     9   ar
    17     9    10   ar
    18    10    11   ar
    19    12    13   ar
    20    12    17   ar
    21    13    14   ar
    22    14    15   ar
    23    15    16   ar
    24    16    17   ar
    25    18    19    2
    26    18    20    1
    27    20    21    1
    28    21    22    1
    29    23    24    2
    30    23    25    1
    31    26    27   ar
    32    26    31   ar
    33    27    28   ar
    34    28    29   ar
    35    29    30   ar
    36    29    32    1
    37    30    31   ar
