@<TRIPOS>MOLECULE
29523_ChemDiv_C229-1001
 39 43 0 0 0
SMALL
GASTEIGER
Energy = 0

@<TRIPOS>ATOM
      1 C           1.1500   -1.8580    0.0000 C.3     1  LIG1        0.1487
      2 C           0.1540   -1.8670    0.0000 C.3     1  LIG1        0.1530
      3 C          -0.1670   -0.9210    0.0000 C.2     1  LIG1        0.2416
      4 N           0.6380   -0.3250    0.0000 N.am    1  LIG1       -0.2078
      5 C           1.4500   -0.9040    0.0000 C.2     1  LIG1        0.2414
      6 O           2.4000   -0.5790    0.0000 O.2     1  LIG1       -0.2739
      7 C           0.6210    0.6710    0.0000 C.ar    1  LIG1        0.0608
      8 C           1.4830    1.1790    0.0000 C.ar    1  LIG1        0.0184
      9 C           1.4750    2.1830    0.0000 C.ar    1  LIG1        0.0382
     10 C           0.6000    2.6670    0.0000 C.ar    1  LIG1        0.1386
     11 C          -0.2630    2.1580    0.0000 C.ar    1  LIG1        0.0382
     12 C          -0.2460    1.1630    0.0000 C.ar    1  LIG1        0.0184
     13 O           0.5880    3.6710    0.0000 O.3     1  LIG1       -0.4755
     14 C           1.4420    4.1790    0.0000 C.3     1  LIG1        0.2055
     15 C           1.4290    5.1750    0.0000 C.3     1  LIG1        0.0512
     16 O          -1.1210   -0.6210    0.0000 O.2     1  LIG1       -0.2739
     17 C          -0.1540   -2.8250    0.0000 C.3     1  LIG1        0.1758
     18 N           0.6630   -3.4080    0.0000 N.4     1  LIG1        0.4427
     19 C           1.4750   -2.8170    0.0000 C.3     1  LIG1        0.1426
     20 C           2.3380   -2.3130    0.0000 C.2     1  LIG1        0.1020
     21 O           2.3330   -1.3130    0.0000 O.co2   1  LIG1       -0.5437
     22 O           3.2040   -2.8080    0.0000 O.co2   1  LIG1       -0.5437
     23 C           1.7670   -3.7710    0.0000 C.3     1  LIG1        0.0892
     24 C           2.7380   -3.9960    0.0000 C.ar    1  LIG1       -0.0161
     25 C           3.4170   -3.2670    0.0000 C.ar    1  LIG1       -0.0041
     26 C           4.3960   -3.4920    0.0000 C.ar    1  LIG1       -0.0003
     27 C           4.6880   -4.4420    0.0000 C.ar    1  LIG1       -0.0000
     28 C           4.0080   -5.1750    0.0000 C.ar    1  LIG1       -0.0003
     29 C           3.0290   -4.9540    0.0000 C.ar    1  LIG1       -0.0041
     30 C          -1.1000   -3.1380    0.0000 C.ar    1  LIG1        0.0376
     31 C          -1.8460   -2.4710    0.0000 C.ar    1  LIG1        0.0415
     32 C          -2.7960   -2.7920    0.0000 C.ar    1  LIG1        0.1723
     33 C          -2.9960   -3.7710    0.0000 C.ar    1  LIG1        0.1724
     34 C          -2.2500   -4.4330    0.0000 C.ar    1  LIG1        0.0399
     35 C          -1.3000   -4.1170    0.0000 C.ar    1  LIG1        0.0047
     36 O          -3.9420   -4.0880    0.0000 O.3     1  LIG1       -0.4684
     37 C          -4.6920   -3.4250    0.0000 C.3     1  LIG1        0.2526
     38 O          -3.5420   -2.1330    0.0000 O.3     1  LIG1       -0.4684
     39 C          -3.3460   -1.1500    0.0000 C.3     1  LIG1        0.2526
@<TRIPOS>BOND
     1     1     2    1
     2     1     5    1
     3     1    19    1
     4     2     3    1
     5     2    17    1
     6     3     4   am
     7     3    16    2
     8     4     5   am
     9     4     7    1
    10     5     6    2
    11     7     8   ar
    12     7    12   ar
    13     8     9   ar
    14     9    10   ar
    15    10    11   ar
    16    10    13    1
    17    11    12   ar
    18    13    14    1
    19    14    15    1
    20    17    18    1
    21    17    30    1
    22    18    19    1
    23    19    20    1
    24    19    23    1
    25    20    21   ar
    26    20    22   ar
    27    23    24    1
    28    24    25   ar
    29    24    29   ar
    30    25    26   ar
    31    26    27   ar
    32    27    28   ar
    33    28    29   ar
    34    30    31   ar
    35    30    35   ar
    36    31    32   ar
    37    32    33   ar
    38    32    38    1
    39    33    34   ar
    40    33    36    1
    41    34    35   ar
    42    36    37    1
    43    38    39    1
