@<TRIPOS>MOLECULE
29525_ChemDiv_3448-4834
 31 34 0 0 0
SMALL
GASTEIGER
Energy = 0

@<TRIPOS>ATOM
      1 N           3.6670    0.0380    0.0000 N.am    1  LIG1       -0.2014
      2 C           2.7500    0.4420    0.0000 C.2     1  LIG1        0.2589
      3 C           2.0920   -0.3210    0.0000 C.ar    1  LIG1        0.0588
      4 C           2.5750   -1.1790    0.0000 C.ar    1  LIG1        0.0587
      5 C           3.5670   -0.9540    0.0000 C.2     1  LIG1        0.2589
      6 O           4.3000   -1.6330    0.0000 O.2     1  LIG1       -0.2691
      7 C           2.0920   -2.0380    0.0000 C.ar    1  LIG1        0.0048
      8 C           1.0790   -2.0380    0.0000 C.ar    1  LIG1        0.0047
      9 C           0.5960   -1.1790    0.0000 C.ar    1  LIG1        0.0555
     10 C          -0.4210   -1.1790    0.0000 C.2     1  LIG1        0.2690
     11 N          -0.9250   -0.3210    0.0000 N.am    1  LIG1       -0.1754
     12 C          -1.9080   -0.3210    0.0000 C.ar    1  LIG1        0.0738
     13 C          -2.4130   -1.1790    0.0000 C.ar    1  LIG1        0.0179
     14 C          -3.4000   -1.1790    0.0000 C.ar    1  LIG1        0.0179
     15 C          -3.9080   -0.3210    0.0000 C.ar    1  LIG1        0.0734
     16 N          -4.9000   -0.3210    0.0000 N.am    1  LIG1       -0.1792
     17 C          -5.4080    0.5670    0.0000 C.2     1  LIG1        0.2461
     18 O          -6.4000    0.5670    0.0000 O.2     1  LIG1       -0.2730
     19 C          -4.9000    1.4330    0.0000 C.3     1  LIG1        0.0968
     20 C          -3.4000    0.5670    0.0000 C.ar    1  LIG1        0.0179
     21 C          -2.4130    0.5670    0.0000 C.ar    1  LIG1        0.0179
     22 O          -0.9250   -2.0380    0.0000 O.2     1  LIG1       -0.2680
     23 C           1.0790   -0.3210    0.0000 C.ar    1  LIG1        0.0093
     24 O           2.5750    1.4540    0.0000 O.2     1  LIG1       -0.2691
     25 C           4.5790    0.4420    0.0000 C.ar    1  LIG1        0.0573
     26 C           4.7080    1.4330    0.0000 C.ar    1  LIG1       -0.0077
     27 C           3.8880    2.0420    0.0000 C.3     1  LIG1        0.0323
     28 C           5.6170    1.8330    0.0000 C.ar    1  LIG1       -0.0030
     29 C           6.4000    1.2580    0.0000 C.ar    1  LIG1       -0.0002
     30 C           6.2960    0.2670    0.0000 C.ar    1  LIG1        0.0013
     31 C           5.3880   -0.1330    0.0000 C.ar    1  LIG1        0.0150
@<TRIPOS>BOND
     1     1     2   am
     2     1     5   am
     3     1    25    1
     4     2     3    1
     5     2    24    2
     6     3     4   ar
     7     3    23   ar
     8     4     5    1
     9     4     7   ar
    10     5     6    2
    11     7     8   ar
    12     8     9   ar
    13     9    10    1
    14     9    23   ar
    15    10    11   am
    16    10    22    2
    17    11    12    1
    18    12    13   ar
    19    12    21   ar
    20    13    14   ar
    21    14    15   ar
    22    15    16    1
    23    15    20   ar
    24    16    17   am
    25    17    18    2
    26    17    19    1
    27    20    21   ar
    28    25    26   ar
    29    25    31   ar
    30    26    27    1
    31    26    28   ar
    32    28    29   ar
    33    29    30   ar
    34    30    31   ar
