@<TRIPOS>MOLECULE
29522_ChemDiv_C795-0264
 21 23 0 0 0
SMALL
GASTEIGER
Energy = 0

@<TRIPOS>ATOM
      1 C          -1.4250    1.6540    0.0000 C.ar    1  LIG1        0.0641
      2 C          -0.4880    1.9710    0.0000 C.ar    1  LIG1        0.0227
      3 C           0.1130    1.1710    0.0000 C.ar    1  LIG1        0.1956
      4 O          -0.4710    0.3540    0.0000 O.2     1  LIG1       -0.4534
      5 C          -1.4250    0.6540    0.0000 C.ar    1  LIG1        0.1254
      6 C          -2.2880    0.1580    0.0000 C.3     1  LIG1        0.0651
      7 C          -3.1500    0.6540    0.0000 C.3     1  LIG1        0.0161
      8 C          -3.1500    1.6540    0.0000 C.3     1  LIG1        0.0697
      9 C          -2.2880    2.1540    0.0000 C.2     1  LIG1        0.1755
     10 O          -2.2880    3.1630    0.0000 O.2     1  LIG1       -0.2913
     11 C           1.1130    1.1710    0.0000 C.2     1  LIG1        0.2995
     12 N           1.6250    0.3080    0.0000 N.am    1  LIG1       -0.1942
     13 C           1.1290   -0.5670    0.0000 C.3     1  LIG1        0.1419
     14 C           1.6420   -1.4250    0.0000 C.ar    1  LIG1       -0.0005
     15 C           1.1420   -2.2960    0.0000 C.ar    1  LIG1       -0.0026
     16 C           1.6500   -3.1580    0.0000 C.ar    1  LIG1       -0.0003
     17 C           2.6500   -3.1460    0.0000 C.ar    1  LIG1       -0.0000
     18 C           3.1460   -2.2710    0.0000 C.ar    1  LIG1       -0.0003
     19 C           2.6380   -1.4130    0.0000 C.ar    1  LIG1       -0.0026
     20 O           1.6130    2.0460    0.0000 O.2     1  LIG1       -0.2650
     21 C          -0.1710    2.9210    0.0000 C.3     1  LIG1        0.0346
@<TRIPOS>BOND
     1     1     2   ar
     2     1     5   ar
     3     1     9    1
     4     2     3   ar
     5     2    21    1
     6     3     4   ar
     7     3    11    1
     8     4     5   ar
     9     5     6    1
    10     6     7    1
    11     7     8    1
    12     8     9    1
    13     9    10    2
    14    11    12   am
    15    11    20    2
    16    12    13    1
    17    13    14    1
    18    14    15   ar
    19    14    19   ar
    20    15    16   ar
    21    16    17   ar
    22    17    18   ar
    23    18    19   ar
