@<TRIPOS>MOLECULE
29524_ChemDiv_C795-0281
 24 26 0 0 0
SMALL
GASTEIGER
Energy = 0

@<TRIPOS>ATOM
      1 C           0.1130    2.0290    0.0000 C.ar    1  LIG1        0.1956
      2 C          -0.4790    2.8290    0.0000 C.ar    1  LIG1        0.0227
      3 C          -1.4290    2.5210    0.0000 C.ar    1  LIG1        0.0641
      4 C          -1.4170    1.5250    0.0000 C.ar    1  LIG1        0.1254
      5 O          -0.4750    1.2130    0.0000 O.2     1  LIG1       -0.4534
      6 C          -2.2920    1.0170    0.0000 C.3     1  LIG1        0.0651
      7 C          -3.1500    1.5130    0.0000 C.3     1  LIG1        0.0161
      8 C          -3.1500    2.5210    0.0000 C.3     1  LIG1        0.0697
      9 C          -2.2920    3.0210    0.0000 C.2     1  LIG1        0.1755
     10 O          -2.2920    4.0170    0.0000 O.2     1  LIG1       -0.2913
     11 C          -0.1750    3.7920    0.0000 C.3     1  LIG1        0.0346
     12 C           1.1130    2.0380    0.0000 C.2     1  LIG1        0.2991
     13 N           1.6250    1.1670    0.0000 N.am    1  LIG1       -0.2008
     14 C           1.1250    0.2880    0.0000 C.3     1  LIG1        0.0961
     15 C           1.6420   -0.5630    0.0000 C.3     1  LIG1        0.0263
     16 C           1.1420   -1.4380    0.0000 C.3     1  LIG1        0.0281
     17 C           1.6500   -2.2960    0.0000 C.ar    1  LIG1       -0.0221
     18 C           1.1500   -3.1580    0.0000 C.ar    1  LIG1       -0.0043
     19 C           1.6540   -4.0170    0.0000 C.ar    1  LIG1       -0.0003
     20 C           2.6540   -4.0080    0.0000 C.ar    1  LIG1       -0.0000
     21 C           3.1460   -3.1420    0.0000 C.ar    1  LIG1       -0.0003
     22 C           2.6380   -2.2830    0.0000 C.ar    1  LIG1       -0.0043
     23 C           0.1290    0.2830    0.0000 C.3     1  LIG1        0.0234
     24 O           1.6210    2.9040    0.0000 O.2     1  LIG1       -0.2650
@<TRIPOS>BOND
     1     1     2   ar
     2     1     5   ar
     3     1    12    1
     4     2     3   ar
     5     2    11    1
     6     3     4   ar
     7     3     9    1
     8     4     5   ar
     9     4     6    1
    10     6     7    1
    11     7     8    1
    12     8     9    1
    13     9    10    2
    14    12    13   am
    15    12    24    2
    16    13    14    1
    17    14    15    1
    18    14    23    1
    19    15    16    1
    20    16    17    1
    21    17    18   ar
    22    17    22   ar
    23    18    19   ar
    24    19    20   ar
    25    20    21   ar
    26    21    22   ar
