@<TRIPOS>MOLECULE
29526_ChemDiv_C798-0124
 18 19 0 0 0
SMALL
GASTEIGER
Energy = 0

@<TRIPOS>ATOM
      1 C          -0.9290    0.3630    0.0000 C.ar    1  LIG1        0.0642
      2 C           0.0250    0.6790    0.0000 C.ar    1  LIG1        0.0246
      3 C           0.6130   -0.1380    0.0000 C.ar    1  LIG1        0.2161
      4 O           0.0210   -0.9420    0.0000 O.2     1  LIG1       -0.4514
      5 C          -0.9290   -0.6290    0.0000 C.ar    1  LIG1        0.1255
      6 C          -1.7960   -1.1290    0.0000 C.3     1  LIG1        0.0650
      7 C          -2.6500   -0.6380    0.0000 C.3     1  LIG1        0.0144
      8 C          -2.6500    0.3630    0.0000 C.3     1  LIG1        0.0696
      9 C          -1.7960    0.8750    0.0000 C.2     1  LIG1        0.1755
     10 O          -1.7960    1.8750    0.0000 O.2     1  LIG1       -0.2913
     11 C          -3.6210   -0.3710    0.0000 C.3     1  LIG1        0.0009
     12 C          -2.9170   -1.6000    0.0000 C.3     1  LIG1        0.0009
     13 C           1.6130   -0.1380    0.0000 C.2     1  LIG1        0.3760
     14 O           2.1210    0.7290    0.0000 O.2     1  LIG1       -0.2414
     15 O           2.1170   -1.0080    0.0000 O.3     1  LIG1       -0.4433
     16 C           3.1170   -1.0080    0.0000 C.3     1  LIG1        0.2090
     17 C           3.6170   -1.8710    0.0000 C.3     1  LIG1        0.0513
     18 C           0.3380    1.6250    0.0000 C.3     1  LIG1        0.0346
@<TRIPOS>BOND
     1     1     2   ar
     2     1     5   ar
     3     1     9    1
     4     2     3   ar
     5     2    18    1
     6     3     4   ar
     7     3    13    1
     8     4     5   ar
     9     5     6    1
    10     6     7    1
    11     7     8    1
    12     7    11    1
    13     7    12    1
    14     8     9    1
    15     9    10    2
    16    13    14    2
    17    13    15    1
    18    15    16    1
    19    16    17    1
