@<TRIPOS>MOLECULE
29534_ChemDiv_3454-0946
 23 25 0 0 0
SMALL
GASTEIGER
Energy = 0

@<TRIPOS>ATOM
      1 N           1.7330   -0.8670    0.0000 N.am    1  LIG1       -0.2793
      2 C           2.7290   -0.8670    0.0000 C.2     1  LIG1        0.2301
      3 C           3.2330    0.0000    0.0000 C.3     1  LIG1        0.1116
      4 C           2.7290    0.8670    0.0000 C.ar    1  LIG1       -0.0131
      5 C           3.2330    1.7170    0.0000 C.ar    1  LIG1       -0.0033
      6 C           2.7290    2.5880    0.0000 C.ar    1  LIG1        0.0064
      7 C           1.7330    2.6040    0.0000 C.ar    1  LIG1        0.0345
      8 BR          1.2290    3.4960    0.0000 Br      1  LIG1       -0.0490
      9 C           1.2290    1.7380    0.0000 C.ar    1  LIG1        0.0064
     10 C           1.7330    0.8670    0.0000 C.ar    1  LIG1       -0.0033
     11 O           3.2330   -1.7380    0.0000 O.2     1  LIG1       -0.2745
     12 C           1.2290    0.0000    0.0000 C.3     1  LIG1        0.0934
     13 C           0.2330    0.0210    0.0000 C.3     1  LIG1        0.0219
     14 C          -0.2630   -0.8670    0.0000 C.3     1  LIG1        0.0078
     15 C          -1.2670   -0.8880    0.0000 C.3     1  LIG1        0.0265
     16 C          -1.7580   -1.7540    0.0000 C.ar    1  LIG1       -0.0222
     17 C          -2.7330   -1.7790    0.0000 C.ar    1  LIG1       -0.0043
     18 C          -3.2380   -2.6210    0.0000 C.ar    1  LIG1       -0.0003
     19 C          -2.7330   -3.4920    0.0000 C.ar    1  LIG1       -0.0000
     20 C          -1.7420   -3.4710    0.0000 C.ar    1  LIG1       -0.0003
     21 C          -1.2380   -2.6210    0.0000 C.ar    1  LIG1       -0.0043
     22 C           0.2330   -1.7380    0.0000 C.3     1  LIG1        0.0219
     23 C           1.2290   -1.7380    0.0000 C.3     1  LIG1        0.0934
@<TRIPOS>BOND
     1     1     2   am
     2     1    12    1
     3     1    23    1
     4     2     3    1
     5     2    11    2
     6     3     4    1
     7     4     5   ar
     8     4    10   ar
     9     5     6   ar
    10     6     7   ar
    11     7     8    1
    12     7     9   ar
    13     9    10   ar
    14    12    13    1
    15    13    14    1
    16    14    15    1
    17    14    22    1
    18    15    16    1
    19    16    17   ar
    20    16    21   ar
    21    17    18   ar
    22    18    19   ar
    23    19    20   ar
    24    20    21   ar
    25    22    23    1
