@<TRIPOS>MOLECULE
29532_ChemDiv_3454-0333
 32 36 0 0 0
SMALL
GASTEIGER
Energy = 0

@<TRIPOS>ATOM
      1 N          -1.0330   -0.8130    0.0000 N.ar    1  LIG1       -0.2724
      2 C          -1.0330   -1.6540    0.0000 C.ar    1  LIG1        0.1764
      3 N          -1.7710   -2.0920    0.0000 N.2     1  LIG1       -0.2131
      4 C          -2.5000   -1.6540    0.0000 C.3     1  LIG1        0.2316
      5 C          -2.5000   -0.8130    0.0000 C.3     1  LIG1        0.1825
      6 C          -1.7710   -0.3830    0.0000 C.3     1  LIG1        0.1316
      7 C          -1.7710    0.4580    0.0000 C.ar    1  LIG1        0.0332
      8 C          -2.5000    0.8880    0.0000 C.ar    1  LIG1        0.1383
      9 O          -3.5960    0.3420    0.0000 O.3     1  LIG1       -0.4619
     10 C          -2.5000    1.7380    0.0000 C.ar    1  LIG1        0.0367
     11 C          -1.7710    2.1670    0.0000 C.ar    1  LIG1        0.0031
     12 C          -1.0330    1.7380    0.0000 C.ar    1  LIG1       -0.0001
     13 C          -1.0330    0.8880    0.0000 C.ar    1  LIG1        0.0006
     14 C          -4.2420   -0.3500    0.0000 C.2     1  LIG1        0.3243
     15 O          -4.2420    0.6420    0.0000 O.2     1  LIG1       -0.2498
     16 O          -4.9540   -0.6290    0.0000 O.3     1  LIG1       -0.4442
     17 C          -5.7580   -0.1580    0.0000 C.3     1  LIG1        0.2556
     18 C          -3.3460   -2.1380    0.0000 C.3     1  LIG1        0.0707
     19 S          -0.2500   -2.1170    0.0000 S.2     1  LIG1       -0.0457
     20 C           0.5080   -1.6080    0.0000 C.ar    1  LIG1        0.0884
     21 C           0.4960   -0.8130    0.0000 C.ar    1  LIG1        0.2686
     22 O           1.0830   -0.2920    0.0000 O.2     1  LIG1       -0.2664
     23 C           1.2920   -2.1630    0.0000 C.2     1  LIG1        0.0113
     24 C           2.1290   -1.6830    0.0000 C.ar    1  LIG1        0.0006
     25 C           2.1290   -0.6880    0.0000 C.ar    1  LIG1       -0.0003
     26 C           2.9920   -0.1580    0.0000 C.ar    1  LIG1       -0.0043
     27 C           3.8750   -0.6540    0.0000 C.ar    1  LIG1       -0.0225
     28 C           3.8750   -1.6540    0.0000 C.ar    1  LIG1       -0.0043
     29 C           3.0130   -2.1540    0.0000 C.ar    1  LIG1       -0.0003
     30 C           4.7540   -0.1920    0.0000 C.3     1  LIG1        0.0224
     31 C           5.7540   -0.6080    0.0000 C.3     1  LIG1        0.0047
     32 C           4.7540    0.8540    0.0000 C.3     1  LIG1        0.0047
@<TRIPOS>BOND
     1     1     2   ar
     2     1     6    1
     3     1    21   ar
     4     2     3    2
     5     2    19   ar
     6     3     4    1
     7     4     5    1
     8     4     9    1
     9     4    18    1
    10     5     6    1
    11     5    14    1
    12     6     7    1
    13     7     8   ar
    14     7    13   ar
    15     8     9    1
    16     8    10   ar
    17    10    11   ar
    18    11    12   ar
    19    12    13   ar
    20    14    15    2
    21    14    16    1
    22    16    17    1
    23    19    20   ar
    24    20    21   ar
    25    20    23    2
    26    21    22    2
    27    23    24    1
    28    24    25   ar
    29    24    29   ar
    30    25    26   ar
    31    26    27   ar
    32    27    28   ar
    33    27    30    1
    34    28    29   ar
    35    30    31    1
    36    30    32    1
