@<TRIPOS>MOLECULE
29539_ChemDiv_3406-0330
 11 11 0 0 0
SMALL
GASTEIGER
Energy = 0

@<TRIPOS>ATOM
      1 C          -0.4420    0.0130    0.0000 C.ar    1  LIG1        0.0524
      2 C           0.4210    0.5000    0.0000 C.ar    1  LIG1        0.0175
      3 C           1.2830    0.0130    0.0000 C.ar    1  LIG1        0.1106
      4 C           1.2830   -0.9880    0.0000 C.ar    1  LIG1        0.3521
      5 O           0.4210   -1.4750    0.0000 O.2     1  LIG1       -0.4175
      6 C          -0.4420   -0.9880    0.0000 C.ar    1  LIG1        0.1842
      7 O           2.1670   -1.5000    0.0000 O.2     1  LIG1       -0.2439
      8 BR          2.1670    0.5330    0.0000 Br      1  LIG1       -0.0422
      9 C          -1.3040    0.5330    0.0000 C.2     1  LIG1        0.0759
     10 O          -2.1710    0.0130    0.0000 O.co2   1  LIG1       -0.5445
     11 O          -1.3040    1.5040    0.0000 O.co2   1  LIG1       -0.5445
@<TRIPOS>BOND
     1     1     2   ar
     2     1     6   ar
     3     1     9    1
     4     2     3   ar
     5     3     4   ar
     6     3     8    1
     7     4     5   ar
     8     4     7    2
     9     5     6   ar
    10     9    10   ar
    11     9    11   ar
