@<TRIPOS>MOLECULE
29535_ChemDiv_3448-6756
 19 21 0 0 0
SMALL
GASTEIGER
Energy = 0

@<TRIPOS>ATOM
      1 N           0.3790    0.4420    0.0000 N.ar    1  LIG1       -0.2300
      2 C           0.3790   -0.5250    0.0000 C.ar    1  LIG1        0.0840
      3 C           1.2080   -1.0080    0.0000 C.ar    1  LIG1        0.0356
      4 C           2.0460   -0.5250    0.0000 C.ar    1  LIG1        0.0808
      5 N           2.0460    0.4420    0.0000 N.ar    1  LIG1       -0.1695
      6 C           2.9330   -1.0420    0.0000 C.3     1  LIG1        0.0540
      7 C          -0.4420   -0.9960    0.0000 C.ar    1  LIG1        0.0177
      8 C          -0.4420   -1.9670    0.0000 C.ar    1  LIG1        0.0015
      9 C          -1.2630   -2.4000    0.0000 C.ar    1  LIG1        0.0000
     10 C          -2.1130   -1.9670    0.0000 C.ar    1  LIG1        0.0000
     11 C          -2.1210   -0.9960    0.0000 C.ar    1  LIG1        0.0000
     12 C          -1.2630   -0.5130    0.0000 C.ar    1  LIG1        0.0015
     13 C          -0.4170    0.9080    0.0000 C.ar    1  LIG1        0.0828
     14 C          -0.4170    1.8960    0.0000 C.ar    1  LIG1        0.0200
     15 C          -1.2630    2.3790    0.0000 C.ar    1  LIG1        0.0129
     16 C          -2.0880    1.8960    0.0000 C.ar    1  LIG1        0.0578
     17 C          -2.0880    0.9080    0.0000 C.ar    1  LIG1        0.0129
     18 C          -1.2630    0.4330    0.0000 C.ar    1  LIG1        0.0200
     19 CL         -2.9380    2.4040    0.0000 Cl      1  LIG1       -0.0822
@<TRIPOS>BOND
     1     1     2   ar
     2     1     5   ar
     3     1    13    1
     4     2     3   ar
     5     2     7    1
     6     3     4   ar
     7     4     5   ar
     8     4     6    1
     9     7     8   ar
    10     7    12   ar
    11     8     9   ar
    12     9    10   ar
    13    10    11   ar
    14    11    12   ar
    15    13    14   ar
    16    13    18   ar
    17    14    15   ar
    18    15    16   ar
    19    16    17   ar
    20    16    19    1
    21    17    18   ar
