@<TRIPOS>MOLECULE
29545_ChemDiv_3448-0463
 15 17 0 0 0
SMALL
GASTEIGER
Energy = 0

@<TRIPOS>ATOM
      1 C           0.0000   -0.4580    0.0000 C.ar    1  LIG1        0.1513
      2 C          -0.8420   -0.9460    0.0000 C.ar    1  LIG1        0.0723
      3 C          -1.6670   -0.4710    0.0000 C.ar    1  LIG1        0.1484
      4 O          -2.5080   -0.9330    0.0000 O.2     1  LIG1       -0.4503
      5 C          -2.4960   -1.9170    0.0000 C.ar    1  LIG1        0.1797
      6 C          -0.8420   -1.9170    0.0000 C.ar    1  LIG1        0.0467
      7 C          -1.6670    0.4710    0.0000 C.ar    1  LIG1        0.0377
      8 C          -0.8130    0.9380    0.0000 C.ar    1  LIG1        0.0059
      9 C          -0.0040    0.4710    0.0000 C.ar    1  LIG1        0.0311
     10 C           0.8380    0.9380    0.0000 C.ar    1  LIG1       -0.0125
     11 C           1.6580    0.4630    0.0000 C.ar    1  LIG1        0.0781
     12 C           1.6580   -0.4790    0.0000 C.ar    1  LIG1        0.3456
     13 O           0.8330   -0.9580    0.0000 O.2     1  LIG1       -0.4209
     14 O           2.5040   -0.9750    0.0000 O.2     1  LIG1       -0.2445
     15 C           0.8380    1.9210    0.0000 C.3     1  LIG1        0.0313
@<TRIPOS>BOND
     1     1     2   ar
     2     1     9   ar
     3     1    13   ar
     4     2     3   ar
     5     2     6   ar
     6     3     4   ar
     7     3     7   ar
     8     4     5   ar
     9     5     6   ar
    10     7     8   ar
    11     8     9   ar
    12     9    10   ar
    13    10    11   ar
    14    10    15    1
    15    11    12   ar
    16    12    13   ar
    17    12    14    2
