@<TRIPOS>MOLECULE
29541_ChemDiv_3406-0415
 16 17 0 0 0
SMALL
GASTEIGER
Energy = 0

@<TRIPOS>ATOM
      1 C           0.4250   -0.9630    0.0000 C.ar    1  LIG1        0.1138
      2 C          -0.4290   -0.4670    0.0000 C.2     1  LIG1        0.3488
      3 O          -0.4670    0.5330    0.0000 O.3     1  LIG1       -0.4210
      4 C          -1.3380    1.0080    0.0000 C.ar    1  LIG1        0.1488
      5 C          -1.3750    1.9960    0.0000 C.ar    1  LIG1        0.0376
      6 C          -2.2580    2.4750    0.0000 C.ar    1  LIG1        0.0031
      7 C          -3.0960    1.9420    0.0000 C.ar    1  LIG1        0.0002
      8 C          -3.0670    0.9580    0.0000 C.ar    1  LIG1        0.0031
      9 C          -2.1880    0.4790    0.0000 C.ar    1  LIG1        0.0376
     10 O          -1.3080   -0.9380    0.0000 O.2     1  LIG1       -0.2444
     11 C           0.4250   -1.9750    0.0000 C.ar    1  LIG1        0.1895
     12 O           1.2920   -2.4710    0.0000 O.2     1  LIG1       -0.4177
     13 C           2.1580   -1.9750    0.0000 C.ar    1  LIG1        0.3460
     14 C           2.1580   -0.9630    0.0000 C.ar    1  LIG1        0.0826
     15 C           1.2920   -0.4670    0.0000 C.ar    1  LIG1        0.0163
     16 O           3.0920   -2.4170    0.0000 O.2     1  LIG1       -0.2445
@<TRIPOS>BOND
     1     1     2    1
     2     1    11   ar
     3     1    15   ar
     4     2     3    1
     5     2    10    2
     6     3     4    1
     7     4     5   ar
     8     4     9   ar
     9     5     6   ar
    10     6     7   ar
    11     7     8   ar
    12     8     9   ar
    13    11    12   ar
    14    12    13   ar
    15    13    14   ar
    16    13    16    2
    17    14    15   ar
