@<TRIPOS>MOLECULE
29544_ChemDiv_3473-0339
 14 16 0 0 0
SMALL
GASTEIGER
Energy = 0

@<TRIPOS>ATOM
      1 C          -0.6540    0.0710    0.0000 C.ar    1  LIG1        0.1142
      2 C           0.2960   -0.1830    0.0000 C.ar    1  LIG1        0.0444
      3 C           0.5710   -1.1210    0.0000 C.ar    1  LIG1        0.1205
      4 N          -0.1000   -1.8420    0.0000 N.ar    1  LIG1       -0.2134
      5 C          -1.0750   -1.5880    0.0000 C.ar    1  LIG1        0.2013
      6 N          -1.3460   -0.6460    0.0000 N.ar    1  LIG1       -0.2139
      7 S          -1.7920   -2.2880    0.0000 S.2     1  LIG1       -0.0092
      8 S           1.6210   -1.4380    0.0000 S.2     1  LIG1       -0.0299
      9 C           0.8630    0.6880    0.0000 C.ar    1  LIG1       -0.0162
     10 C           0.2710    1.4080    0.0000 C.ar    1  LIG1        0.0048
     11 S          -0.6960    1.1080    0.0000 S.2     1  LIG1       -0.0726
     12 C           0.8080    2.2920    0.0000 C.3     1  LIG1        0.0330
     13 C           1.7080    2.0420    0.0000 C.3     1  LIG1        0.0099
     14 C           1.7880    1.0630    0.0000 C.3     1  LIG1        0.0270
@<TRIPOS>BOND
     1     1     2   ar
     2     1     6   ar
     3     1    11   ar
     4     2     3   ar
     5     2     9   ar
     6     3     4   ar
     7     3     8    2
     8     4     5   ar
     9     5     6   ar
    10     5     7    2
    11     9    10   ar
    12     9    14    1
    13    10    11   ar
    14    10    12    1
    15    12    13    1
    16    13    14    1
