@<TRIPOS>MOLECULE
29551_ChemDiv_3448-0626
 31 35 0 0 0
SMALL
GASTEIGER
Energy = 0

@<TRIPOS>ATOM
      1 S           1.1500   -0.4420    0.0000 S.O2    1  LIG1       -0.0577
      2 C           2.0000    0.0460    0.0000 C.ar    1  LIG1        0.0894
      3 C           2.8420   -0.4580    0.0000 C.ar    1  LIG1        0.0186
      4 C           3.7330    0.0460    0.0000 C.ar    1  LIG1        0.0352
      5 C           3.7330    1.0460    0.0000 C.ar    1  LIG1        0.1387
      6 C           2.8710    1.5380    0.0000 C.ar    1  LIG1        0.0382
      7 C           1.9830    1.0380    0.0000 C.ar    1  LIG1        0.0200
      8 O           4.6540    1.5670    0.0000 O.3     1  LIG1       -0.4714
      9 C           5.5420    1.0130    0.0000 C.3     1  LIG1        0.2525
     10 C           4.5790   -0.4420    0.0000 C.ar    1  LIG1        0.0031
     11 C           4.5790   -1.4630    0.0000 C.ar    1  LIG1        0.0001
     12 C           3.7040   -1.9630    0.0000 C.ar    1  LIG1        0.0000
     13 C           2.8420   -1.4460    0.0000 C.ar    1  LIG1        0.0013
     14 N           0.3080   -0.9250    0.0000 N.pl3   1  LIG1       -0.5334
     15 C          -0.5500   -0.4420    0.0000 C.ar    1  LIG1       -0.0744
     16 C          -1.3880   -0.9170    0.0000 C.ar    1  LIG1        0.0166
     17 C          -2.2210   -0.4420    0.0000 C.ar    1  LIG1        0.1437
     18 C          -2.2210    0.5080    0.0000 C.ar    1  LIG1        0.0404
     19 C          -3.8790    0.5080    0.0000 C.ar    1  LIG1        0.0376
     20 C          -3.8790   -0.4420    0.0000 C.ar    1  LIG1        0.1453
     21 O          -3.0540   -0.9170    0.0000 O.2     1  LIG1       -0.4536
     22 C          -4.7080   -0.9170    0.0000 C.ar    1  LIG1        0.0375
     23 C          -5.5460   -0.4420    0.0000 C.ar    1  LIG1        0.0031
     24 C          -5.5460    0.5080    0.0000 C.ar    1  LIG1        0.0002
     25 C          -4.7080    0.9750    0.0000 C.ar    1  LIG1        0.0031
     26 C          -1.3880    0.9750    0.0000 C.ar    1  LIG1        0.0381
     27 C          -0.5500    0.5080    0.0000 C.ar    1  LIG1        0.1169
     28 O           0.3080    0.9960    0.0000 O.3     1  LIG1       -0.4733
     29 C           0.3130    1.9670    0.0000 C.3     1  LIG1        0.2524
     30 O           0.6670    0.4040    0.0000 O.2     1  LIG1       -0.1842
     31 O           1.6420   -1.2830    0.0000 O.2     1  LIG1       -0.1842
@<TRIPOS>BOND
     1     1     2    1
     2     1    14    1
     3     1    30    2
     4     1    31    2
     5     2     3   ar
     6     2     7   ar
     7     3     4   ar
     8     3    13   ar
     9     4     5   ar
    10     4    10   ar
    11     5     6   ar
    12     5     8    1
    13     6     7   ar
    14     8     9    1
    15    10    11   ar
    16    11    12   ar
    17    12    13   ar
    18    14    15    1
    19    15    16   ar
    20    15    27   ar
    21    16    17   ar
    22    17    18   ar
    23    17    21   ar
    24    18    19   ar
    25    18    26   ar
    26    19    20   ar
    27    19    25   ar
    28    20    21   ar
    29    20    22   ar
    30    22    23   ar
    31    23    24   ar
    32    24    25   ar
    33    26    27   ar
    34    27    28    1
    35    28    29    1
