@<TRIPOS>MOLECULE
29554_ChemDiv_5599-0683
 27 30 0 0 0
SMALL
GASTEIGER
Energy = 0

@<TRIPOS>ATOM
      1 C          -1.7460    1.6790    0.0000 C.2     1  LIG1        0.2508
      2 N          -2.6040    2.2000    0.0000 N.am    1  LIG1       -0.1445
      3 C          -3.4580    1.6790    0.0000 C.2     1  LIG1        0.2479
      4 O          -4.3290    2.2000    0.0000 O.2     1  LIG1       -0.2729
      5 C          -3.4580    0.6830    0.0000 C.3     1  LIG1        0.0881
      6 C          -2.6040    0.1920    0.0000 C.3     1  LIG1        0.0224
      7 C          -1.7460    0.6830    0.0000 C.3     1  LIG1        0.0905
      8 C          -0.8880    0.1710    0.0000 C.3     1  LIG1        0.0239
      9 C          -0.8880   -0.8040    0.0000 C.3     1  LIG1        0.0637
     10 C          -0.0250   -1.3170    0.0000 C.3     1  LIG1        0.1390
     11 N           0.8540   -0.8040    0.0000 N.4     1  LIG1        0.3807
     12 C           1.7170   -1.3330    0.0000 C.3     1  LIG1        0.1662
     13 C           2.5830   -0.8290    0.0000 C.ar    1  LIG1        0.0344
     14 C           3.4500   -1.3330    0.0000 C.ar    1  LIG1        0.0014
     15 C           4.3250   -0.8460    0.0000 C.ar    1  LIG1       -0.0001
     16 C           4.3250    0.1500    0.0000 C.ar    1  LIG1       -0.0000
     17 C           3.4630    0.6630    0.0000 C.ar    1  LIG1       -0.0001
     18 C           2.5830    0.1710    0.0000 C.ar    1  LIG1        0.0014
     19 C           0.8670    0.1710    0.0000 C.3     1  LIG1        0.1390
     20 C          -0.0080    0.6750    0.0000 C.3     1  LIG1        0.0637
     21 C          -2.0080   -0.2750    0.0000 C.ar    1  LIG1       -0.0145
     22 C          -2.9790   -0.5290    0.0000 C.ar    1  LIG1       -0.0038
     23 C          -3.2420   -1.4710    0.0000 C.ar    1  LIG1       -0.0003
     24 C          -2.5380   -2.1960    0.0000 C.ar    1  LIG1       -0.0000
     25 C          -1.5580   -1.9420    0.0000 C.ar    1  LIG1       -0.0003
     26 C          -1.3080   -0.9790    0.0000 C.ar    1  LIG1       -0.0038
     27 O          -0.8750    2.2000    0.0000 O.2     1  LIG1       -0.2726
@<TRIPOS>BOND
     1     1     2   am
     2     1     7    1
     3     1    27    2
     4     2     3   am
     5     3     4    2
     6     3     5    1
     7     5     6    1
     8     6     7    1
     9     7     8    1
    10     7    21    1
    11     8     9    1
    12     8    20    1
    13     9    10    1
    14    10    11    1
    15    11    12    1
    16    11    19    1
    17    12    13    1
    18    13    14   ar
    19    13    18   ar
    20    14    15   ar
    21    15    16   ar
    22    16    17   ar
    23    17    18   ar
    24    19    20    1
    25    21    22   ar
    26    21    26   ar
    27    22    23   ar
    28    23    24   ar
    29    24    25   ar
    30    25    26   ar
