@<TRIPOS>MOLECULE
29569_ChemDiv_5293-0004
 33 37 0 0 0
SMALL
GASTEIGER
Energy = 0

@<TRIPOS>ATOM
      1 S           3.1750   -0.0460    0.0000 S.O2    1  LIG1       -0.0578
      2 C           2.6580   -0.9250    0.0000 C.ar    1  LIG1        0.0895
      3 C           1.6630   -0.9250    0.0000 C.ar    1  LIG1        0.0200
      4 C           1.1460   -1.8130    0.0000 C.ar    1  LIG1        0.0388
      5 C           0.1670   -2.0250    0.0000 C.ar    1  LIG1        0.0388
      6 C           0.0790   -3.0040    0.0000 C.ar    1  LIG1        0.1454
      7 O           0.9750   -3.4170    0.0000 O.2     1  LIG1       -0.4535
      8 C           1.6580   -2.6420    0.0000 C.ar    1  LIG1        0.1454
      9 C           2.6580   -2.6420    0.0000 C.ar    1  LIG1        0.0388
     10 C           3.1710   -1.8130    0.0000 C.ar    1  LIG1        0.0200
     11 C          -0.8210   -3.4170    0.0000 C.ar    1  LIG1        0.0388
     12 C          -1.6210   -2.8420    0.0000 C.ar    1  LIG1        0.0200
     13 C          -1.5330   -1.8880    0.0000 C.ar    1  LIG1        0.0895
     14 S          -2.3960   -1.3380    0.0000 S.O2    1  LIG1       -0.0578
     15 N          -3.2420   -0.8210    0.0000 N.pl3   1  LIG1       -0.5358
     16 C          -3.2210    0.1750    0.0000 C.ar    1  LIG1       -0.1123
     17 C          -2.3580    0.6630    0.0000 C.ar    1  LIG1       -0.0238
     18 C          -2.3330    1.6540    0.0000 C.ar    1  LIG1       -0.0019
     19 C          -3.1830    2.1750    0.0000 C.ar    1  LIG1       -0.0001
     20 C          -4.0670    1.6920    0.0000 C.ar    1  LIG1       -0.0019
     21 C          -4.0670    0.6920    0.0000 C.ar    1  LIG1       -0.0238
     22 O          -2.9460   -2.1960    0.0000 O.2     1  LIG1       -0.1842
     23 O          -1.8670   -0.4880    0.0000 O.2     1  LIG1       -0.1842
     24 C          -0.6580   -1.4500    0.0000 C.ar    1  LIG1        0.0200
     25 N           3.7210    0.8290    0.0000 N.pl3   1  LIG1       -0.5358
     26 C           3.2080    1.7170    0.0000 C.ar    1  LIG1       -0.1123
     27 C           3.7250    2.5880    0.0000 C.ar    1  LIG1       -0.0238
     28 C           3.2380    3.4210    0.0000 C.ar    1  LIG1       -0.0019
     29 C           2.2130    3.4210    0.0000 C.ar    1  LIG1       -0.0001
     30 C           1.7250    2.5880    0.0000 C.ar    1  LIG1       -0.0019
     31 C           2.2130    1.7420    0.0000 C.ar    1  LIG1       -0.0238
     32 O           2.3000    0.4790    0.0000 O.2     1  LIG1       -0.1842
     33 O           4.0630   -0.5750    0.0000 O.2     1  LIG1       -0.1842
@<TRIPOS>BOND
     1     1     2    1
     2     1    25    1
     3     1    32    2
     4     1    33    2
     5     2     3   ar
     6     2    10   ar
     7     3     4   ar
     8     4     5   ar
     9     4     8   ar
    10     5     6   ar
    11     5    24   ar
    12     6     7   ar
    13     6    11   ar
    14     7     8   ar
    15     8     9   ar
    16     9    10   ar
    17    11    12   ar
    18    12    13   ar
    19    13    14    1
    20    13    24   ar
    21    14    15    1
    22    14    22    2
    23    14    23    2
    24    15    16    1
    25    16    17   ar
    26    16    21   ar
    27    17    18   ar
    28    18    19   ar
    29    19    20   ar
    30    20    21   ar
    31    25    26    1
    32    26    27   ar
    33    26    31   ar
    34    27    28   ar
    35    28    29   ar
    36    29    30   ar
    37    30    31   ar
