@<TRIPOS>MOLECULE
29571_ChemDiv_5293-0007
 37 41 0 0 0
SMALL
GASTEIGER
Energy = 0

@<TRIPOS>ATOM
      1 S           3.1330   -0.9580    0.0000 S.O2    1  LIG1       -0.0578
      2 C           2.6040   -1.8420    0.0000 C.ar    1  LIG1        0.0895
      3 C           1.5500   -1.8080    0.0000 C.ar    1  LIG1        0.0200
      4 C           1.0880   -2.6750    0.0000 C.ar    1  LIG1        0.0388
      5 C           0.1130   -2.8670    0.0000 C.ar    1  LIG1        0.0388
      6 C           0.0290   -3.8330    0.0000 C.ar    1  LIG1        0.1454
      7 O           0.9080   -4.2630    0.0000 O.2     1  LIG1       -0.4535
      8 C           1.5500   -3.5290    0.0000 C.ar    1  LIG1        0.1454
      9 C           2.5540   -3.5290    0.0000 C.ar    1  LIG1        0.0388
     10 C           3.0630   -2.6750    0.0000 C.ar    1  LIG1        0.0200
     11 C          -0.8790   -4.2630    0.0000 C.ar    1  LIG1        0.0388
     12 C          -1.7040   -3.7330    0.0000 C.ar    1  LIG1        0.0200
     13 C          -1.6130   -2.7170    0.0000 C.ar    1  LIG1        0.0895
     14 S          -2.4250   -2.1130    0.0000 S.O2    1  LIG1       -0.0578
     15 N          -3.2460   -1.5040    0.0000 N.pl3   1  LIG1       -0.5357
     16 C          -3.1500   -0.5540    0.0000 C.ar    1  LIG1       -0.1093
     17 C          -2.2420   -0.1000    0.0000 C.ar    1  LIG1        0.0131
     18 C          -2.1580    0.8790    0.0000 C.ar    1  LIG1        0.1369
     19 O          -1.2500    1.2960    0.0000 O.3     1  LIG1       -0.4715
     20 C          -0.4250    0.7290    0.0000 C.3     1  LIG1        0.2525
     21 C          -2.9750    1.4460    0.0000 C.ar    1  LIG1        0.0368
     22 C          -3.9080    1.0290    0.0000 C.ar    1  LIG1        0.0013
     23 C          -3.9750    0.0290    0.0000 C.ar    1  LIG1       -0.0236
     24 O          -3.0290   -2.9250    0.0000 O.2     1  LIG1       -0.1842
     25 O          -1.8580   -1.3080    0.0000 O.2     1  LIG1       -0.1842
     26 C          -0.7040   -2.2960    0.0000 C.ar    1  LIG1        0.0200
     27 N           3.6710   -0.1000    0.0000 N.pl3   1  LIG1       -0.5357
     28 C           3.2080    0.7830    0.0000 C.ar    1  LIG1       -0.1093
     29 C           3.7380    1.6380    0.0000 C.ar    1  LIG1        0.0131
     30 C           3.2540    2.5080    0.0000 C.ar    1  LIG1        0.1369
     31 O           3.8210    3.3830    0.0000 O.3     1  LIG1       -0.4715
     32 C           3.3670    4.2630    0.0000 C.3     1  LIG1        0.2525
     33 C           2.2500    2.5460    0.0000 C.ar    1  LIG1        0.0368
     34 C           1.7380    1.7170    0.0000 C.ar    1  LIG1        0.0013
     35 C           2.1920    0.8420    0.0000 C.ar    1  LIG1       -0.0236
     36 O           2.2500   -0.4080    0.0000 O.2     1  LIG1       -0.1842
     37 O           3.9710   -1.5040    0.0000 O.2     1  LIG1       -0.1842
@<TRIPOS>BOND
     1     1     2    1
     2     1    27    1
     3     1    36    2
     4     1    37    2
     5     2     3   ar
     6     2    10   ar
     7     3     4   ar
     8     4     5   ar
     9     4     8   ar
    10     5     6   ar
    11     5    26   ar
    12     6     7   ar
    13     6    11   ar
    14     7     8   ar
    15     8     9   ar
    16     9    10   ar
    17    11    12   ar
    18    12    13   ar
    19    13    14    1
    20    13    26   ar
    21    14    15    1
    22    14    24    2
    23    14    25    2
    24    15    16    1
    25    16    17   ar
    26    16    23   ar
    27    17    18   ar
    28    18    19    1
    29    18    21   ar
    30    19    20    1
    31    21    22   ar
    32    22    23   ar
    33    27    28    1
    34    28    29   ar
    35    28    35   ar
    36    29    30   ar
    37    30    31    1
    38    30    33   ar
    39    31    32    1
    40    33    34   ar
    41    34    35   ar
