@<TRIPOS>MOLECULE
29573_ChemDiv_5293-0008
 37 41 0 0 0
SMALL
GASTEIGER
Energy = 0

@<TRIPOS>ATOM
      1 S           2.9790   -0.8630    0.0000 S.O2    1  LIG1       -0.0578
      2 C           2.5250   -1.7540    0.0000 C.ar    1  LIG1        0.0895
      3 C           1.5540   -1.7830    0.0000 C.ar    1  LIG1        0.0200
      4 C           1.0540   -2.6380    0.0000 C.ar    1  LIG1        0.0388
      5 C           0.0790   -2.8580    0.0000 C.ar    1  LIG1        0.0388
      6 C          -0.0080   -3.8580    0.0000 C.ar    1  LIG1        0.1454
      7 O           0.8830   -4.2330    0.0000 O.2     1  LIG1       -0.4535
      8 C           1.5540   -3.4960    0.0000 C.ar    1  LIG1        0.1454
      9 C           2.5540   -3.4960    0.0000 C.ar    1  LIG1        0.0388
     10 C           3.0580   -2.6380    0.0000 C.ar    1  LIG1        0.0200
     11 C          -0.9170   -4.2830    0.0000 C.ar    1  LIG1        0.0388
     12 C          -1.7210   -3.7170    0.0000 C.ar    1  LIG1        0.0200
     13 C          -1.6290   -2.7170    0.0000 C.ar    1  LIG1        0.0895
     14 S          -2.4330   -2.0920    0.0000 S.O2    1  LIG1       -0.0578
     15 N          -3.2540   -1.5000    0.0000 N.pl3   1  LIG1       -0.5358
     16 C          -3.1080   -0.4710    0.0000 C.ar    1  LIG1       -0.1121
     17 C          -3.9130    0.0880    0.0000 C.ar    1  LIG1       -0.0207
     18 C          -3.7920    1.0880    0.0000 C.ar    1  LIG1        0.0350
     19 C          -2.8830    1.4920    0.0000 C.ar    1  LIG1        0.1386
     20 C          -2.0830    0.8830    0.0000 C.ar    1  LIG1        0.0350
     21 C          -2.2000   -0.0790    0.0000 C.ar    1  LIG1       -0.0207
     22 O          -2.7710    2.4880    0.0000 O.3     1  LIG1       -0.4714
     23 C          -3.5750    3.0580    0.0000 C.3     1  LIG1        0.2525
     24 O          -3.0540   -2.9250    0.0000 O.2     1  LIG1       -0.1842
     25 O          -1.8250   -1.2920    0.0000 O.2     1  LIG1       -0.1842
     26 C          -0.7460   -2.2880    0.0000 C.ar    1  LIG1        0.0200
     27 N           3.4330    0.0290    0.0000 N.pl3   1  LIG1       -0.5358
     28 C           2.9080    0.8540    0.0000 C.ar    1  LIG1       -0.1121
     29 C           1.9170    0.8000    0.0000 C.ar    1  LIG1       -0.0207
     30 C           1.3630    1.6330    0.0000 C.ar    1  LIG1        0.0350
     31 C           1.8420    2.5420    0.0000 C.ar    1  LIG1        0.1386
     32 C           2.8380    2.5670    0.0000 C.ar    1  LIG1        0.0350
     33 C           3.3420    1.7420    0.0000 C.ar    1  LIG1       -0.0207
     34 O           1.2750    3.3960    0.0000 O.3     1  LIG1       -0.4714
     35 C           1.7670    4.2830    0.0000 C.3     1  LIG1        0.2525
     36 O           2.0960   -0.3790    0.0000 O.2     1  LIG1       -0.1842
     37 O           3.9080   -1.3250    0.0000 O.2     1  LIG1       -0.1842
@<TRIPOS>BOND
     1     1     2    1
     2     1    27    1
     3     1    36    2
     4     1    37    2
     5     2     3   ar
     6     2    10   ar
     7     3     4   ar
     8     4     5   ar
     9     4     8   ar
    10     5     6   ar
    11     5    26   ar
    12     6     7   ar
    13     6    11   ar
    14     7     8   ar
    15     8     9   ar
    16     9    10   ar
    17    11    12   ar
    18    12    13   ar
    19    13    14    1
    20    13    26   ar
    21    14    15    1
    22    14    24    2
    23    14    25    2
    24    15    16    1
    25    16    17   ar
    26    16    21   ar
    27    17    18   ar
    28    18    19   ar
    29    19    20   ar
    30    19    22    1
    31    20    21   ar
    32    22    23    1
    33    27    28    1
    34    28    29   ar
    35    28    33   ar
    36    29    30   ar
    37    30    31   ar
    38    31    32   ar
    39    31    34    1
    40    32    33   ar
    41    34    35    1
