@<TRIPOS>MOLECULE
29575_ChemDiv_6006-0053
 35 39 0 0 0
SMALL
GASTEIGER
Energy = 0

@<TRIPOS>ATOM
      1 S          -2.2750   -1.5960    0.0000 S.O2    1  LIG1       -0.0578
      2 C          -1.4000   -2.1040    0.0000 C.ar    1  LIG1        0.0895
      3 C          -0.5290   -1.5960    0.0000 C.ar    1  LIG1        0.0200
      4 C           0.3210   -2.1040    0.0000 C.ar    1  LIG1        0.0388
      5 C           1.2830   -1.7920    0.0000 C.ar    1  LIG1        0.0388
      6 C           1.8460   -2.5920    0.0000 C.ar    1  LIG1        0.1454
      7 O           1.2830   -3.3920    0.0000 O.2     1  LIG1       -0.4535
      8 C           0.3210   -3.0920    0.0000 C.ar    1  LIG1        0.1454
      9 C          -0.5290   -3.5880    0.0000 C.ar    1  LIG1        0.0388
     10 C          -1.4000   -3.0920    0.0000 C.ar    1  LIG1        0.0200
     11 C           2.8540   -2.5040    0.0000 C.ar    1  LIG1        0.0388
     12 C           3.2750   -1.5830    0.0000 C.ar    1  LIG1        0.0200
     13 C           2.6750   -0.7790    0.0000 C.ar    1  LIG1        0.0895
     14 S           3.0960    0.1540    0.0000 S.O2    1  LIG1       -0.0578
     15 N           3.5170    1.0750    0.0000 N.pl3   1  LIG1       -0.5357
     16 C           2.9170    1.8790    0.0000 C.ar    1  LIG1       -0.1091
     17 C           1.9210    1.7830    0.0000 C.ar    1  LIG1        0.0182
     18 C           1.3420    2.5830    0.0000 C.ar    1  LIG1        0.1939
     19 O           0.3380    2.4670    0.0000 O.3     1  LIG1       -0.2866
     20 C           1.7500    3.4920    0.0000 C.ar    1  LIG1        0.0419
     21 C           2.7380    3.5920    0.0000 C.ar    1  LIG1        0.0014
     22 C           3.3330    2.7830    0.0000 C.ar    1  LIG1       -0.0236
     23 O           2.1750    0.5500    0.0000 O.2     1  LIG1       -0.1842
     24 O           4.0040   -0.2710    0.0000 O.2     1  LIG1       -0.1842
     25 C           1.6920   -0.8750    0.0000 C.ar    1  LIG1        0.0200
     26 N          -3.1420   -1.1000    0.0000 N.pl3   1  LIG1       -0.5357
     27 C          -3.1420   -0.1130    0.0000 C.ar    1  LIG1       -0.1091
     28 C          -2.2790    0.3960    0.0000 C.ar    1  LIG1        0.0182
     29 C          -2.2790    1.3790    0.0000 C.ar    1  LIG1        0.1939
     30 O          -1.4130    1.9040    0.0000 O.3     1  LIG1       -0.2866
     31 C          -3.1420    1.8880    0.0000 C.ar    1  LIG1        0.0419
     32 C          -4.0080    1.3790    0.0000 C.ar    1  LIG1        0.0014
     33 C          -4.0080    0.3960    0.0000 C.ar    1  LIG1       -0.0236
     34 O          -2.7710   -2.4830    0.0000 O.2     1  LIG1       -0.1842
     35 O          -1.7750   -0.7330    0.0000 O.2     1  LIG1       -0.1842
@<TRIPOS>BOND
     1     1     2    1
     2     1    26    1
     3     1    34    2
     4     1    35    2
     5     2     3   ar
     6     2    10   ar
     7     3     4   ar
     8     4     5   ar
     9     4     8   ar
    10     5     6   ar
    11     5    25   ar
    12     6     7   ar
    13     6    11   ar
    14     7     8   ar
    15     8     9   ar
    16     9    10   ar
    17    11    12   ar
    18    12    13   ar
    19    13    14    1
    20    13    25   ar
    21    14    15    1
    22    14    23    2
    23    14    24    2
    24    15    16    1
    25    16    17   ar
    26    16    22   ar
    27    17    18   ar
    28    18    19    1
    29    18    20   ar
    30    20    21   ar
    31    21    22   ar
    32    26    27    1
    33    27    28   ar
    34    27    33   ar
    35    28    29   ar
    36    29    30    1
    37    29    31   ar
    38    31    32   ar
    39    32    33   ar
