@<TRIPOS>MOLECULE
29579_ChemDiv_8006-4673
 26 29 0 0 0
SMALL
GASTEIGER
Energy = 0

@<TRIPOS>ATOM
      1 S           2.2540    0.0250    0.0000 S.O2    1  LIG1       -0.0577
      2 N           1.9710    0.9210    0.0000 N.pl3   1  LIG1       -0.5334
      3 C           0.9880    1.1420    0.0000 C.ar    1  LIG1       -0.0744
      4 C           0.3210    0.4250    0.0000 C.ar    1  LIG1        0.0166
      5 C          -0.5920    0.6170    0.0000 C.ar    1  LIG1        0.1437
      6 C          -0.9210    1.6170    0.0000 C.ar    1  LIG1        0.0404
      7 C          -1.9080    1.6000    0.0000 C.ar    1  LIG1        0.0376
      8 C          -2.2540    0.7130    0.0000 C.ar    1  LIG1        0.1453
      9 O          -1.4330    0.0880    0.0000 O.2     1  LIG1       -0.4536
     10 C          -3.2210    0.5040    0.0000 C.ar    1  LIG1        0.0375
     11 C          -3.8710    1.2670    0.0000 C.ar    1  LIG1        0.0031
     12 C          -3.5830    2.1670    0.0000 C.ar    1  LIG1        0.0002
     13 C          -2.5830    2.3750    0.0000 C.ar    1  LIG1        0.0031
     14 C          -0.2130    2.3290    0.0000 C.ar    1  LIG1        0.0381
     15 C           0.7210    2.1500    0.0000 C.ar    1  LIG1        0.1169
     16 O           1.3500    2.9130    0.0000 O.3     1  LIG1       -0.4733
     17 C           1.0670    3.8460    0.0000 C.3     1  LIG1        0.2524
     18 C           2.5670   -0.9460    0.0000 C.ar    1  LIG1        0.0894
     19 C           3.5330   -1.1460    0.0000 C.ar    1  LIG1        0.0192
     20 C           3.8670   -2.1330    0.0000 C.ar    1  LIG1        0.0309
     21 C           3.1710   -2.8290    0.0000 C.ar    1  LIG1        0.1402
     22 C           2.1920   -2.6380    0.0000 C.ar    1  LIG1        0.0309
     23 C           1.8880   -1.6580    0.0000 C.ar    1  LIG1        0.0192
     24 F           3.4880   -3.8420    0.0000 F       1  LIG1       -0.2042
     25 O           3.2670    0.2710    0.0000 O.2     1  LIG1       -0.1842
     26 O           1.2580   -0.2580    0.0000 O.2     1  LIG1       -0.1842
@<TRIPOS>BOND
     1     1     2    1
     2     1    18    1
     3     1    25    2
     4     1    26    2
     5     2     3    1
     6     3     4   ar
     7     3    15   ar
     8     4     5   ar
     9     5     6   ar
    10     5     9   ar
    11     6     7   ar
    12     6    14   ar
    13     7     8   ar
    14     7    13   ar
    15     8     9   ar
    16     8    10   ar
    17    10    11   ar
    18    11    12   ar
    19    12    13   ar
    20    14    15   ar
    21    15    16    1
    22    16    17    1
    23    18    19   ar
    24    18    23   ar
    25    19    20   ar
    26    20    21   ar
    27    21    22   ar
    28    21    24    1
    29    22    23   ar
