@<TRIPOS>MOLECULE
29577_ChemDiv_6006-0054
 35 39 0 0 0
SMALL
GASTEIGER
Energy = 0

@<TRIPOS>ATOM
      1 S          -2.2750   -1.9540    0.0000 S.O2    1  LIG1       -0.0578
      2 C          -1.4000   -2.4630    0.0000 C.ar    1  LIG1        0.0895
      3 C          -0.5290   -1.9540    0.0000 C.ar    1  LIG1        0.0200
      4 C           0.3210   -2.4630    0.0000 C.ar    1  LIG1        0.0388
      5 C           1.2830   -2.1580    0.0000 C.ar    1  LIG1        0.0388
      6 C           1.8500   -2.9670    0.0000 C.ar    1  LIG1        0.1454
      7 O           1.2830   -3.7670    0.0000 O.2     1  LIG1       -0.4535
      8 C           0.3210   -3.4500    0.0000 C.ar    1  LIG1        0.1454
      9 C          -0.5290   -3.9460    0.0000 C.ar    1  LIG1        0.0388
     10 C          -1.4000   -3.4500    0.0000 C.ar    1  LIG1        0.0200
     11 C           2.8540   -2.8580    0.0000 C.ar    1  LIG1        0.0388
     12 C           3.2790   -1.9540    0.0000 C.ar    1  LIG1        0.0200
     13 C           2.6790   -1.1500    0.0000 C.ar    1  LIG1        0.0895
     14 S           3.0960   -0.2170    0.0000 S.O2    1  LIG1       -0.0578
     15 N           3.5210    0.7040    0.0000 N.pl3   1  LIG1       -0.5358
     16 C           2.9210    1.5080    0.0000 C.ar    1  LIG1       -0.1121
     17 C           3.3380    2.4170    0.0000 C.ar    1  LIG1       -0.0206
     18 C           2.7380    3.2420    0.0000 C.ar    1  LIG1        0.0402
     19 C           1.7540    3.1380    0.0000 C.ar    1  LIG1        0.1956
     20 C           1.3460    2.2170    0.0000 C.ar    1  LIG1        0.0402
     21 C           1.9250    1.4290    0.0000 C.ar    1  LIG1       -0.0206
     22 O           1.1630    3.9500    0.0000 O.3     1  LIG1       -0.2866
     23 O           2.1750    0.1960    0.0000 O.2     1  LIG1       -0.1842
     24 O           4.0080   -0.6250    0.0000 O.2     1  LIG1       -0.1842
     25 C           1.6920   -1.2290    0.0000 C.ar    1  LIG1        0.0200
     26 N          -3.1460   -1.4540    0.0000 N.pl3   1  LIG1       -0.5358
     27 C          -3.1460   -0.4670    0.0000 C.ar    1  LIG1       -0.1121
     28 C          -4.0130    0.0420    0.0000 C.ar    1  LIG1       -0.0206
     29 C          -4.0130    1.0250    0.0000 C.ar    1  LIG1        0.0402
     30 C          -3.1460    1.5250    0.0000 C.ar    1  LIG1        0.1956
     31 C          -2.2790    1.0250    0.0000 C.ar    1  LIG1        0.0402
     32 C          -2.2790    0.0420    0.0000 C.ar    1  LIG1       -0.0206
     33 O          -3.1460    2.5170    0.0000 O.3     1  LIG1       -0.2866
     34 O          -1.7750   -1.0920    0.0000 O.2     1  LIG1       -0.1842
     35 O          -2.7750   -2.8420    0.0000 O.2     1  LIG1       -0.1842
@<TRIPOS>BOND
     1     1     2    1
     2     1    26    1
     3     1    34    2
     4     1    35    2
     5     2     3   ar
     6     2    10   ar
     7     3     4   ar
     8     4     5   ar
     9     4     8   ar
    10     5     6   ar
    11     5    25   ar
    12     6     7   ar
    13     6    11   ar
    14     7     8   ar
    15     8     9   ar
    16     9    10   ar
    17    11    12   ar
    18    12    13   ar
    19    13    14    1
    20    13    25   ar
    21    14    15    1
    22    14    23    2
    23    14    24    2
    24    15    16    1
    25    16    17   ar
    26    16    21   ar
    27    17    18   ar
    28    18    19   ar
    29    19    20   ar
    30    19    22    1
    31    20    21   ar
    32    26    27    1
    33    27    28   ar
    34    27    32   ar
    35    28    29   ar
    36    29    30   ar
    37    30    31   ar
    38    30    33    1
    39    31    32   ar
