@<TRIPOS>MOLECULE
29583_ChemDiv_8015-7498
 27 31 0 0 0
SMALL
GASTEIGER
Energy = 0

@<TRIPOS>ATOM
      1 S           0.3040    0.5710    0.0000 S.O2    1  LIG1       -0.0578
      2 C          -0.5540    0.0710    0.0000 C.ar    1  LIG1        0.0895
      3 C          -1.4170    0.5710    0.0000 C.ar    1  LIG1        0.0200
      4 C          -2.2790    0.0710    0.0000 C.ar    1  LIG1        0.0387
      5 C          -2.2790   -0.9290    0.0000 C.ar    1  LIG1        0.1454
      6 O          -3.0830   -1.3630    0.0000 O.2     1  LIG1       -0.4535
      7 C          -3.8920   -0.8920    0.0000 C.ar    1  LIG1        0.1453
      8 C          -3.8920    0.0330    0.0000 C.ar    1  LIG1        0.0375
      9 C          -4.7000    0.5000    0.0000 C.ar    1  LIG1        0.0031
     10 C          -5.5040    0.0330    0.0000 C.ar    1  LIG1        0.0002
     11 C          -5.5040   -0.8920    0.0000 C.ar    1  LIG1        0.0031
     12 C          -4.7000   -1.3630    0.0000 C.ar    1  LIG1        0.0375
     13 C          -1.4170   -1.4290    0.0000 C.ar    1  LIG1        0.0388
     14 C          -0.5540   -0.9290    0.0000 C.ar    1  LIG1        0.0200
     15 N           1.1670    1.0710    0.0000 N.pl3   1  LIG1       -0.5358
     16 C           2.0380    0.5710    0.0000 C.ar    1  LIG1       -0.1122
     17 C           2.9000    1.0710    0.0000 C.ar    1  LIG1       -0.0223
     18 C           3.7630    0.5710    0.0000 C.ar    1  LIG1        0.0159
     19 C           3.7630   -0.4290    0.0000 C.ar    1  LIG1        0.0812
     20 N           4.6290   -0.9290    0.0000 N.ar    1  LIG1       -0.2438
     21 C           5.4920   -0.4290    0.0000 C.ar    1  LIG1        0.0988
     22 C           5.5000    0.5710    0.0000 C.ar    1  LIG1        0.0207
     23 C           4.6290    1.0710    0.0000 C.ar    1  LIG1        0.0030
     24 C           2.9000   -0.9290    0.0000 C.ar    1  LIG1        0.0172
     25 C           2.0380   -0.4290    0.0000 C.ar    1  LIG1       -0.0223
     26 O          -0.1920    1.4330    0.0000 O.2     1  LIG1       -0.1842
     27 O           0.8040   -0.2920    0.0000 O.2     1  LIG1       -0.1842
@<TRIPOS>BOND
     1     1     2    1
     2     1    15    1
     3     1    26    2
     4     1    27    2
     5     2     3   ar
     6     2    14   ar
     7     3     4   ar
     8     4     5   ar
     9     4     8   ar
    10     5     6   ar
    11     5    13   ar
    12     6     7   ar
    13     7     8   ar
    14     7    12   ar
    15     8     9   ar
    16     9    10   ar
    17    10    11   ar
    18    11    12   ar
    19    13    14   ar
    20    15    16    1
    21    16    17   ar
    22    16    25   ar
    23    17    18   ar
    24    18    19   ar
    25    18    23   ar
    26    19    20   ar
    27    19    24   ar
    28    20    21   ar
    29    21    22   ar
    30    22    23   ar
    31    24    25   ar
