@<TRIPOS>MOLECULE
29597_ChemDiv_5593-1348
 19 21 0 0 0
SMALL
GASTEIGER
Energy = 0

@<TRIPOS>ATOM
      1 N          -3.1460    0.5210    0.0000 N.am    1  LIG1       -0.2231
      2 C          -2.5540   -0.2830    0.0000 C.2     1  LIG1        0.2890
      3 C          -1.6000    0.0330    0.0000 C.3     1  LIG1        0.2307
      4 C          -1.6170    1.0330    0.0000 C.3     1  LIG1        0.1578
      5 C          -2.5710    1.3330    0.0000 C.2     1  LIG1        0.2382
      6 O          -2.8880    2.2880    0.0000 O.2     1  LIG1       -0.2742
      7 N          -0.7880   -0.5460    0.0000 N.4     1  LIG1        0.4547
      8 C           0.1210   -0.1210    0.0000 C.3     1  LIG1        0.2289
      9 C           0.9250   -0.7210    0.0000 C.ar    1  LIG1        0.0435
     10 C           1.8380   -0.2880    0.0000 C.ar    1  LIG1        0.0418
     11 C           2.6420   -0.8630    0.0000 C.ar    1  LIG1        0.1763
     12 C           2.5670   -1.8630    0.0000 C.ar    1  LIG1        0.1764
     13 O           3.4710   -2.2580    0.0000 O.3     1  LIG1       -0.4346
     14 C           4.1420   -1.5170    0.0000 C.3     1  LIG1        0.4294
     15 O           3.6210   -0.6500    0.0000 O.3     1  LIG1       -0.4346
     16 C           1.6500   -2.2830    0.0000 C.ar    1  LIG1        0.0401
     17 C           0.8250   -1.6920    0.0000 C.ar    1  LIG1        0.0050
     18 O          -2.8500   -1.2290    0.0000 O.2     1  LIG1       -0.2681
     19 C          -4.1460    0.5000    0.0000 C.3     1  LIG1        0.1230
@<TRIPOS>BOND
     1     1     2   am
     2     1     5   am
     3     1    19    1
     4     2     3    1
     5     2    18    2
     6     3     4    1
     7     3     7    1
     8     4     5    1
     9     5     6    2
    10     7     8    1
    11     8     9    1
    12     9    10   ar
    13     9    17   ar
    14    10    11   ar
    15    11    12   ar
    16    11    15    1
    17    12    13    1
    18    12    16   ar
    19    13    14    1
    20    14    15    1
    21    16    17   ar
