@<TRIPOS>MOLECULE
29599_ChemDiv_6186-3358
 30 34 0 0 0
SMALL
GASTEIGER
Energy = 0

@<TRIPOS>ATOM
      1 N          -1.0790    2.5500    0.0000 N.am    1  LIG1       -0.2207
      2 C          -1.9830    2.9040    0.0000 C.2     1  LIG1        0.2317
      3 C          -1.9580    3.8000    0.0000 C.3     1  LIG1        0.0857
      4 C          -1.0210    4.0750    0.0000 C.3     1  LIG1        0.0857
      5 C          -0.4960    3.3830    0.0000 C.2     1  LIG1        0.2317
      6 O           0.5880    3.2540    0.0000 O.2     1  LIG1       -0.2745
      7 C          -0.7830    5.1250    0.0000 C.3     1  LIG1        0.0096
      8 C          -1.4380    5.7960    0.0000 C.3     1  LIG1        0.0005
      9 C          -2.4380    5.5330    0.0000 C.3     1  LIG1        0.0005
     10 C          -2.7130    4.6040    0.0000 C.3     1  LIG1        0.0096
     11 O          -2.8170    2.2790    0.0000 O.2     1  LIG1       -0.2745
     12 C          -0.8460    1.6080    0.0000 C.3     1  LIG1        0.1858
     13 C          -1.5130    0.8790    0.0000 C.2     1  LIG1        0.2467
     14 N          -1.2880   -0.0580    0.0000 N.am    1  LIG1       -0.2667
     15 C          -0.3250   -0.3960    0.0000 C.3     1  LIG1        0.1565
     16 C          -0.1580   -1.3710    0.0000 C.3     1  LIG1        0.1610
     17 N          -0.9170   -2.0420    0.0000 N.4     1  LIG1        0.3834
     18 C          -0.7670   -3.0420    0.0000 C.3     1  LIG1        0.1664
     19 C           0.1960   -3.4330    0.0000 C.ar    1  LIG1        0.0376
     20 C           0.2750   -4.4750    0.0000 C.ar    1  LIG1        0.0416
     21 C           1.1710   -4.8580    0.0000 C.ar    1  LIG1        0.1763
     22 C           2.0500   -4.2670    0.0000 C.ar    1  LIG1        0.1764
     23 O           2.8130   -4.8830    0.0000 O.3     1  LIG1       -0.4346
     24 C           2.4920   -5.7790    0.0000 C.3     1  LIG1        0.4294
     25 O           1.4830   -5.7960    0.0000 O.3     1  LIG1       -0.4346
     26 C           1.9460   -3.2920    0.0000 C.ar    1  LIG1        0.0401
     27 C           1.0080   -2.8580    0.0000 C.ar    1  LIG1        0.0048
     28 C          -1.8540   -1.6500    0.0000 C.3     1  LIG1        0.1610
     29 C          -2.0210   -0.6420    0.0000 C.3     1  LIG1        0.1565
     30 O          -2.4790    1.2080    0.0000 O.2     1  LIG1       -0.2730
@<TRIPOS>BOND
     1     1     2   am
     2     1     5   am
     3     1    12    1
     4     2     3    1
     5     2    11    2
     6     3     4    1
     7     3    10    1
     8     4     5    1
     9     4     7    1
    10     5     6    2
    11     7     8    1
    12     8     9    1
    13     9    10    1
    14    12    13    1
    15    13    14   am
    16    13    30    2
    17    14    15    1
    18    14    29    1
    19    15    16    1
    20    16    17    1
    21    17    18    1
    22    17    28    1
    23    18    19    1
    24    19    20   ar
    25    19    27   ar
    26    20    21   ar
    27    21    22   ar
    28    21    25    1
    29    22    23    1
    30    22    26   ar
    31    23    24    1
    32    24    25    1
    33    26    27   ar
    34    28    29    1
