@<TRIPOS>MOLECULE
29605_ChemDiv_8016-2987
 27 30 0 0 0
SMALL
GASTEIGER
Energy = 0

@<TRIPOS>ATOM
      1 S           1.1750   -1.0670    0.0000 S.O2    1  LIG1       -0.0548
      2 C           2.0420   -0.5630    0.0000 C.ar    1  LIG1        0.1261
      3 C           2.9040   -1.0670    0.0000 C.ar    1  LIG1        0.0569
      4 C           3.7670   -0.5630    0.0000 C.ar    1  LIG1        0.1402
      5 C           3.7670    0.4330    0.0000 C.ar    1  LIG1        0.0401
      6 C           2.9040    0.9330    0.0000 C.ar    1  LIG1        0.0413
      7 C           2.0420    0.4380    0.0000 C.ar    1  LIG1        0.1545
      8 O           1.1750    0.9330    0.0000 O.3     1  LIG1       -0.4702
      9 C           1.1750    1.9330    0.0000 C.3     1  LIG1        0.2525
     10 O           4.6380   -1.0670    0.0000 O.3     1  LIG1       -0.4714
     11 C           5.5040   -0.5630    0.0000 C.3     1  LIG1        0.2525
     12 N           0.3040   -1.5540    0.0000 N.pl3   1  LIG1       -0.5356
     13 C          -0.5580   -1.0670    0.0000 C.ar    1  LIG1       -0.1093
     14 C          -1.4210   -1.5540    0.0000 C.ar    1  LIG1        0.0137
     15 C          -2.2830   -1.0670    0.0000 C.ar    1  LIG1        0.1435
     16 O          -3.0960   -1.4920    0.0000 O.2     1  LIG1       -0.4536
     17 C          -3.8960   -1.0290    0.0000 C.ar    1  LIG1        0.1453
     18 C          -3.8960   -0.0960    0.0000 C.ar    1  LIG1        0.0375
     19 C          -2.2830   -0.0880    0.0000 C.ar    1  LIG1        0.0374
     20 C          -1.4210    0.4330    0.0000 C.ar    1  LIG1        0.0013
     21 C          -0.5580   -0.0670    0.0000 C.ar    1  LIG1       -0.0236
     22 C          -4.7080    0.3710    0.0000 C.ar    1  LIG1        0.0031
     23 C          -5.5080   -0.0960    0.0000 C.ar    1  LIG1        0.0002
     24 C          -5.5080   -1.0290    0.0000 C.ar    1  LIG1        0.0031
     25 C          -4.7080   -1.4920    0.0000 C.ar    1  LIG1        0.0375
     26 O           0.6790   -0.2000    0.0000 O.2     1  LIG1       -0.1841
     27 O           1.6790   -1.9290    0.0000 O.2     1  LIG1       -0.1841
@<TRIPOS>BOND
     1     1     2    1
     2     1    12    1
     3     1    26    2
     4     1    27    2
     5     2     3   ar
     6     2     7   ar
     7     3     4   ar
     8     4     5   ar
     9     4    10    1
    10     5     6   ar
    11     6     7   ar
    12     7     8    1
    13     8     9    1
    14    10    11    1
    15    12    13    1
    16    13    14   ar
    17    13    21   ar
    18    14    15   ar
    19    15    16   ar
    20    15    19   ar
    21    16    17   ar
    22    17    18   ar
    23    17    25   ar
    24    18    19   ar
    25    18    22   ar
    26    19    20   ar
    27    20    21   ar
    28    22    23   ar
    29    23    24   ar
    30    24    25   ar
