@<TRIPOS>MOLECULE
29607_ChemDiv_8016-4577
 29 33 0 0 0
SMALL
GASTEIGER
Energy = 0

@<TRIPOS>ATOM
      1 S          -0.2580    0.7130    0.0000 S.O2    1  LIG1       -0.0578
      2 C          -1.2580    0.6080    0.0000 C.ar    1  LIG1        0.0895
      3 C          -1.8330    1.4210    0.0000 C.ar    1  LIG1        0.0200
      4 C          -2.8210    1.3250    0.0000 C.ar    1  LIG1        0.0387
      5 C          -3.2380    0.4080    0.0000 C.ar    1  LIG1        0.1454
      6 O          -4.2330    0.5210    0.0000 O.2     1  LIG1       -0.4535
      7 C          -4.4330    1.5080    0.0000 C.ar    1  LIG1        0.1453
      8 C          -3.5580    1.9960    0.0000 C.ar    1  LIG1        0.0375
      9 C          -3.5460    2.9960    0.0000 C.ar    1  LIG1        0.0031
     10 C          -4.4130    3.5080    0.0000 C.ar    1  LIG1        0.0002
     11 C          -5.2880    3.0170    0.0000 C.ar    1  LIG1        0.0031
     12 C          -5.2960    2.0210    0.0000 C.ar    1  LIG1        0.0375
     13 C          -2.6460   -0.4040    0.0000 C.ar    1  LIG1        0.0388
     14 C          -1.6500   -0.3000    0.0000 C.ar    1  LIG1        0.0200
     15 N           0.7420    0.7330    0.0000 N.pl3   1  LIG1       -0.5358
     16 C           1.2540   -0.1250    0.0000 C.ar    1  LIG1       -0.1107
     17 C           2.2500   -0.0920    0.0000 C.ar    1  LIG1       -0.0032
     18 C           2.7670   -0.9420    0.0000 C.ar    1  LIG1        0.0967
     19 N           3.7670   -0.9170    0.0000 N.ar    1  LIG1       -0.2470
     20 C           4.2920   -1.7670    0.0000 C.ar    1  LIG1        0.0728
     21 C           3.8130   -2.6500    0.0000 C.ar    1  LIG1        0.0728
     22 N           2.8130   -2.6790    0.0000 N.ar    1  LIG1       -0.2470
     23 C           2.2880   -1.8250    0.0000 C.ar    1  LIG1        0.0984
     24 C           1.2880   -1.8500    0.0000 C.ar    1  LIG1        0.0188
     25 C           0.7670   -0.9920    0.0000 C.ar    1  LIG1       -0.0222
     26 C           4.3290   -3.5040    0.0000 C.3     1  LIG1        0.0534
     27 C           5.2920   -1.7380    0.0000 C.3     1  LIG1        0.0534
     28 O          -0.2500   -0.2500    0.0000 O.2     1  LIG1       -0.1842
     29 O          -0.2960    1.7460    0.0000 O.2     1  LIG1       -0.1842
@<TRIPOS>BOND
     1     1     2    1
     2     1    15    1
     3     1    28    2
     4     1    29    2
     5     2     3   ar
     6     2    14   ar
     7     3     4   ar
     8     4     5   ar
     9     4     8   ar
    10     5     6   ar
    11     5    13   ar
    12     6     7   ar
    13     7     8   ar
    14     7    12   ar
    15     8     9   ar
    16     9    10   ar
    17    10    11   ar
    18    11    12   ar
    19    13    14   ar
    20    15    16    1
    21    16    17   ar
    22    16    25   ar
    23    17    18   ar
    24    18    19   ar
    25    18    23   ar
    26    19    20   ar
    27    20    21   ar
    28    20    27    1
    29    21    22   ar
    30    21    26    1
    31    22    23   ar
    32    23    24   ar
    33    24    25   ar
