@<TRIPOS>MOLECULE
29601_ChemDiv_8016-2821
 31 34 0 0 0
SMALL
GASTEIGER
Energy = 0

@<TRIPOS>ATOM
      1 S           0.7670    0.8920    0.0000 S.O2    1  LIG1       -0.0577
      2 N           0.5040    1.8540    0.0000 N.pl3   1  LIG1       -0.5334
      3 C          -0.4580    2.1130    0.0000 C.ar    1  LIG1       -0.0744
      4 C          -1.0960    1.3380    0.0000 C.ar    1  LIG1        0.0166
      5 C          -2.0830    1.5130    0.0000 C.ar    1  LIG1        0.1437
      6 C          -2.4250    2.4420    0.0000 C.ar    1  LIG1        0.0404
      7 C          -3.4250    2.4000    0.0000 C.ar    1  LIG1        0.0376
      8 C          -3.6960    1.4380    0.0000 C.ar    1  LIG1        0.1453
      9 O          -2.8580    0.8710    0.0000 O.2     1  LIG1       -0.4536
     10 C          -4.6710    1.1790    0.0000 C.ar    1  LIG1        0.0375
     11 C          -5.3710    1.8880    0.0000 C.ar    1  LIG1        0.0031
     12 C          -5.1000    2.8630    0.0000 C.ar    1  LIG1        0.0002
     13 C          -4.1330    3.1080    0.0000 C.ar    1  LIG1        0.0031
     14 C          -1.7960    3.2130    0.0000 C.ar    1  LIG1        0.0381
     15 C          -0.8080    3.0500    0.0000 C.ar    1  LIG1        0.1169
     16 O          -0.1750    3.8250    0.0000 O.3     1  LIG1       -0.4733
     17 C          -0.5290    4.7420    0.0000 C.3     1  LIG1        0.2524
     18 C           1.1670   -0.0040    0.0000 C.ar    1  LIG1        0.0893
     19 C           2.1540   -0.1130    0.0000 C.ar    1  LIG1        0.0166
     20 C           2.5460   -1.0040    0.0000 C.ar    1  LIG1       -0.0029
     21 C           1.9710   -1.8000    0.0000 C.ar    1  LIG1       -0.0203
     22 C           0.9960   -1.7000    0.0000 C.ar    1  LIG1       -0.0029
     23 C           0.5920   -0.8040    0.0000 C.ar    1  LIG1        0.0166
     24 C           2.3790   -2.7170    0.0000 C.3     1  LIG1        0.0498
     25 C           3.3710   -2.8170    0.0000 C.3     1  LIG1        0.1198
     26 N           3.7790   -3.7290    0.0000 N.am    1  LIG1       -0.2051
     27 C           4.7710   -3.8290    0.0000 C.2     1  LIG1        0.2419
     28 O           5.3670   -3.0250    0.0000 O.2     1  LIG1       -0.2733
     29 C           5.1830   -4.7420    0.0000 C.3     1  LIG1        0.0964
     30 O          -0.2670    0.4130    0.0000 O.2     1  LIG1       -0.1842
     31 O           1.6670    1.2830    0.0000 O.2     1  LIG1       -0.1842
@<TRIPOS>BOND
     1     1     2    1
     2     1    18    1
     3     1    30    2
     4     1    31    2
     5     2     3    1
     6     3     4   ar
     7     3    15   ar
     8     4     5   ar
     9     5     6   ar
    10     5     9   ar
    11     6     7   ar
    12     6    14   ar
    13     7     8   ar
    14     7    13   ar
    15     8     9   ar
    16     8    10   ar
    17    10    11   ar
    18    11    12   ar
    19    12    13   ar
    20    14    15   ar
    21    15    16    1
    22    16    17    1
    23    18    19   ar
    24    18    23   ar
    25    19    20   ar
    26    20    21   ar
    27    21    22   ar
    28    21    24    1
    29    22    23   ar
    30    24    25    1
    31    25    26    1
    32    26    27   am
    33    27    28    2
    34    27    29    1
