@<TRIPOS>MOLECULE
29606_ChemDiv_3486-0494
 26 29 0 0 0
SMALL
GASTEIGER
Energy = 0

@<TRIPOS>ATOM
      1 C           0.8500   -0.2460    0.0000 C.ar    1  LIG1        0.0897
      2 C           0.8380   -1.2040    0.0000 C.ar    1  LIG1        0.1657
      3 N           0.0040   -1.7040    0.0000 N.ar    1  LIG1       -0.2293
      4 N          -0.8420   -1.2040    0.0000 N.ar    1  LIG1       -0.1660
      5 C          -0.8420   -0.2290    0.0000 C.ar    1  LIG1        0.1261
      6 C           0.0040   -2.6790    0.0000 C.3     1  LIG1        0.1554
      7 C          -0.8420   -3.1750    0.0000 C.ar    1  LIG1        0.0022
      8 C          -1.6880   -2.6790    0.0000 C.ar    1  LIG1       -0.0023
      9 C          -2.5330   -3.1750    0.0000 C.ar    1  LIG1       -0.0003
     10 C          -2.5330   -4.1500    0.0000 C.ar    1  LIG1       -0.0000
     11 C          -1.6710   -4.6330    0.0000 C.ar    1  LIG1       -0.0003
     12 C          -0.8420   -4.1330    0.0000 C.ar    1  LIG1       -0.0023
     13 N           1.6830   -1.7040    0.0000 N.ar    1  LIG1       -0.2050
     14 C           2.5290   -1.2210    0.0000 C.ar    1  LIG1        0.2015
     15 N           2.5290   -0.2460    0.0000 N.ar    1  LIG1       -0.2071
     16 C           1.6830    0.2420    0.0000 C.ar    1  LIG1        0.1580
     17 N           1.6830    1.2210    0.0000 N.pl3   1  LIG1       -0.1940
     18 C           0.8380    1.7080    0.0000 C.ar    1  LIG1        0.0722
     19 C           0.8500    2.6830    0.0000 C.ar    1  LIG1        0.0177
     20 C           0.0040    3.1710    0.0000 C.ar    1  LIG1        0.0153
     21 C           0.0040    4.1460    0.0000 C.2     1  LIG1        0.0729
     22 O           0.8500    4.6330    0.0000 O.co2   1  LIG1       -0.5446
     23 O          -0.8420    4.6330    0.0000 O.co2   1  LIG1       -0.5446
     24 C          -0.8420    2.6830    0.0000 C.ar    1  LIG1        0.0012
     25 C          -0.8420    1.7080    0.0000 C.ar    1  LIG1        0.0014
     26 C           0.0040    1.2210    0.0000 C.ar    1  LIG1        0.0166
@<TRIPOS>BOND
     1     1     2   ar
     2     1     5   ar
     3     1    16   ar
     4     2     3   ar
     5     2    13   ar
     6     3     4   ar
     7     3     6    1
     8     4     5   ar
     9     6     7    1
    10     7     8   ar
    11     7    12   ar
    12     8     9   ar
    13     9    10   ar
    14    10    11   ar
    15    11    12   ar
    16    13    14   ar
    17    14    15   ar
    18    15    16   ar
    19    16    17    1
    20    17    18    1
    21    18    19   ar
    22    18    26   ar
    23    19    20   ar
    24    20    21    1
    25    20    24   ar
    26    21    22   ar
    27    21    23   ar
    28    24    25   ar
    29    25    26   ar
