@<TRIPOS>MOLECULE
29609_ChemDiv_8017-4546
 26 29 0 0 0
SMALL
GASTEIGER
Energy = 0

@<TRIPOS>ATOM
      1 S           1.0290   -2.0540    0.0000 S.O2    1  LIG1       -0.0578
      2 C           1.8540   -1.4790    0.0000 C.ar    1  LIG1        0.0895
      3 C           1.7670   -0.4790    0.0000 C.ar    1  LIG1        0.0200
      4 C           2.5880    0.0880    0.0000 C.ar    1  LIG1        0.0387
      5 C           3.4920   -0.3380    0.0000 C.ar    1  LIG1        0.1454
      6 O           4.1670    0.3830    0.0000 O.2     1  LIG1       -0.4535
      7 C           3.6920    1.2540    0.0000 C.ar    1  LIG1        0.1453
      8 C           2.7170    1.0750    0.0000 C.ar    1  LIG1        0.0375
      9 C           2.0670    1.8290    0.0000 C.ar    1  LIG1        0.0031
     10 C           2.3920    2.7670    0.0000 C.ar    1  LIG1        0.0002
     11 C           3.3750    2.9540    0.0000 C.ar    1  LIG1        0.0031
     12 C           4.0250    2.2000    0.0000 C.ar    1  LIG1        0.0375
     13 C           3.5790   -1.3380    0.0000 C.ar    1  LIG1        0.0388
     14 C           2.7540   -1.9040    0.0000 C.ar    1  LIG1        0.0200
     15 N           0.1710   -2.5540    0.0000 N.pl3   1  LIG1       -0.5358
     16 C          -0.6960   -2.0540    0.0000 C.ar    1  LIG1       -0.1122
     17 C          -0.7040   -1.0420    0.0000 C.ar    1  LIG1       -0.0226
     18 C          -1.5710   -0.5500    0.0000 C.ar    1  LIG1        0.0127
     19 C          -2.4420   -1.0500    0.0000 C.ar    1  LIG1        0.0478
     20 N          -3.3040   -0.5500    0.0000 N.pl3   1  LIG1       -0.3041
     21 C          -4.1710   -1.0500    0.0000 C.3     1  LIG1        0.1122
     22 C          -3.3040    0.4580    0.0000 C.3     1  LIG1        0.1122
     23 C          -2.4420   -2.0540    0.0000 C.ar    1  LIG1        0.0127
     24 C          -1.5670   -2.5540    0.0000 C.ar    1  LIG1       -0.0226
     25 O           0.5630   -1.2170    0.0000 O.2     1  LIG1       -0.1842
     26 O           1.5670   -2.9500    0.0000 O.2     1  LIG1       -0.1842
@<TRIPOS>BOND
     1     1     2    1
     2     1    15    1
     3     1    25    2
     4     1    26    2
     5     2     3   ar
     6     2    14   ar
     7     3     4   ar
     8     4     5   ar
     9     4     8   ar
    10     5     6   ar
    11     5    13   ar
    12     6     7   ar
    13     7     8   ar
    14     7    12   ar
    15     8     9   ar
    16     9    10   ar
    17    10    11   ar
    18    11    12   ar
    19    13    14   ar
    20    15    16    1
    21    16    17   ar
    22    16    24   ar
    23    17    18   ar
    24    18    19   ar
    25    19    20    1
    26    19    23   ar
    27    20    21    1
    28    20    22    1
    29    23    24   ar
