@<TRIPOS>MOLECULE
29616_ChemDiv_3497-0035
 20 22 0 0 0
SMALL
GASTEIGER
Energy = 0

@<TRIPOS>ATOM
      1 N          -0.0130    0.7380    0.0000 N.ar    1  LIG1       -0.2803
      2 C          -0.0130    1.7380    0.0000 C.ar    1  LIG1        0.1858
      3 N          -0.8750    2.2500    0.0000 N.ar    1  LIG1       -0.2216
      4 C          -1.7380    1.7380    0.0000 C.ar    1  LIG1        0.0853
      5 C          -1.7380    0.7380    0.0000 C.ar    1  LIG1        0.0406
      6 C          -0.8750    0.2330    0.0000 C.ar    1  LIG1        0.1032
      7 S          -0.8750   -0.7630    0.0000 S.2     1  LIG1       -0.0314
      8 C          -2.6000    0.2330    0.0000 C.ar    1  LIG1        0.0035
      9 C          -3.4630    0.7380    0.0000 C.ar    1  LIG1        0.0002
     10 C          -3.4630    1.7380    0.0000 C.ar    1  LIG1        0.0015
     11 C          -2.6000    2.2500    0.0000 C.ar    1  LIG1        0.0192
     12 S           0.8540    2.2170    0.0000 S.2     1  LIG1       -0.0106
     13 C           0.8420    0.2330    0.0000 C.ar    1  LIG1        0.0665
     14 C           1.7250    0.7380    0.0000 C.ar    1  LIG1        0.0207
     15 C           2.5830    0.2330    0.0000 C.ar    1  LIG1        0.0384
     16 C           2.5830   -0.7630    0.0000 C.ar    1  LIG1        0.1388
     17 C           1.7250   -1.2670    0.0000 C.ar    1  LIG1        0.0384
     18 C           0.8420   -0.7630    0.0000 C.ar    1  LIG1        0.0207
     19 O           3.4500   -1.2500    0.0000 O.3     1  LIG1       -0.4714
     20 C           3.4580   -2.2460    0.0000 C.3     1  LIG1        0.2525
@<TRIPOS>BOND
     1     1     2   ar
     2     1     6   ar
     3     1    13    1
     4     2     3   ar
     5     2    12    2
     6     3     4   ar
     7     4     5   ar
     8     4    11   ar
     9     5     6   ar
    10     5     8   ar
    11     6     7    2
    12     8     9   ar
    13     9    10   ar
    14    10    11   ar
    15    13    14   ar
    16    13    18   ar
    17    14    15   ar
    18    15    16   ar
    19    16    17   ar
    20    16    19    1
    21    17    18   ar
    22    19    20    1
