@<TRIPOS>MOLECULE
29612_ChemDiv_3494-0114
 24 27 0 0 0
SMALL
GASTEIGER
Energy = 0

@<TRIPOS>ATOM
      1 C          -0.0960    0.1580    0.0000 C.ar    1  LIG1        0.0093
      2 C           0.7670   -0.3540    0.0000 C.ar    1  LIG1        0.0761
      3 C           0.7670   -1.3540    0.0000 C.ar    1  LIG1        0.3457
      4 O          -0.0960   -1.8380    0.0000 O.2     1  LIG1       -0.4205
      5 C          -0.9630   -1.3540    0.0000 C.ar    1  LIG1        0.1546
      6 C          -0.9630   -0.3540    0.0000 C.ar    1  LIG1        0.0383
      7 C          -1.8290   -1.8670    0.0000 C.ar    1  LIG1        0.0641
      8 S          -1.8290   -2.8670    0.0000 S.2     1  LIG1       -0.0834
      9 C          -2.7790   -3.1580    0.0000 C.ar    1  LIG1        0.0355
     10 C          -3.3630   -2.3500    0.0000 C.ar    1  LIG1        0.0076
     11 C          -2.7790   -1.5380    0.0000 C.ar    1  LIG1        0.0101
     12 O           1.6290   -1.8670    0.0000 O.2     1  LIG1       -0.2445
     13 C           1.6290    0.1580    0.0000 C.ar    1  LIG1        0.0062
     14 C           1.6290    1.1630    0.0000 C.ar    1  LIG1        0.0002
     15 C           2.4920    1.6710    0.0000 C.ar    1  LIG1        0.0000
     16 C           3.3580    1.1630    0.0000 C.ar    1  LIG1        0.0000
     17 C           3.3580    0.1580    0.0000 C.ar    1  LIG1        0.0000
     18 C           2.4920   -0.3250    0.0000 C.ar    1  LIG1        0.0002
     19 C          -0.0960    1.1630    0.0000 C.ar    1  LIG1        0.0003
     20 C           0.7670    1.6460    0.0000 C.ar    1  LIG1        0.0000
     21 C           0.7670    2.6670    0.0000 C.ar    1  LIG1        0.0000
     22 C          -0.0960    3.1630    0.0000 C.ar    1  LIG1        0.0000
     23 C          -0.9630    2.6670    0.0000 C.ar    1  LIG1        0.0000
     24 C          -0.9630    1.6710    0.0000 C.ar    1  LIG1        0.0000
@<TRIPOS>BOND
     1     1     2   ar
     2     1     6   ar
     3     1    19    1
     4     2     3   ar
     5     2    13    1
     6     3     4   ar
     7     3    12    2
     8     4     5   ar
     9     5     6   ar
    10     5     7    1
    11     7     8   ar
    12     7    11   ar
    13     8     9   ar
    14     9    10   ar
    15    10    11   ar
    16    13    14   ar
    17    13    18   ar
    18    14    15   ar
    19    15    16   ar
    20    16    17   ar
    21    17    18   ar
    22    19    20   ar
    23    19    24   ar
    24    20    21   ar
    25    21    22   ar
    26    22    23   ar
    27    23    24   ar
