@<TRIPOS>MOLECULE
29615_ChemDiv_3448-1215
 22 24 0 0 0
SMALL
GASTEIGER
Energy = 0

@<TRIPOS>ATOM
      1 C           0.3540   -0.4830    0.0000 C.ar    1  LIG1        0.2597
      2 N           0.3540    0.5000    0.0000 N.ar    1  LIG1       -0.2006
      3 C          -1.3000    0.5000    0.0000 C.ar    1  LIG1        0.1656
      4 N          -1.3000   -0.4830    0.0000 N.ar    1  LIG1       -0.2106
      5 N          -0.4710   -0.9580    0.0000 N.ar    1  LIG1       -0.1374
      6 C          -2.1670   -0.9580    0.0000 C.ar    1  LIG1        0.0845
      7 C          -2.9790   -0.4830    0.0000 C.ar    1  LIG1        0.0192
      8 C          -3.8330   -0.9580    0.0000 C.ar    1  LIG1        0.0015
      9 C          -3.8330   -1.9250    0.0000 C.ar    1  LIG1        0.0001
     10 C          -2.9790   -2.4000    0.0000 C.ar    1  LIG1        0.0015
     11 C          -2.1670   -1.9250    0.0000 C.ar    1  LIG1        0.0192
     12 C          -2.1670    0.9830    0.0000 C.ar    1  LIG1        0.0359
     13 C          -2.9790    0.5000    0.0000 C.ar    1  LIG1        0.0030
     14 C          -3.8330    0.9830    0.0000 C.ar    1  LIG1        0.0001
     15 C          -3.8330    1.9130    0.0000 C.ar    1  LIG1        0.0000
     16 C          -2.9790    2.4040    0.0000 C.ar    1  LIG1        0.0001
     17 C          -2.1670    1.9130    0.0000 C.ar    1  LIG1        0.0030
     18 C           1.2210   -0.9750    0.0000 C.2     1  LIG1        0.3794
     19 O           1.2210   -1.9460    0.0000 O.2     1  LIG1       -0.2414
     20 O           2.1040   -0.4920    0.0000 O.3     1  LIG1       -0.4433
     21 C           2.9580   -1.0250    0.0000 C.3     1  LIG1        0.2090
     22 C           3.8290   -0.5080    0.0000 C.3     1  LIG1        0.0513
@<TRIPOS>BOND
     1     1     2   ar
     2     1     5   ar
     3     1    18    1
     4     2     3   ar
     5     3     4   ar
     6     3    12    1
     7     4     5   ar
     8     4     6    1
     9     6     7   ar
    10     6    11   ar
    11     7     8   ar
    12     8     9   ar
    13     9    10   ar
    14    10    11   ar
    15    12    13   ar
    16    12    17   ar
    17    13    14   ar
    18    14    15   ar
    19    15    16   ar
    20    16    17   ar
    21    18    19    2
    22    18    20    1
    23    20    21    1
    24    21    22    1
