@<TRIPOS>MOLECULE
29614_ChemDiv_3497-0009
 27 29 0 0 0
SMALL
GASTEIGER
Energy = 0

@<TRIPOS>ATOM
      1 N          -0.0130   -0.5130    0.0000 N.ar    1  LIG1       -0.2809
      2 C          -0.0130    0.4960    0.0000 C.ar    1  LIG1        0.1757
      3 N          -0.8750    1.0040    0.0000 N.ar    1  LIG1       -0.2222
      4 C          -1.7420    0.4960    0.0000 C.ar    1  LIG1        0.0853
      5 C          -1.7420   -0.5130    0.0000 C.ar    1  LIG1        0.0406
      6 C          -0.8750   -1.0130    0.0000 C.ar    1  LIG1        0.1032
      7 S          -0.8750   -2.0130    0.0000 S.2     1  LIG1       -0.0314
      8 C          -2.6040   -1.0130    0.0000 C.ar    1  LIG1        0.0035
      9 C          -3.4630   -0.5130    0.0000 C.ar    1  LIG1        0.0002
     10 C          -3.4630    0.4960    0.0000 C.ar    1  LIG1        0.0015
     11 C          -2.6040    1.0040    0.0000 C.ar    1  LIG1        0.0192
     12 S           0.8630    1.0040    0.0000 S.3     1  LIG1       -0.0707
     13 C           1.7250    0.4960    0.0000 C.3     1  LIG1        0.1276
     14 C           2.5830    0.9790    0.0000 C.3     1  LIG1        0.1509
     15 N           2.5830    1.9830    0.0000 N.4     1  LIG1        0.3779
     16 C           1.7210    2.4330    0.0000 C.3     1  LIG1        0.1388
     17 C           0.8750    1.8960    0.0000 C.3     1  LIG1        0.0688
     18 C           3.4580    2.4830    0.0000 C.3     1  LIG1        0.1388
     19 C           3.4580    3.4880    0.0000 C.3     1  LIG1        0.0688
     20 C           0.8460   -1.0130    0.0000 C.ar    1  LIG1        0.0665
     21 C           0.8460   -2.0130    0.0000 C.ar    1  LIG1        0.0207
     22 C           1.7250   -2.5210    0.0000 C.ar    1  LIG1        0.0384
     23 C           2.5830   -2.0130    0.0000 C.ar    1  LIG1        0.1388
     24 C           2.5830   -1.0130    0.0000 C.ar    1  LIG1        0.0384
     25 C           1.7250   -0.5130    0.0000 C.ar    1  LIG1        0.0207
     26 O           3.4500   -2.4960    0.0000 O.3     1  LIG1       -0.4714
     27 C           3.4500   -3.4830    0.0000 C.3     1  LIG1        0.2525
@<TRIPOS>BOND
     1     1     2   ar
     2     1     6   ar
     3     1    20    1
     4     2     3   ar
     5     2    12    1
     6     3     4   ar
     7     4     5   ar
     8     4    11   ar
     9     5     6   ar
    10     5     8   ar
    11     6     7    2
    12     8     9   ar
    13     9    10   ar
    14    10    11   ar
    15    12    13    1
    16    13    14    1
    17    14    15    1
    18    15    16    1
    19    15    18    1
    20    16    17    1
    21    18    19    1
    22    20    21   ar
    23    20    25   ar
    24    21    22   ar
    25    22    23   ar
    26    23    24   ar
    27    23    26    1
    28    24    25   ar
    29    26    27    1
