@<TRIPOS>MOLECULE
29619_ChemDiv_C082-0458
 27 31 0 0 0
SMALL
GASTEIGER
Energy = 0

@<TRIPOS>ATOM
      1 N           0.9880    1.9920    0.0000 N.am    1  LIG1       -0.2206
      2 C           1.0920    2.9960    0.0000 C.2     1  LIG1        0.2321
      3 C           2.0750    3.2080    0.0000 C.3     1  LIG1        0.0900
      4 C           2.5790    2.3290    0.0000 C.3     1  LIG1        0.0900
      5 C           1.9080    1.5750    0.0000 C.2     1  LIG1        0.2321
      6 O           2.1210    0.5960    0.0000 O.2     1  LIG1       -0.2744
      7 C           3.5880    2.3290    0.0000 C.3     1  LIG1        0.0308
      8 C           4.1040    3.2080    0.0000 C.2     1  LIG1       -0.0305
      9 C           3.5920    4.0830    0.0000 C.2     1  LIG1       -0.0305
     10 C           2.5750    4.0670    0.0000 C.3     1  LIG1        0.0308
     11 C           2.5880    3.0710    0.0000 C.3     1  LIG1        0.0052
     12 C           3.5040    3.2540    0.0000 C.3     1  LIG1        0.0052
     13 O           0.3330    3.6790    0.0000 O.2     1  LIG1       -0.2744
     14 C           0.1130    1.4920    0.0000 C.3     1  LIG1        0.1874
     15 C           0.1080    0.5040    0.0000 C.2     1  LIG1        0.2624
     16 N          -0.7670    0.0040    0.0000 N.am    1  LIG1       -0.1991
     17 C          -0.7670   -1.0080    0.0000 C.3     1  LIG1        0.1416
     18 C          -1.6420   -1.5080    0.0000 C.ar    1  LIG1        0.0027
     19 C          -1.6420   -2.5080    0.0000 C.ar    1  LIG1        0.0376
     20 C          -2.5040   -3.0080    0.0000 C.ar    1  LIG1        0.1762
     21 C          -3.3630   -2.5040    0.0000 C.ar    1  LIG1        0.1764
     22 O          -4.1080   -3.1750    0.0000 O.3     1  LIG1       -0.4346
     23 C          -3.7130   -4.0830    0.0000 C.3     1  LIG1        0.4294
     24 O          -2.7130   -3.9920    0.0000 O.3     1  LIG1       -0.4346
     25 C          -3.3630   -1.5040    0.0000 C.ar    1  LIG1        0.0399
     26 C          -2.5040   -1.0080    0.0000 C.ar    1  LIG1        0.0008
     27 O           0.9880    0.0040    0.0000 O.2     1  LIG1       -0.2715
@<TRIPOS>BOND
     1     1     2   am
     2     1     5   am
     3     1    14    1
     4     2     3    1
     5     2    13    2
     6     3     4    1
     7     3    10    1
     8     4     5    1
     9     4     7    1
    10     5     6    2
    11     7     8    1
    12     7    12    1
    13     8     9    2
    14     9    10    1
    15    10    11    1
    16    11    12    1
    17    14    15    1
    18    15    16   am
    19    15    27    2
    20    16    17    1
    21    17    18    1
    22    18    19   ar
    23    18    26   ar
    24    19    20   ar
    25    20    21   ar
    26    20    24    1
    27    21    22    1
    28    21    25   ar
    29    22    23    1
    30    23    24    1
    31    25    26   ar
