@<TRIPOS>MOLECULE
29611_ChemDiv_8017-6267
 31 35 0 0 0
SMALL
GASTEIGER
Energy = 0

@<TRIPOS>ATOM
      1 S           1.4670   -1.4170    0.0000 S.O2    1  LIG1       -0.0578
      2 C           2.4130   -1.1040    0.0000 C.ar    1  LIG1        0.0895
      3 C           2.6000   -0.1210    0.0000 C.ar    1  LIG1        0.0200
      4 C           3.5420    0.2040    0.0000 C.ar    1  LIG1        0.0387
      5 C           4.3000   -0.4460    0.0000 C.ar    1  LIG1        0.1454
      6 O           5.1540    0.0790    0.0000 O.2     1  LIG1       -0.4535
      7 C           4.9170    1.0460    0.0000 C.ar    1  LIG1        0.1453
      8 C           3.9250    1.1290    0.0000 C.ar    1  LIG1        0.0375
      9 C           3.4920    2.0210    0.0000 C.ar    1  LIG1        0.0031
     10 C           4.0540    2.8460    0.0000 C.ar    1  LIG1        0.0002
     11 C           5.0540    2.7710    0.0000 C.ar    1  LIG1        0.0031
     12 C           5.4790    1.8710    0.0000 C.ar    1  LIG1        0.0375
     13 C           4.1130   -1.4290    0.0000 C.ar    1  LIG1        0.0388
     14 C           3.1670   -1.7580    0.0000 C.ar    1  LIG1        0.0200
     15 N           0.6670   -1.5080    0.0000 N.pl3   1  LIG1       -0.5358
     16 C          -0.3330   -1.6130    0.0000 C.ar    1  LIG1       -0.1123
     17 C          -0.7290   -2.5330    0.0000 C.ar    1  LIG1       -0.0241
     18 C          -1.7330   -2.6380    0.0000 C.ar    1  LIG1       -0.0033
     19 C          -2.3210   -1.8250    0.0000 C.ar    1  LIG1        0.0149
     20 C          -3.3130   -1.9330    0.0000 C.3     1  LIG1        0.2302
     21 C          -3.9000   -1.1210    0.0000 C.ar    1  LIG1        0.1554
     22 N          -4.9040   -1.1210    0.0000 N.ar    1  LIG1       -0.3094
     23 C          -5.2040   -0.1710    0.0000 C.ar    1  LIG1        0.0978
     24 C          -4.4040    0.4170    0.0000 C.ar    1  LIG1        0.1189
     25 N          -3.5830   -0.1710    0.0000 N.ar    1  LIG1       -0.2264
     26 C          -5.4830   -1.9330    0.0000 C.3     1  LIG1        0.1318
     27 O          -3.7210   -2.8420    0.0000 O.3     1  LIG1       -0.2101
     28 C          -1.9210   -0.9170    0.0000 C.ar    1  LIG1       -0.0033
     29 C          -0.9250   -0.8040    0.0000 C.ar    1  LIG1       -0.0241
     30 O           1.3540   -0.4130    0.0000 O.2     1  LIG1       -0.1842
     31 O           1.6250   -2.5920    0.0000 O.2     1  LIG1       -0.1842
@<TRIPOS>BOND
     1     1     2    1
     2     1    15    1
     3     1    30    2
     4     1    31    2
     5     2     3   ar
     6     2    14   ar
     7     3     4   ar
     8     4     5   ar
     9     4     8   ar
    10     5     6   ar
    11     5    13   ar
    12     6     7   ar
    13     7     8   ar
    14     7    12   ar
    15     8     9   ar
    16     9    10   ar
    17    10    11   ar
    18    11    12   ar
    19    13    14   ar
    20    15    16    1
    21    16    17   ar
    22    16    29   ar
    23    17    18   ar
    24    18    19   ar
    25    19    20    1
    26    19    28   ar
    27    20    21    1
    28    20    27    1
    29    21    22   ar
    30    21    25   ar
    31    22    23   ar
    32    22    26    1
    33    23    24   ar
    34    24    25   ar
    35    28    29   ar
