@<TRIPOS>MOLECULE
29627_ChemDiv_K786-2046
 22 24 0 0 0
SMALL
GASTEIGER
Energy = 0

@<TRIPOS>ATOM
      1 N          -2.7710   -0.0290    0.0000 N.am    1  LIG1       -0.2746
      2 C          -1.7670   -0.0290    0.0000 C.3     1  LIG1        0.1539
      3 C          -1.1880   -0.8330    0.0000 C.2     1  LIG1        0.2598
      4 N          -0.1830   -0.7380    0.0000 N.am    1  LIG1       -0.1992
      5 C           0.3000    0.1380    0.0000 C.3     1  LIG1        0.1416
      6 C           1.3040    0.1380    0.0000 C.ar    1  LIG1        0.0027
      7 C           1.7880    1.0000    0.0000 C.ar    1  LIG1        0.0376
      8 C           2.7880    1.0170    0.0000 C.ar    1  LIG1        0.1762
      9 C           3.2920    0.1500    0.0000 C.ar    1  LIG1        0.1764
     10 O           4.2630    0.3710    0.0000 O.3     1  LIG1       -0.4346
     11 C           4.3540    1.3670    0.0000 C.3     1  LIG1        0.4294
     12 O           3.4460    1.7630    0.0000 O.3     1  LIG1       -0.4346
     13 C           2.7920   -0.7130    0.0000 C.ar    1  LIG1        0.0399
     14 C           1.8000   -0.7250    0.0000 C.ar    1  LIG1        0.0008
     15 O          -1.5880   -1.7580    0.0000 O.2     1  LIG1       -0.2715
     16 C          -1.4580    0.9250    0.0000 C.3     1  LIG1        0.0388
     17 C          -2.2710    1.5170    0.0000 C.3     1  LIG1        0.0875
     18 C          -3.0830    0.9250    0.0000 C.2     1  LIG1        0.2260
     19 O          -4.0540    1.1880    0.0000 O.2     1  LIG1       -0.2749
     20 C          -3.3630   -0.8330    0.0000 C.3     1  LIG1        0.0758
     21 C          -4.3580   -0.7290    0.0000 C.3     1  LIG1        0.0215
     22 C          -2.9630   -1.7580    0.0000 C.3     1  LIG1        0.0215
@<TRIPOS>BOND
     1     1     2    1
     2     1    18   am
     3     1    20    1
     4     2     3    1
     5     2    16    1
     6     3     4   am
     7     3    15    2
     8     4     5    1
     9     5     6    1
    10     6     7   ar
    11     6    14   ar
    12     7     8   ar
    13     8     9   ar
    14     8    12    1
    15     9    10    1
    16     9    13   ar
    17    10    11    1
    18    11    12    1
    19    13    14   ar
    20    16    17    1
    21    17    18    1
    22    18    19    2
    23    20    21    1
    24    20    22    1
