@<TRIPOS>MOLECULE
29621_ChemDiv_C255-0170
 24 26 0 0 0
SMALL
GASTEIGER
Energy = 0

@<TRIPOS>ATOM
      1 N           0.2670   -0.0630    0.0000 N.am    1  LIG1       -0.2706
      2 C           0.3630    0.9210    0.0000 C.3     1  LIG1        0.1312
      3 C          -0.3670    1.5880    0.0000 C.2     1  LIG1        0.2574
      4 N          -0.1580    2.5670    0.0000 N.am    1  LIG1       -0.2059
      5 C          -0.8960    3.2330    0.0000 C.3     1  LIG1        0.0954
      6 C          -0.6960    4.2000    0.0000 C.3     1  LIG1        0.0217
      7 C           0.2580    4.5130    0.0000 C.3     1  LIG1        0.0018
      8 C          -1.8500    2.9210    0.0000 C.3     1  LIG1        0.0234
      9 O          -1.3170    1.2830    0.0000 O.2     1  LIG1       -0.2716
     10 C           1.3460    1.1290    0.0000 C.3     1  LIG1        0.0367
     11 C           1.8460    0.2670    0.0000 C.3     1  LIG1        0.0874
     12 C           1.1790   -0.4750    0.0000 C.2     1  LIG1        0.2262
     13 O           1.3920   -1.4500    0.0000 O.2     1  LIG1       -0.2749
     14 C           0.9250    1.7540    0.0000 C.3     1  LIG1        0.0293
     15 C          -0.5880   -0.5750    0.0000 C.3     1  LIG1        0.1206
     16 C          -0.5880   -1.4250    0.0000 C.ar    1  LIG1        0.0009
     17 C           0.1960   -1.8960    0.0000 C.ar    1  LIG1        0.0376
     18 C           0.2130   -2.8500    0.0000 C.ar    1  LIG1        0.1762
     19 C          -0.6380   -3.3290    0.0000 C.ar    1  LIG1        0.1764
     20 O          -0.5880   -4.3920    0.0000 O.3     1  LIG1       -0.4346
     21 C           0.6460   -4.5130    0.0000 C.3     1  LIG1        0.4294
     22 O           1.0130   -3.3290    0.0000 O.3     1  LIG1       -0.4346
     23 C          -1.4540   -2.8290    0.0000 C.ar    1  LIG1        0.0399
     24 C          -1.4420   -1.9080    0.0000 C.ar    1  LIG1        0.0007
@<TRIPOS>BOND
     1     1     2    1
     2     1    12   am
     3     1    15    1
     4     2     3    1
     5     2    10    1
     6     2    14    1
     7     3     4   am
     8     3     9    2
     9     4     5    1
    10     5     6    1
    11     5     8    1
    12     6     7    1
    13    10    11    1
    14    11    12    1
    15    12    13    2
    16    15    16    1
    17    16    17   ar
    18    16    24   ar
    19    17    18   ar
    20    18    19   ar
    21    18    22    1
    22    19    20    1
    23    19    23   ar
    24    20    21    1
    25    21    22    1
    26    23    24   ar
