@<TRIPOS>MOLECULE
29626_ChemDiv_5989-3514
 17 18 0 0 0
SMALL
GASTEIGER
Energy = 0

@<TRIPOS>ATOM
      1 N          -0.2960   -0.7130    0.0000 N.ar    1  LIG1       -0.3238
      2 C          -1.1130   -0.0790    0.0000 C.ar    1  LIG1        0.0397
      3 C          -0.8080    0.8630    0.0000 C.ar    1  LIG1        0.0440
      4 C           0.1880    0.8630    0.0000 C.ar    1  LIG1        0.0042
      5 C           0.5000   -0.0790    0.0000 C.ar    1  LIG1        0.1324
      6 C           1.4670   -0.3380    0.0000 C.2     1  LIG1        0.3570
      7 O           2.1830    0.3750    0.0000 O.2     1  LIG1       -0.2433
      8 O           1.6420   -1.2880    0.0000 O.3     1  LIG1       -0.4444
      9 C           2.5790   -1.5960    0.0000 C.3     1  LIG1        0.2089
     10 C           2.7670   -2.5670    0.0000 C.3     1  LIG1        0.0513
     11 C           0.7540    1.6630    0.0000 C.3     1  LIG1        0.0329
     12 C          -1.4540    1.6380    0.0000 C.2     1  LIG1        0.1739
     13 O          -1.1290    2.5710    0.0000 O.2     1  LIG1       -0.2913
     14 C          -2.4500    1.4420    0.0000 C.3     1  LIG1        0.0696
     15 C          -2.7710    0.4750    0.0000 C.3     1  LIG1        0.0143
     16 C          -2.1080   -0.2670    0.0000 C.3     1  LIG1        0.0443
     17 C          -0.2580   -1.7080    0.0000 C.3     1  LIG1        0.1303
@<TRIPOS>BOND
     1     1     2   ar
     2     1     5   ar
     3     1    17    1
     4     2     3   ar
     5     2    16    1
     6     3     4   ar
     7     3    12    1
     8     4     5   ar
     9     4    11    1
    10     5     6    1
    11     6     7    2
    12     6     8    1
    13     8     9    1
    14     9    10    1
    15    12    13    2
    16    12    14    1
    17    14    15    1
    18    15    16    1
