@<TRIPOS>MOLECULE
29625_ChemDiv_K786-1862
 25 28 0 0 0
SMALL
GASTEIGER
Energy = 0

@<TRIPOS>ATOM
      1 N          -1.3790    1.7710    0.0000 N.am    1  LIG1       -0.2706
      2 C          -1.6830    0.8170    0.0000 C.3     1  LIG1        0.1312
      3 C          -2.1960   -0.0460    0.0000 C.2     1  LIG1        0.2574
      4 N          -1.7000   -0.9130    0.0000 N.am    1  LIG1       -0.2059
      5 C          -2.2080   -1.7710    0.0000 C.3     1  LIG1        0.0954
      6 C          -3.2000   -1.8670    0.0000 C.3     1  LIG1        0.0217
      7 C          -3.4210   -2.8460    0.0000 C.3     1  LIG1        0.0018
      8 C          -2.5580   -3.3500    0.0000 C.3     1  LIG1        0.0018
      9 C          -1.8080   -2.6960    0.0000 C.3     1  LIG1        0.0217
     10 O          -3.1960   -0.0380    0.0000 O.2     1  LIG1       -0.2716
     11 C          -2.6830    0.8170    0.0000 C.3     1  LIG1        0.0367
     12 C          -2.9880    1.7710    0.0000 C.3     1  LIG1        0.0874
     13 C          -2.1830    2.3580    0.0000 C.2     1  LIG1        0.2262
     14 O          -2.1830    3.3540    0.0000 O.2     1  LIG1       -0.2749
     15 C          -1.0960    0.0080    0.0000 C.3     1  LIG1        0.0293
     16 C          -0.4250    2.0830    0.0000 C.3     1  LIG1        0.1206
     17 C           0.3170    1.4080    0.0000 C.ar    1  LIG1        0.0009
     18 C           1.2670    1.7210    0.0000 C.ar    1  LIG1        0.0376
     19 C           2.0080    1.0540    0.0000 C.ar    1  LIG1        0.1762
     20 C           1.8000    0.0710    0.0000 C.ar    1  LIG1        0.1764
     21 O           2.6750   -0.4250    0.0000 O.3     1  LIG1       -0.4346
     22 C           3.4170    0.2500    0.0000 C.3     1  LIG1        0.4294
     23 O           3.0000    1.1630    0.0000 O.3     1  LIG1       -0.4346
     24 C           0.8500   -0.2330    0.0000 C.ar    1  LIG1        0.0399
     25 C           0.1080    0.4330    0.0000 C.ar    1  LIG1        0.0007
@<TRIPOS>BOND
     1     1     2    1
     2     1    13   am
     3     1    16    1
     4     2     3    1
     5     2    11    1
     6     2    15    1
     7     3     4   am
     8     3    10    2
     9     4     5    1
    10     5     6    1
    11     5     9    1
    12     6     7    1
    13     7     8    1
    14     8     9    1
    15    11    12    1
    16    12    13    1
    17    13    14    2
    18    16    17    1
    19    17    18   ar
    20    17    25   ar
    21    18    19   ar
    22    19    20   ar
    23    19    23    1
    24    20    21    1
    25    20    24   ar
    26    21    22    1
    27    22    23    1
    28    24    25   ar
