@<TRIPOS>MOLECULE
29629_ChemDiv_K786-9114
 27 30 0 0 0
SMALL
GASTEIGER
Energy = 0

@<TRIPOS>ATOM
      1 N          -2.6290    1.0880    0.0000 N.am    1  LIG1       -0.2688
      2 C          -2.5170    2.0790    0.0000 C.3     1  LIG1        0.1542
      3 C          -1.6420    2.5790    0.0000 C.2     1  LIG1        0.2598
      4 N          -0.7750    2.0750    0.0000 N.am    1  LIG1       -0.1992
      5 C           0.1130    2.5210    0.0000 C.3     1  LIG1        0.1416
      6 C           0.9460    1.9710    0.0000 C.ar    1  LIG1        0.0027
      7 C           1.8290    2.4170    0.0000 C.ar    1  LIG1        0.0376
      8 C           2.6630    1.8670    0.0000 C.ar    1  LIG1        0.1762
      9 C           2.6040    0.8750    0.0000 C.ar    1  LIG1        0.1764
     10 O           3.5290    0.5000    0.0000 O.3     1  LIG1       -0.4346
     11 C           4.1670    1.2750    0.0000 C.3     1  LIG1        0.4294
     12 O           3.6330    2.1210    0.0000 O.3     1  LIG1       -0.4346
     13 C           1.7080    0.4210    0.0000 C.ar    1  LIG1        0.0399
     14 C           0.8710    0.9710    0.0000 C.ar    1  LIG1        0.0008
     15 O          -1.6330    3.5790    0.0000 O.2     1  LIG1       -0.2715
     16 C          -3.4330    2.5000    0.0000 C.3     1  LIG1        0.0388
     17 C          -4.1130    1.7580    0.0000 C.3     1  LIG1        0.0875
     18 C          -3.6170    0.8790    0.0000 C.2     1  LIG1        0.2263
     19 O          -4.1710    0.0460    0.0000 O.2     1  LIG1       -0.2749
     20 C          -1.8920    0.4080    0.0000 C.3     1  LIG1        0.1205
     21 C          -1.9250   -0.5830    0.0000 C.ar    1  LIG1       -0.0023
     22 C          -2.8040   -1.0540    0.0000 C.ar    1  LIG1       -0.0029
     23 C          -2.8380   -2.0500    0.0000 C.ar    1  LIG1       -0.0045
     24 C          -1.9920   -2.5750    0.0000 C.ar    1  LIG1       -0.0219
     25 C          -1.1080   -2.1040    0.0000 C.ar    1  LIG1       -0.0045
     26 C          -1.0880   -1.1080    0.0000 C.ar    1  LIG1       -0.0029
     27 C          -2.0210   -3.5750    0.0000 C.3     1  LIG1        0.0310
@<TRIPOS>BOND
     1     1     2    1
     2     1    18   am
     3     1    20    1
     4     2     3    1
     5     2    16    1
     6     3     4   am
     7     3    15    2
     8     4     5    1
     9     5     6    1
    10     6     7   ar
    11     6    14   ar
    12     7     8   ar
    13     8     9   ar
    14     8    12    1
    15     9    10    1
    16     9    13   ar
    17    10    11    1
    18    11    12    1
    19    13    14   ar
    20    16    17    1
    21    17    18    1
    22    18    19    2
    23    20    21    1
    24    21    22   ar
    25    21    26   ar
    26    22    23   ar
    27    23    24   ar
    28    24    25   ar
    29    24    27    1
    30    25    26   ar
