@<TRIPOS>MOLECULE
29622_ChemDiv_3455-0143
 20 22 0 0 0
SMALL
GASTEIGER
Energy = 0

@<TRIPOS>ATOM
      1 N           0.0210   -0.0040    0.0000 N.am    1  LIG1       -0.2207
      2 C          -0.5460    0.8210    0.0000 C.2     1  LIG1        0.2322
      3 C          -1.5080    0.5000    0.0000 C.3     1  LIG1        0.0930
      4 C          -1.5080   -0.5130    0.0000 C.3     1  LIG1        0.0866
      5 C          -0.5460   -0.7920    0.0000 C.2     1  LIG1        0.2318
      6 O          -0.2380   -1.7710    0.0000 O.2     1  LIG1       -0.2745
      7 C          -2.3750   -1.0000    0.0000 C.3     1  LIG1        0.0173
      8 C          -3.2380   -0.4830    0.0000 C.3     1  LIG1        0.0650
      9 C          -3.2380    0.5000    0.0000 C.2     1  LIG1        0.1512
     10 C          -2.3750    1.0040    0.0000 C.3     1  LIG1        0.0741
     11 O          -4.1250    0.9790    0.0000 O.2     1  LIG1       -0.2960
     12 O          -0.2380    1.7750    0.0000 O.2     1  LIG1       -0.2744
     13 C           1.0210   -0.0040    0.0000 C.3     1  LIG1        0.1858
     14 C           1.5250   -0.8790    0.0000 C.2     1  LIG1        0.2464
     15 N           2.5380   -0.8790    0.0000 N.am    1  LIG1       -0.2781
     16 C           3.0460   -1.7380    0.0000 C.3     1  LIG1        0.0935
     17 C           4.0130   -1.5290    0.0000 C.3     1  LIG1        0.0233
     18 C           4.1210   -0.5380    0.0000 C.3     1  LIG1        0.0233
     19 C           3.2290   -0.1460    0.0000 C.3     1  LIG1        0.0935
     20 O           1.0210   -1.7380    0.0000 O.2     1  LIG1       -0.2730
@<TRIPOS>BOND
     1     1     2   am
     2     1     5   am
     3     1    13    1
     4     2     3    1
     5     2    12    2
     6     3     4    1
     7     3    10    1
     8     4     5    1
     9     4     7    1
    10     5     6    2
    11     7     8    1
    12     8     9    1
    13     9    10    1
    14     9    11    2
    15    13    14    1
    16    14    15   am
    17    14    20    2
    18    15    16    1
    19    15    19    1
    20    16    17    1
    21    17    18    1
    22    18    19    1
