@<TRIPOS>MOLECULE
29631_ChemDiv_K788-0084
 27 30 0 0 0
SMALL
GASTEIGER
Energy = 0

@<TRIPOS>ATOM
      1 N          -2.2040    0.5710    0.0000 N.am    1  LIG1       -0.2687
      2 C          -1.8830    1.5250    0.0000 C.3     1  LIG1        0.1542
      3 C          -0.9290    1.8420    0.0000 C.2     1  LIG1        0.2598
      4 N          -0.1880    1.1630    0.0000 N.am    1  LIG1       -0.1992
      5 C           0.8130    1.1630    0.0000 C.3     1  LIG1        0.1416
      6 C           1.3170    0.2960    0.0000 C.ar    1  LIG1        0.0027
      7 C           2.3000    0.3080    0.0000 C.ar    1  LIG1        0.0376
      8 C           2.8000   -0.5580    0.0000 C.ar    1  LIG1        0.1762
      9 C           2.3170   -1.4290    0.0000 C.ar    1  LIG1        0.1764
     10 O           2.9920   -2.1630    0.0000 O.3     1  LIG1       -0.4346
     11 C           3.9040   -1.7500    0.0000 C.3     1  LIG1        0.4294
     12 O           3.7880   -0.7540    0.0000 O.3     1  LIG1       -0.4346
     13 C           1.3080   -1.4290    0.0000 C.ar    1  LIG1        0.0399
     14 C           0.8080   -0.5670    0.0000 C.ar    1  LIG1        0.0008
     15 O          -0.7170    2.8170    0.0000 O.2     1  LIG1       -0.2715
     16 C          -2.6960    2.1130    0.0000 C.3     1  LIG1        0.0388
     17 C          -3.5000    1.5250    0.0000 C.3     1  LIG1        0.0875
     18 C          -3.1960    0.5710    0.0000 C.2     1  LIG1        0.2263
     19 O          -3.9080   -0.1330    0.0000 O.2     1  LIG1       -0.2749
     20 C          -1.6040   -0.2380    0.0000 C.3     1  LIG1        0.1214
     21 C          -2.1290   -1.0880    0.0000 C.ar    1  LIG1        0.0083
     22 C          -1.6580   -1.9630    0.0000 C.ar    1  LIG1        0.0553
     23 CL         -0.6580   -1.9630    0.0000 Cl      1  LIG1       -0.0825
     24 C          -2.1790   -2.8130    0.0000 C.ar    1  LIG1        0.0111
     25 C          -3.1790   -2.7710    0.0000 C.ar    1  LIG1        0.0008
     26 C          -3.6580   -1.9000    0.0000 C.ar    1  LIG1       -0.0002
     27 C          -3.1290   -1.0500    0.0000 C.ar    1  LIG1       -0.0018
@<TRIPOS>BOND
     1     1     2    1
     2     1    18   am
     3     1    20    1
     4     2     3    1
     5     2    16    1
     6     3     4   am
     7     3    15    2
     8     4     5    1
     9     5     6    1
    10     6     7   ar
    11     6    14   ar
    12     7     8   ar
    13     8     9   ar
    14     8    12    1
    15     9    10    1
    16     9    13   ar
    17    10    11    1
    18    11    12    1
    19    13    14   ar
    20    16    17    1
    21    17    18    1
    22    18    19    2
    23    20    21    1
    24    21    22   ar
    25    21    27   ar
    26    22    23    1
    27    22    24   ar
    28    24    25   ar
    29    25    26   ar
    30    26    27   ar
