@<TRIPOS>MOLECULE
29633_ChemDiv_3448-1746
 25 28 0 0 0
SMALL
GASTEIGER
Energy = 0

@<TRIPOS>ATOM
      1 C          -0.4250   -1.4540    0.0000 C.2     1  LIG1        0.0470
      2 C          -0.4250   -2.4250    0.0000 C.2     1  LIG1        0.1218
      3 O           0.4170   -2.9080    0.0000 O.3     1  LIG1       -0.4583
      4 C           1.2670   -2.4250    0.0000 C.ar    1  LIG1        0.1411
      5 C           1.2670   -1.4540    0.0000 C.ar    1  LIG1        0.0167
      6 C           0.4170   -0.9920    0.0000 C.3     1  LIG1        0.0607
      7 C           0.4170    0.0170    0.0000 C.3     1  LIG1        0.0787
      8 C           1.3000    0.4920    0.0000 C.2     1  LIG1        0.1796
      9 C           1.3000    1.4290    0.0000 C.ar    1  LIG1        0.0641
     10 S           2.1710    1.9210    0.0000 S.2     1  LIG1       -0.0836
     11 C           2.1710    2.9130    0.0000 C.ar    1  LIG1        0.0355
     12 C           0.4630    2.9130    0.0000 C.ar    1  LIG1        0.0076
     13 C           0.4630    1.9210    0.0000 C.ar    1  LIG1        0.0099
     14 O           2.1540    0.0330    0.0000 O.2     1  LIG1       -0.2908
     15 C           2.1170   -0.9920    0.0000 C.ar    1  LIG1       -0.0009
     16 C           2.9540   -1.4540    0.0000 C.ar    1  LIG1       -0.0001
     17 C           2.9540   -2.4250    0.0000 C.ar    1  LIG1        0.0031
     18 C           2.1170   -2.9080    0.0000 C.ar    1  LIG1        0.0372
     19 C          -1.2710   -2.9080    0.0000 C.3     1  LIG1        0.0647
     20 C          -2.1210   -2.4250    0.0000 C.3     1  LIG1        0.0144
     21 C          -2.1210   -1.4540    0.0000 C.3     1  LIG1        0.0693
     22 C          -1.2710   -0.9920    0.0000 C.2     1  LIG1        0.1720
     23 O          -1.2710   -0.0250    0.0000 O.2     1  LIG1       -0.2916
     24 C          -2.9540   -2.9080    0.0000 C.3     1  LIG1        0.0009
     25 C          -2.9580   -1.9040    0.0000 C.3     1  LIG1        0.0009
@<TRIPOS>BOND
     1     1     2    2
     2     1     6    1
     3     1    22    1
     4     2     3    1
     5     2    19    1
     6     3     4    1
     7     4     5   ar
     8     4    18   ar
     9     5     6    1
    10     5    15   ar
    11     6     7    1
    12     7     8    1
    13     8     9    1
    14     8    14    2
    15     9    10   ar
    16     9    13   ar
    17    10    11   ar
    18    11    12   ar
    19    12    13   ar
    20    15    16   ar
    21    16    17   ar
    22    17    18   ar
    23    19    20    1
    24    20    21    1
    25    20    24    1
    26    20    25    1
    27    21    22    1
    28    22    23    2
