@<TRIPOS>MOLECULE
29638_ChemDiv_3506-0273
 33 37 0 0 0
SMALL
GASTEIGER
Energy = 0

@<TRIPOS>ATOM
      1 S          -1.3170   -2.2460    0.0000 S.O2    1  LIG1        0.0663
      2 C          -0.4080   -1.7540    0.0000 C.ar    1  LIG1        0.1561
      3 C          -0.4080   -0.7420    0.0000 C.ar    1  LIG1        0.0276
      4 C           0.4420   -0.2500    0.0000 C.ar    1  LIG1        0.0558
      5 C           0.4420    0.7460    0.0000 C.2     1  LIG1        0.2565
      6 N           1.3130    1.3040    0.0000 N.am    1  LIG1       -0.2329
      7 C           2.1750    0.7920    0.0000 C.ar    1  LIG1        0.0643
      8 C           3.0460    1.3040    0.0000 C.ar    1  LIG1        0.0435
      9 S           3.0460    2.3000    0.0000 S.3     1  LIG1       -0.0844
     10 C           2.1750    2.7540    0.0000 C.ar    1  LIG1        0.0435
     11 C           1.3130    2.2500    0.0000 C.ar    1  LIG1        0.0643
     12 C           0.4420    2.7540    0.0000 C.ar    1  LIG1        0.0157
     13 C           0.4420    3.7500    0.0000 C.ar    1  LIG1        0.0013
     14 C           1.3130    4.2540    0.0000 C.ar    1  LIG1        0.0006
     15 C           2.1750    3.7500    0.0000 C.ar    1  LIG1        0.0077
     16 C           3.9080    0.7920    0.0000 C.ar    1  LIG1        0.0077
     17 C           3.9080   -0.2000    0.0000 C.ar    1  LIG1        0.0006
     18 C           3.0460   -0.7040    0.0000 C.ar    1  LIG1        0.0013
     19 C           2.1750   -0.2000    0.0000 C.ar    1  LIG1        0.0157
     20 O          -0.4080    1.2460    0.0000 O.2     1  LIG1       -0.2692
     21 C           1.3130   -0.7420    0.0000 C.ar    1  LIG1        0.0077
     22 C           1.3130   -1.7540    0.0000 C.ar    1  LIG1        0.0384
     23 C           0.4420   -2.2460    0.0000 C.ar    1  LIG1        0.1572
     24 O           0.4420   -3.2420    0.0000 O.3     1  LIG1       -0.4701
     25 C          -0.4080   -3.7540    0.0000 C.3     1  LIG1        0.2525
     26 N          -2.1790   -2.7880    0.0000 N.3     1  LIG1       -0.1503
     27 C          -2.1790   -3.7540    0.0000 C.3     1  LIG1        0.1279
     28 C          -3.0500   -4.2540    0.0000 C.3     1  LIG1        0.1613
     29 O          -3.9130   -3.7540    0.0000 O.3     1  LIG1       -0.3507
     30 C          -3.9130   -2.7500    0.0000 C.3     1  LIG1        0.1613
     31 C          -3.0500   -2.2960    0.0000 C.3     1  LIG1        0.1279
     32 O          -0.7790   -3.1580    0.0000 O.2     1  LIG1       -0.1527
     33 O          -1.8290   -1.3830    0.0000 O.2     1  LIG1       -0.1527
@<TRIPOS>BOND
     1     1     2    1
     2     1    26    1
     3     1    32    2
     4     1    33    2
     5     2     3   ar
     6     2    23   ar
     7     3     4   ar
     8     4     5    1
     9     4    21   ar
    10     5     6   am
    11     5    20    2
    12     6     7    1
    13     6    11    1
    14     7     8   ar
    15     7    19   ar
    16     8     9    1
    17     8    16   ar
    18     9    10    1
    19    10    11   ar
    20    10    15   ar
    21    11    12   ar
    22    12    13   ar
    23    13    14   ar
    24    14    15   ar
    25    16    17   ar
    26    17    18   ar
    27    18    19   ar
    28    21    22   ar
    29    22    23   ar
    30    23    24    1
    31    24    25    1
    32    26    27    1
    33    26    31    1
    34    27    28    1
    35    28    29    1
    36    29    30    1
    37    30    31    1
