@<TRIPOS>MOLECULE
29639_ChemDiv_3577-0152
 23 25 0 0 0
SMALL
GASTEIGER
Energy = 0

@<TRIPOS>ATOM
      1 N           0.2080   -0.3630    0.0000 N.ar    1  LIG1       -0.1855
      2 C           0.4330    0.5960    0.0000 C.ar    1  LIG1        0.1463
      3 C           1.4290    0.7040    0.0000 C.ar    1  LIG1        0.1989
      4 N           1.8250   -0.1830    0.0000 N.ar    1  LIG1       -0.1219
      5 N           1.0880   -0.8580    0.0000 N.ar    1  LIG1       -0.0580
      6 C           1.9290    1.5750    0.0000 C.2     1  LIG1        0.3625
      7 O           1.4290    2.4460    0.0000 O.2     1  LIG1       -0.2431
      8 O           2.9420    1.5750    0.0000 O.3     1  LIG1       -0.4402
      9 C           3.4460    2.4460    0.0000 C.3     1  LIG1        0.2560
     10 C          -0.2290    1.3750    0.0000 C.3     1  LIG1        0.1874
     11 N          -1.2000    1.1880    0.0000 N.4     1  LIG1        0.3819
     12 C          -1.8540    1.9330    0.0000 C.3     1  LIG1        0.1391
     13 C          -2.8460    1.9130    0.0000 C.3     1  LIG1        0.0627
     14 C          -3.4500    1.1210    0.0000 C.3     1  LIG1        0.0063
     15 C          -3.1960    0.1250    0.0000 C.3     1  LIG1        0.0063
     16 C          -2.2830   -0.2540    0.0000 C.3     1  LIG1        0.0627
     17 C          -1.3920    0.2170    0.0000 C.3     1  LIG1        0.1391
     18 C          -0.7000   -0.7380    0.0000 C.ar    1  LIG1        0.2441
     19 C          -0.8580   -1.7080    0.0000 C.ar    1  LIG1        0.2492
     20 N          -1.8540   -1.8670    0.0000 N.ar    1  LIG1       -0.0281
     21 O          -2.3000   -0.9920    0.0000 O.2     1  LIG1       -0.2386
     22 N          -1.6130   -0.2670    0.0000 N.ar    1  LIG1       -0.0271
     23 N          -0.1540   -2.4420    0.0000 N.pl3   1  LIG1       -0.1002
@<TRIPOS>BOND
     1     1     2   ar
     2     1     5   ar
     3     1    18    1
     4     2     3   ar
     5     2    10    1
     6     3     4   ar
     7     3     6    1
     8     4     5   ar
     9     6     7    2
    10     6     8    1
    11     8     9    1
    12    10    11    1
    13    11    12    1
    14    11    17    1
    15    12    13    1
    16    13    14    1
    17    14    15    1
    18    15    16    1
    19    16    17    1
    20    18    19   ar
    21    18    22   ar
    22    19    20   ar
    23    19    23    1
    24    20    21   ar
    25    21    22   ar
