@<TRIPOS>MOLECULE
29646_ChemDiv_4699-1596
 27 30 0 0 0
SMALL
GASTEIGER
Energy = 0

@<TRIPOS>ATOM
      1 S          -1.5170    1.6670    0.0000 S.O2    1  LIG1        0.0652
      2 C          -2.5380    1.6670    0.0000 C.ar    1  LIG1        0.1419
      3 C          -3.0380    0.8040    0.0000 C.ar    1  LIG1        0.1273
      4 N          -2.7500   -0.1210    0.0000 N.ar    1  LIG1       -0.1888
      5 S          -3.5580   -0.7500    0.0000 S.2     1  LIG1        0.1165
      6 N          -4.3630   -0.1210    0.0000 N.ar    1  LIG1       -0.1901
      7 C          -4.0580    0.8130    0.0000 C.ar    1  LIG1        0.1102
      8 C          -4.5460    1.6790    0.0000 C.ar    1  LIG1        0.0214
      9 C          -4.0460    2.5460    0.0000 C.ar    1  LIG1        0.0030
     10 C          -3.0250    2.5460    0.0000 C.ar    1  LIG1        0.0216
     11 N          -0.5250    1.6580    0.0000 N.3     1  LIG1       -0.1433
     12 C          -0.0330    0.7920    0.0000 C.3     1  LIG1        0.1585
     13 C           0.9830    0.7880    0.0000 C.3     1  LIG1        0.1586
     14 N           1.4750    1.6460    0.0000 N.4     1  LIG1        0.3830
     15 C           0.9830    2.5000    0.0000 C.3     1  LIG1        0.1586
     16 C           0.0000    2.5130    0.0000 C.3     1  LIG1        0.1585
     17 C           2.4960    1.6170    0.0000 C.3     1  LIG1        0.1662
     18 C           2.9830    0.7750    0.0000 C.2     1  LIG1        0.0359
     19 C           2.5170   -0.1040    0.0000 C.2     1  LIG1        0.0013
     20 C           3.0290   -0.9500    0.0000 C.ar    1  LIG1       -0.0001
     21 C           2.5670   -1.8290    0.0000 C.ar    1  LIG1       -0.0000
     22 C           3.0790   -2.6790    0.0000 C.ar    1  LIG1       -0.0000
     23 C           4.0880   -2.6580    0.0000 C.ar    1  LIG1       -0.0000
     24 C           4.5420   -1.7750    0.0000 C.ar    1  LIG1       -0.0000
     25 C           4.0250   -0.9380    0.0000 C.ar    1  LIG1       -0.0000
     26 O          -1.5080    2.6830    0.0000 O.2     1  LIG1       -0.1527
     27 O          -1.5170    0.6580    0.0000 O.2     1  LIG1       -0.1527
@<TRIPOS>BOND
     1     1     2    1
     2     1    11    1
     3     1    26    2
     4     1    27    2
     5     2     3   ar
     6     2    10   ar
     7     3     4   ar
     8     3     7   ar
     9     4     5   ar
    10     5     6   ar
    11     6     7   ar
    12     7     8   ar
    13     8     9   ar
    14     9    10   ar
    15    11    12    1
    16    11    16    1
    17    12    13    1
    18    13    14    1
    19    14    15    1
    20    14    17    1
    21    15    16    1
    22    17    18    1
    23    18    19    2
    24    19    20    1
    25    20    21   ar
    26    20    25   ar
    27    21    22   ar
    28    22    23   ar
    29    23    24   ar
    30    24    25   ar
