@<TRIPOS>MOLECULE
29644_ChemDiv_4346-1409
 24 27 0 0 0
SMALL
GASTEIGER
Energy = 0

@<TRIPOS>ATOM
      1 S           1.4500   -0.2790    0.0000 S.O2    1  LIG1        0.0649
      2 C           2.4210   -0.0130    0.0000 C.ar    1  LIG1        0.1419
      3 C           2.6920    0.9540    0.0000 C.ar    1  LIG1        0.1273
      4 N           2.1580    1.7830    0.0000 N.ar    1  LIG1       -0.1888
      5 S           2.8000    2.5630    0.0000 S.2     1  LIG1        0.1165
      6 N           3.7170    2.2000    0.0000 N.ar    1  LIG1       -0.1901
      7 C           3.6670    1.2130    0.0000 C.ar    1  LIG1        0.1102
      8 C           4.3580    0.5000    0.0000 C.ar    1  LIG1        0.0214
      9 C           4.1000   -0.4500    0.0000 C.ar    1  LIG1        0.0030
     10 C           3.1250   -0.7250    0.0000 C.ar    1  LIG1        0.0216
     11 N           0.4670   -0.5380    0.0000 N.3     1  LIG1       -0.1520
     12 C          -0.2290    0.1750    0.0000 C.3     1  LIG1        0.1173
     13 C          -1.2000   -0.0880    0.0000 C.3     1  LIG1        0.1128
     14 N          -1.4750   -1.0710    0.0000 N.pl3   1  LIG1       -0.2752
     15 C          -2.4460   -1.3290    0.0000 C.ar    1  LIG1        0.2203
     16 N          -3.1380   -0.6380    0.0000 N.ar    1  LIG1       -0.2121
     17 C          -4.0880   -0.8960    0.0000 C.ar    1  LIG1        0.1034
     18 C          -4.3630   -1.8670    0.0000 C.ar    1  LIG1        0.0414
     19 C          -3.6580   -2.5580    0.0000 C.ar    1  LIG1        0.1034
     20 N          -2.7040   -2.3000    0.0000 N.ar    1  LIG1       -0.2121
     21 C          -0.7670   -1.7630    0.0000 C.3     1  LIG1        0.1128
     22 C           0.2040   -1.5040    0.0000 C.3     1  LIG1        0.1173
     23 O           1.1920    0.6920    0.0000 O.2     1  LIG1       -0.1527
     24 O           1.7080   -1.2630    0.0000 O.2     1  LIG1       -0.1527
@<TRIPOS>BOND
     1     1     2    1
     2     1    11    1
     3     1    23    2
     4     1    24    2
     5     2     3   ar
     6     2    10   ar
     7     3     4   ar
     8     3     7   ar
     9     4     5   ar
    10     5     6   ar
    11     6     7   ar
    12     7     8   ar
    13     8     9   ar
    14     9    10   ar
    15    11    12    1
    16    11    22    1
    17    12    13    1
    18    13    14    1
    19    14    15    1
    20    14    21    1
    21    15    16   ar
    22    15    20   ar
    23    16    17   ar
    24    17    18   ar
    25    18    19   ar
    26    19    20   ar
    27    21    22    1
