@<TRIPOS>MOLECULE
29647_ChemDiv_8008-6991
 27 30 0 0 0
SMALL
GASTEIGER
Energy = 0

@<TRIPOS>ATOM
      1 N          -1.2830   -1.1000    0.0000 N.ar    1  LIG1       -0.1895
      2 C          -0.2750   -1.0170    0.0000 C.ar    1  LIG1        0.1096
      3 C           0.0960   -1.9460    0.0000 C.ar    1  LIG1        0.1949
      4 N          -0.6830   -2.5920    0.0000 N.ar    1  LIG1       -0.1221
      5 N          -1.5130   -2.0750    0.0000 N.ar    1  LIG1       -0.0581
      6 C           1.0500   -2.2460    0.0000 C.2     1  LIG1        0.3622
      7 O           1.2880   -3.2080    0.0000 O.2     1  LIG1       -0.2431
      8 O           1.7670   -1.5750    0.0000 O.3     1  LIG1       -0.4443
      9 C           2.7290   -1.8750    0.0000 C.3     1  LIG1        0.2089
     10 C           3.4750   -1.1750    0.0000 C.3     1  LIG1        0.0513
     11 C           0.3830   -0.2420    0.0000 C.3     1  LIG1        0.1392
     12 N          -0.0500    0.6420    0.0000 N.pl3   1  LIG1       -0.3025
     13 C           0.5920    1.5040    0.0000 C.ar    1  LIG1        0.0441
     14 C           0.2250    2.3920    0.0000 C.ar    1  LIG1       -0.0088
     15 C          -0.7670    2.5460    0.0000 C.3     1  LIG1        0.0294
     16 C          -1.3830    1.7580    0.0000 C.3     1  LIG1        0.0261
     17 C          -0.9960    0.8790    0.0000 C.3     1  LIG1        0.0915
     18 C           0.8500    3.2130    0.0000 C.ar    1  LIG1       -0.0030
     19 C           1.8130    3.0710    0.0000 C.ar    1  LIG1       -0.0002
     20 C           2.2130    2.1250    0.0000 C.ar    1  LIG1        0.0012
     21 C           1.5830    1.3330    0.0000 C.ar    1  LIG1        0.0142
     22 C          -1.8880   -0.3290    0.0000 C.ar    1  LIG1        0.2440
     23 C          -2.8880   -0.3040    0.0000 C.ar    1  LIG1        0.2492
     24 N          -3.1750    0.6330    0.0000 N.ar    1  LIG1       -0.0281
     25 O          -2.3290    1.2170    0.0000 O.2     1  LIG1       -0.2386
     26 N          -1.5580    0.6330    0.0000 N.ar    1  LIG1       -0.0271
     27 N          -3.4790   -1.1000    0.0000 N.pl3   1  LIG1       -0.1002
@<TRIPOS>BOND
     1     1     2   ar
     2     1     5   ar
     3     1    22    1
     4     2     3   ar
     5     2    11    1
     6     3     4   ar
     7     3     6    1
     8     4     5   ar
     9     6     7    2
    10     6     8    1
    11     8     9    1
    12     9    10    1
    13    11    12    1
    14    12    13    1
    15    12    17    1
    16    13    14   ar
    17    13    21   ar
    18    14    15    1
    19    14    18   ar
    20    15    16    1
    21    16    17    1
    22    18    19   ar
    23    19    20   ar
    24    20    21   ar
    25    22    23   ar
    26    22    26   ar
    27    23    24   ar
    28    23    27    1
    29    24    25   ar
    30    25    26   ar
