@<TRIPOS>MOLECULE
29640_ChemDiv_3508-1332
 31 35 0 0 0
SMALL
GASTEIGER
Energy = 0

@<TRIPOS>ATOM
      1 S          -0.0130   -1.5130    0.0000 S.O2    1  LIG1        0.0652
      2 C          -0.0130   -2.5000    0.0000 C.ar    1  LIG1        0.1419
      3 C           0.8630   -3.0080    0.0000 C.ar    1  LIG1        0.1273
      4 N           1.8000   -2.6920    0.0000 N.ar    1  LIG1       -0.1888
      5 S           2.3710   -3.4960    0.0000 S.2     1  LIG1        0.1165
      6 N           1.8000   -4.3250    0.0000 N.ar    1  LIG1       -0.1901
      7 C           0.8630   -3.9960    0.0000 C.ar    1  LIG1        0.1102
      8 C          -0.0130   -4.5130    0.0000 C.ar    1  LIG1        0.0214
      9 C          -0.8790   -3.9960    0.0000 C.ar    1  LIG1        0.0030
     10 C          -0.8790   -3.0080    0.0000 C.ar    1  LIG1        0.0216
     11 N          -0.0130   -0.4920    0.0000 N.3     1  LIG1       -0.1433
     12 C          -0.8790   -0.0130    0.0000 C.3     1  LIG1        0.1585
     13 C          -0.8790    1.0080    0.0000 C.3     1  LIG1        0.1587
     14 N          -0.0130    1.5170    0.0000 N.4     1  LIG1        0.3815
     15 C          -0.0130    2.5040    0.0000 C.3     1  LIG1        0.1331
     16 C           0.8630    3.0210    0.0000 C.ar    1  LIG1        0.0328
     17 C           0.8630    4.0040    0.0000 C.ar    1  LIG1        0.0016
     18 C           1.7290    4.5130    0.0000 C.ar    1  LIG1       -0.0001
     19 C           2.5830    4.0040    0.0000 C.ar    1  LIG1       -0.0000
     20 C           2.5830    3.0210    0.0000 C.ar    1  LIG1       -0.0001
     21 C           1.7290    2.5040    0.0000 C.ar    1  LIG1        0.0016
     22 C          -0.8790    3.0210    0.0000 C.ar    1  LIG1        0.0328
     23 C          -0.8790    4.0040    0.0000 C.ar    1  LIG1        0.0016
     24 C          -1.7330    4.5130    0.0000 C.ar    1  LIG1       -0.0001
     25 C          -2.5880    4.0040    0.0000 C.ar    1  LIG1       -0.0000
     26 C          -2.5880    3.0210    0.0000 C.ar    1  LIG1       -0.0001
     27 C          -1.7330    2.5040    0.0000 C.ar    1  LIG1        0.0016
     28 C           0.8630    1.0080    0.0000 C.3     1  LIG1        0.1587
     29 C           0.8630   -0.0130    0.0000 C.3     1  LIG1        0.1585
     30 O          -1.0130   -1.5130    0.0000 O.2     1  LIG1       -0.1527
     31 O           0.9960   -1.5130    0.0000 O.2     1  LIG1       -0.1527
@<TRIPOS>BOND
     1     1     2    1
     2     1    11    1
     3     1    30    2
     4     1    31    2
     5     2     3   ar
     6     2    10   ar
     7     3     4   ar
     8     3     7   ar
     9     4     5   ar
    10     5     6   ar
    11     6     7   ar
    12     7     8   ar
    13     8     9   ar
    14     9    10   ar
    15    11    12    1
    16    11    29    1
    17    12    13    1
    18    13    14    1
    19    14    15    1
    20    14    28    1
    21    15    16    1
    22    15    22    1
    23    16    17   ar
    24    16    21   ar
    25    17    18   ar
    26    18    19   ar
    27    19    20   ar
    28    20    21   ar
    29    22    23   ar
    30    22    27   ar
    31    23    24   ar
    32    24    25   ar
    33    25    26   ar
    34    26    27   ar
    35    28    29    1
