@<TRIPOS>MOLECULE
29649_ChemDiv_K788-0343
 27 30 0 0 0
SMALL
GASTEIGER
Energy = 0

@<TRIPOS>ATOM
      1 N          -1.2420   -1.3420    0.0000 N.am    1  LIG1       -0.2688
      2 C          -2.0500   -0.7540    0.0000 C.3     1  LIG1        0.1542
      3 C          -2.0500    0.2540    0.0000 C.2     1  LIG1        0.2598
      4 N          -1.1830    0.7580    0.0000 N.am    1  LIG1       -0.1992
      5 C          -1.1830    1.7540    0.0000 C.3     1  LIG1        0.1416
      6 C          -0.3290    2.2710    0.0000 C.ar    1  LIG1        0.0027
      7 C           0.5330    1.7710    0.0000 C.ar    1  LIG1        0.0376
      8 C           1.3880    2.2710    0.0000 C.ar    1  LIG1        0.1762
      9 C           1.3880    3.2630    0.0000 C.ar    1  LIG1        0.1764
     10 O           2.3420    3.5670    0.0000 O.3     1  LIG1       -0.4346
     11 C           2.9210    2.7580    0.0000 C.3     1  LIG1        0.4294
     12 O           2.3290    1.9500    0.0000 O.3     1  LIG1       -0.4346
     13 C           0.5330    3.7580    0.0000 C.ar    1  LIG1        0.0399
     14 C          -0.3290    3.2580    0.0000 C.ar    1  LIG1        0.0008
     15 O          -2.9250    0.7500    0.0000 O.2     1  LIG1       -0.2715
     16 C          -2.8540   -1.3420    0.0000 C.3     1  LIG1        0.0388
     17 C          -2.5500   -2.2960    0.0000 C.3     1  LIG1        0.0875
     18 C          -1.5500   -2.2960    0.0000 C.2     1  LIG1        0.2263
     19 O          -1.0580   -3.1630    0.0000 O.2     1  LIG1       -0.2749
     20 C          -0.2830   -1.0250    0.0000 C.3     1  LIG1        0.1205
     21 C           0.4630   -1.7040    0.0000 C.ar    1  LIG1       -0.0022
     22 C           0.2500   -2.6830    0.0000 C.ar    1  LIG1       -0.0003
     23 C           0.9920   -3.3500    0.0000 C.ar    1  LIG1        0.0294
     24 C           1.9500   -3.0460    0.0000 C.ar    1  LIG1        0.1401
     25 F           2.6580   -3.7540    0.0000 F       1  LIG1       -0.2042
     26 C           2.1580   -2.0580    0.0000 C.ar    1  LIG1        0.0294
     27 C           1.4130   -1.3920    0.0000 C.ar    1  LIG1       -0.0003
@<TRIPOS>BOND
     1     1     2    1
     2     1    18   am
     3     1    20    1
     4     2     3    1
     5     2    16    1
     6     3     4   am
     7     3    15    2
     8     4     5    1
     9     5     6    1
    10     6     7   ar
    11     6    14   ar
    12     7     8   ar
    13     8     9   ar
    14     8    12    1
    15     9    10    1
    16     9    13   ar
    17    10    11    1
    18    11    12    1
    19    13    14   ar
    20    16    17    1
    21    17    18    1
    22    18    19    2
    23    20    21    1
    24    21    22   ar
    25    21    27   ar
    26    22    23   ar
    27    23    24   ar
    28    24    25    1
    29    24    26   ar
    30    26    27   ar
