@<TRIPOS>MOLECULE
29648_ChemDiv_5047-1668
 28 33 0 0 0
SMALL
GASTEIGER
Energy = 0

@<TRIPOS>ATOM
      1 S          -0.8750   -1.5710    0.0000 S.O2    1  LIG1        0.0652
      2 C          -1.7080   -2.0540    0.0000 C.ar    1  LIG1        0.1419
      3 C          -1.7080   -3.0130    0.0000 C.ar    1  LIG1        0.1273
      4 N          -0.9960   -3.6670    0.0000 N.ar    1  LIG1       -0.1888
      5 S          -1.3710   -4.5290    0.0000 S.2     1  LIG1        0.1165
      6 N          -2.3330   -4.4330    0.0000 N.ar    1  LIG1       -0.1901
      7 C          -2.5250   -3.5000    0.0000 C.ar    1  LIG1        0.1102
      8 C          -3.3670   -3.0130    0.0000 C.ar    1  LIG1        0.0214
      9 C          -3.3670   -2.0540    0.0000 C.ar    1  LIG1        0.0030
     10 C          -2.5380   -1.5750    0.0000 C.ar    1  LIG1        0.0216
     11 N          -0.0420   -1.0630    0.0000 N.3     1  LIG1       -0.1433
     12 C           0.8130   -1.5460    0.0000 C.3     1  LIG1        0.1584
     13 C           1.6330   -1.0460    0.0000 C.3     1  LIG1        0.1575
     14 N           1.6330   -0.0750    0.0000 N.4     1  LIG1        0.3713
     15 C           1.6460    2.0250    0.0000 C.3     1  LIG1        0.0457
     16 C           1.2380    2.9750    0.0000 C.3     1  LIG1        0.0512
     17 C           1.9790    3.5750    0.0000 C.3     1  LIG1        0.0055
     18 C           2.8580    3.1080    0.0000 C.3     1  LIG1        0.0004
     19 C           3.2380    2.1750    0.0000 C.3     1  LIG1        0.0055
     20 C           2.5040    1.5750    0.0000 C.3     1  LIG1        0.0512
     21 C           3.3630    3.0630    0.0000 C.3     1  LIG1        0.0004
     22 C           2.5380    3.4960    0.0000 C.3     1  LIG1        0.0055
     23 C           1.8670    2.9000    0.0000 C.3     1  LIG1        0.0512
     24 C           2.1880    4.5290    0.0000 C.3     1  LIG1        0.0004
     25 C           0.7880    0.4080    0.0000 C.3     1  LIG1        0.1575
     26 C          -0.0580   -0.0960    0.0000 C.3     1  LIG1        0.1584
     27 O          -1.3580   -0.7290    0.0000 O.2     1  LIG1       -0.1527
     28 O          -0.3790   -2.4040    0.0000 O.2     1  LIG1       -0.1527
@<TRIPOS>BOND
     1     1     2    1
     2     1    11    1
     3     1    27    2
     4     1    28    2
     5     2     3   ar
     6     2    10   ar
     7     3     4   ar
     8     3     7   ar
     9     4     5   ar
    10     5     6   ar
    11     6     7   ar
    12     7     8   ar
    13     8     9   ar
    14     9    10   ar
    15    11    12    1
    16    11    26    1
    17    12    13    1
    18    13    14    1
    19    14    15    1
    20    14    25    1
    21    15    16    1
    22    15    20    1
    23    15    23    1
    24    16    17    1
    25    17    18    1
    26    17    24    1
    27    18    19    1
    28    19    20    1
    29    19    21    1
    30    21    22    1
    31    22    23    1
    32    22    24    1
    33    25    26    1
