@<TRIPOS>MOLECULE
29641_ChemDiv_3577-0169
 28 31 0 0 0
SMALL
GASTEIGER
Energy = 0

@<TRIPOS>ATOM
      1 N           0.1420   -0.7630    0.0000 N.ar    1  LIG1       -0.1855
      2 C           0.4460    0.1830    0.0000 C.ar    1  LIG1        0.1463
      3 C           1.4500    0.1830    0.0000 C.ar    1  LIG1        0.1989
      4 N           1.7580   -0.7630    0.0000 N.ar    1  LIG1       -0.1219
      5 N           0.9670   -1.3500    0.0000 N.ar    1  LIG1       -0.0580
      6 C           2.0380    1.0000    0.0000 C.2     1  LIG1        0.3623
      7 O           3.0210    0.9040    0.0000 O.3     1  LIG1       -0.4481
      8 C           3.6080    1.6920    0.0000 C.3     1  LIG1        0.1694
      9 C           3.1960    2.6040    0.0000 C.3     1  LIG1        0.0473
     10 C           4.5920    1.5960    0.0000 C.3     1  LIG1        0.0473
     11 O           1.6210    1.9210    0.0000 O.2     1  LIG1       -0.2431
     12 C          -0.0580    1.0380    0.0000 C.3     1  LIG1        0.1879
     13 N          -1.0580    1.0380    0.0000 N.4     1  LIG1        0.3857
     14 C          -1.5830    1.8880    0.0000 C.3     1  LIG1        0.1664
     15 C          -2.5830    1.8880    0.0000 C.ar    1  LIG1        0.0306
     16 C          -3.0880    1.0380    0.0000 C.ar    1  LIG1       -0.0147
     17 C          -2.5830    0.1500    0.0000 C.3     1  LIG1        0.0889
     18 C          -1.5830    0.1500    0.0000 C.3     1  LIG1        0.1443
     19 C          -4.0920    1.0380    0.0000 C.ar    1  LIG1       -0.0042
     20 C          -4.5960    1.8880    0.0000 C.ar    1  LIG1       -0.0003
     21 C          -4.0920    2.7670    0.0000 C.ar    1  LIG1       -0.0001
     22 C          -3.0880    2.7670    0.0000 C.ar    1  LIG1        0.0011
     23 C          -0.7960   -1.0210    0.0000 C.ar    1  LIG1        0.2441
     24 C          -1.0580   -2.0040    0.0000 C.ar    1  LIG1        0.2492
     25 N          -2.0580   -2.0710    0.0000 N.ar    1  LIG1       -0.0281
     26 O          -2.4170   -1.1580    0.0000 O.2     1  LIG1       -0.2386
     27 N          -1.6500   -0.5040    0.0000 N.ar    1  LIG1       -0.0271
     28 N          -0.4000   -2.7630    0.0000 N.pl3   1  LIG1       -0.1002
@<TRIPOS>BOND
     1     1     2   ar
     2     1     5   ar
     3     1    23    1
     4     2     3   ar
     5     2    12    1
     6     3     4   ar
     7     3     6    1
     8     4     5   ar
     9     6     7    1
    10     6    11    2
    11     7     8    1
    12     8     9    1
    13     8    10    1
    14    12    13    1
    15    13    14    1
    16    13    18    1
    17    14    15    1
    18    15    16   ar
    19    15    22   ar
    20    16    17    1
    21    16    19   ar
    22    17    18    1
    23    19    20   ar
    24    20    21   ar
    25    21    22   ar
    26    23    24   ar
    27    23    27   ar
    28    24    25   ar
    29    24    28    1
    30    25    26   ar
    31    26    27   ar
