@<TRIPOS>MOLECULE
29643_ChemDiv_6703-0632
 20 22 0 0 0
SMALL
GASTEIGER
Energy = 0

@<TRIPOS>ATOM
      1 N           0.5460   -0.3830    0.0000 N.ar    1  LIG1       -0.1856
      2 C           0.5460    0.6330    0.0000 C.ar    1  LIG1        0.1410
      3 C           1.5080    0.9290    0.0000 C.ar    1  LIG1        0.1377
      4 N           2.0750    0.1500    0.0000 N.ar    1  LIG1       -0.1274
      5 N           1.5080   -0.6790    0.0000 N.ar    1  LIG1       -0.0581
      6 C           1.8290    1.8880    0.0000 C.2     1  LIG1        0.0937
      7 O           2.7880    2.0830    0.0000 O.co2   1  LIG1       -0.5429
      8 O           1.1710    2.6080    0.0000 O.co2   1  LIG1       -0.5429
      9 C          -0.2750    1.2500    0.0000 C.3     1  LIG1        0.1873
     10 N          -1.2040    0.8500    0.0000 N.4     1  LIG1        0.3819
     11 C          -2.1130    1.2750    0.0000 C.3     1  LIG1        0.1393
     12 C          -2.7920    0.5290    0.0000 C.3     1  LIG1        0.0689
     13 C          -2.3080   -0.3290    0.0000 C.3     1  LIG1        0.0689
     14 C          -1.3250   -0.1420    0.0000 C.3     1  LIG1        0.1393
     15 C          -0.3000   -0.9460    0.0000 C.ar    1  LIG1        0.2441
     16 C          -0.3630   -1.9380    0.0000 C.ar    1  LIG1        0.2492
     17 N          -1.3250   -2.1790    0.0000 N.ar    1  LIG1       -0.0281
     18 O          -1.8460   -1.3460    0.0000 O.2     1  LIG1       -0.2386
     19 N          -1.2250   -0.5750    0.0000 N.ar    1  LIG1       -0.0271
     20 N           0.4170   -2.6040    0.0000 N.pl3   1  LIG1       -0.1002
@<TRIPOS>BOND
     1     1     2   ar
     2     1     5   ar
     3     1    15    1
     4     2     3   ar
     5     2     9    1
     6     3     4   ar
     7     3     6    1
     8     4     5   ar
     9     6     7   ar
    10     6     8   ar
    11     9    10    1
    12    10    11    1
    13    10    14    1
    14    11    12    1
    15    12    13    1
    16    13    14    1
    17    15    16   ar
    18    15    19   ar
    19    16    17   ar
    20    16    20    1
    21    17    18   ar
    22    18    19   ar
