@<TRIPOS>MOLECULE
29645_ChemDiv_6703-1827
 26 29 0 0 0
SMALL
GASTEIGER
Energy = 0

@<TRIPOS>ATOM
      1 N          -1.2380   -0.8080    0.0000 N.ar    1  LIG1       -0.1871
      2 C          -0.6040   -0.0130    0.0000 C.ar    1  LIG1        0.1120
      3 C           0.3250   -0.3630    0.0000 C.ar    1  LIG1        0.1973
      4 N           0.2830   -1.3750    0.0000 N.ar    1  LIG1       -0.1218
      5 N          -0.6920   -1.6290    0.0000 N.ar    1  LIG1       -0.0579
      6 C           1.1920    0.1790    0.0000 C.2     1  LIG1        0.3625
      7 O           1.1540    1.1580    0.0000 O.2     1  LIG1       -0.2431
      8 O           2.0790   -0.2960    0.0000 O.3     1  LIG1       -0.4443
      9 C           2.9250    0.2460    0.0000 C.3     1  LIG1        0.2089
     10 C           3.8130   -0.2290    0.0000 C.3     1  LIG1        0.0513
     11 C          -0.9210    0.9330    0.0000 C.ar    1  LIG1        0.0196
     12 C          -1.8790    1.1290    0.0000 C.ar    1  LIG1        0.0015
     13 C          -2.1920    2.0790    0.0000 C.ar    1  LIG1        0.0000
     14 C          -1.5080    2.8380    0.0000 C.ar    1  LIG1        0.0000
     15 C          -0.5630    2.6210    0.0000 C.ar    1  LIG1        0.0000
     16 C          -0.2460    1.6710    0.0000 C.ar    1  LIG1        0.0016
     17 C          -3.1420    2.3040    0.0000 C.ar    1  LIG1        0.0000
     18 C          -3.8170    1.5790    0.0000 C.ar    1  LIG1        0.0000
     19 C          -3.4960    0.5880    0.0000 C.ar    1  LIG1        0.0000
     20 C          -2.5460    0.4000    0.0000 C.ar    1  LIG1        0.0000
     21 C          -2.2130   -1.0580    0.0000 C.ar    1  LIG1        0.2442
     22 C          -2.8250   -1.8500    0.0000 C.ar    1  LIG1        0.2492
     23 N          -3.7750   -1.5000    0.0000 N.ar    1  LIG1       -0.0281
     24 O          -3.7290   -0.5210    0.0000 O.2     1  LIG1       -0.2386
     25 N          -2.7580   -0.2290    0.0000 N.ar    1  LIG1       -0.0271
     26 N          -2.5670   -2.8330    0.0000 N.pl3   1  LIG1       -0.1002
@<TRIPOS>BOND
     1     1     2   ar
     2     1     5   ar
     3     1    21    1
     4     2     3   ar
     5     2    11    1
     6     3     4   ar
     7     3     6    1
     8     4     5   ar
     9     6     7    2
    10     6     8    1
    11     8     9    1
    12     9    10    1
    13    11    12   ar
    14    11    16   ar
    15    12    13   ar
    16    12    20   ar
    17    13    14   ar
    18    13    17   ar
    19    14    15   ar
    20    15    16   ar
    21    17    18   ar
    22    18    19   ar
    23    19    20   ar
    24    21    22   ar
    25    21    25   ar
    26    22    23   ar
    27    22    26    1
    28    23    24   ar
    29    24    25   ar
