@<TRIPOS>MOLECULE
29658_ChemDiv_3455-1351
 25 28 0 0 0
SMALL
GASTEIGER
Energy = 0

@<TRIPOS>ATOM
      1 C          -0.2790   -0.3960    0.0000 C.2     1  LIG1        0.2486
      2 N           0.5960    0.0460    0.0000 N.am    1  LIG1       -0.1790
      3 C           1.4380   -0.4630    0.0000 C.ar    1  LIG1        0.0733
      4 C           2.3170   -0.0080    0.0000 C.ar    1  LIG1        0.0153
      5 C           3.1920   -0.5040    0.0000 C.ar    1  LIG1        0.0013
      6 C           3.1920   -1.5170    0.0000 C.ar    1  LIG1        0.0001
      7 C           2.2920   -1.9790    0.0000 C.ar    1  LIG1        0.0013
      8 C           1.4380   -1.4830    0.0000 C.ar    1  LIG1        0.0166
      9 C           4.0960   -0.0080    0.0000 C.ar    1  LIG1        0.0000
     10 C           4.0960    0.9790    0.0000 C.ar    1  LIG1        0.0000
     11 C           3.2210    1.4920    0.0000 C.ar    1  LIG1        0.0000
     12 C           2.3130    0.9920    0.0000 C.ar    1  LIG1        0.0013
     13 C          -1.3080    0.2130    0.0000 C.3     1  LIG1        0.0944
     14 C          -2.2380   -0.2290    0.0000 C.ar    1  LIG1       -0.0144
     15 C          -3.1500    0.2130    0.0000 C.ar    1  LIG1       -0.0038
     16 C          -4.1000   -0.3000    0.0000 C.ar    1  LIG1       -0.0003
     17 C          -4.1000   -1.3250    0.0000 C.ar    1  LIG1       -0.0000
     18 C          -3.1250   -1.8420    0.0000 C.ar    1  LIG1       -0.0003
     19 C          -2.2380   -1.3250    0.0000 C.ar    1  LIG1       -0.0038
     20 C          -2.1000    0.7250    0.0000 C.3     1  LIG1        0.0449
     21 C          -2.1000    1.5460    0.0000 C.3     1  LIG1        0.1430
     22 O          -1.2790    1.9830    0.0000 O.3     1  LIG1       -0.3537
     23 C          -0.5130    1.5460    0.0000 C.3     1  LIG1        0.1430
     24 C          -0.5130    0.7250    0.0000 C.3     1  LIG1        0.0449
     25 O          -0.2790   -1.4290    0.0000 O.2     1  LIG1       -0.2727
@<TRIPOS>BOND
     1     1     2   am
     2     1    13    1
     3     1    25    2
     4     2     3    1
     5     3     4   ar
     6     3     8   ar
     7     4     5   ar
     8     4    12   ar
     9     5     6   ar
    10     5     9   ar
    11     6     7   ar
    12     7     8   ar
    13     9    10   ar
    14    10    11   ar
    15    11    12   ar
    16    13    14    1
    17    13    20    1
    18    13    24    1
    19    14    15   ar
    20    14    19   ar
    21    15    16   ar
    22    16    17   ar
    23    17    18   ar
    24    18    19   ar
    25    20    21    1
    26    21    22    1
    27    22    23    1
    28    23    24    1
