@<TRIPOS>MOLECULE
29666_ChemDiv_8012-6089
 29 34 0 0 0
SMALL
GASTEIGER
Energy = 0

@<TRIPOS>ATOM
      1 S           1.6750    0.3580    0.0000 S.O2    1  LIG1        0.0649
      2 C           2.6880    0.3420    0.0000 C.ar    1  LIG1        0.1379
      3 C           3.1460   -0.5250    0.0000 C.ar    1  LIG1        0.1270
      4 C           4.1710   -0.5500    0.0000 C.ar    1  LIG1        0.1102
      5 N           4.4580   -1.5000    0.0000 N.ar    1  LIG1       -0.1901
      6 S           3.6290   -2.0830    0.0000 S.2     1  LIG1        0.1165
      7 N           2.8130   -1.4790    0.0000 N.ar    1  LIG1       -0.1888
      8 C           4.7130    0.2670    0.0000 C.ar    1  LIG1        0.0211
      9 C           4.2460    1.2040    0.0000 C.ar    1  LIG1       -0.0013
     10 C           3.2540    1.2040    0.0000 C.ar    1  LIG1       -0.0016
     11 C           2.7830    2.0880    0.0000 C.3     1  LIG1        0.0325
     12 N           0.6750    0.3420    0.0000 N.3     1  LIG1       -0.1433
     13 C           0.1630   -0.5170    0.0000 C.3     1  LIG1        0.1584
     14 C          -0.8460   -0.5170    0.0000 C.3     1  LIG1        0.1575
     15 N          -1.3420    0.3500    0.0000 N.4     1  LIG1        0.3713
     16 C          -2.3380    0.3830    0.0000 C.3     1  LIG1        0.0457
     17 C          -3.0920   -0.3670    0.0000 C.3     1  LIG1        0.0512
     18 C          -3.8540    0.2000    0.0000 C.3     1  LIG1        0.0055
     19 C          -4.7170    0.0040    0.0000 C.3     1  LIG1        0.0004
     20 C          -4.0670    0.8130    0.0000 C.3     1  LIG1        0.0055
     21 C          -3.2580    0.2380    0.0000 C.3     1  LIG1        0.0512
     22 C          -3.8710    1.8210    0.0000 C.3     1  LIG1        0.0004
     23 C          -2.9830    2.0130    0.0000 C.3     1  LIG1        0.0055
     24 C          -2.1460    1.3210    0.0000 C.3     1  LIG1        0.0512
     25 C          -3.6580    1.2250    0.0000 C.3     1  LIG1        0.0004
     26 C          -0.7920    1.2040    0.0000 C.3     1  LIG1        0.1575
     27 C           0.1920    1.1750    0.0000 C.3     1  LIG1        0.1584
     28 O           1.6670   -0.6130    0.0000 O.2     1  LIG1       -0.1527
     29 O           1.7250    1.4000    0.0000 O.2     1  LIG1       -0.1527
@<TRIPOS>BOND
     1     1     2    1
     2     1    12    1
     3     1    28    2
     4     1    29    2
     5     2     3   ar
     6     2    10   ar
     7     3     4   ar
     8     3     7   ar
     9     4     5   ar
    10     4     8   ar
    11     5     6   ar
    12     6     7   ar
    13     8     9   ar
    14     9    10   ar
    15    10    11    1
    16    12    13    1
    17    12    27    1
    18    13    14    1
    19    14    15    1
    20    15    16    1
    21    15    26    1
    22    16    17    1
    23    16    21    1
    24    16    24    1
    25    17    18    1
    26    18    19    1
    27    18    25    1
    28    19    20    1
    29    20    21    1
    30    20    22    1
    31    22    23    1
    32    23    24    1
    33    23    25    1
    34    26    27    1
