@<TRIPOS>MOLECULE
29662_ChemDiv_5662-0352
 27 29 0 0 0
SMALL
GASTEIGER
Energy = 0

@<TRIPOS>ATOM
      1 C           0.4330   -0.4880    0.0000 C.2     1  LIG1        0.2486
      2 C          -0.4380    0.0210    0.0000 C.3     1  LIG1        0.0945
      3 C          -1.3130   -0.5040    0.0000 C.ar    1  LIG1       -0.0112
      4 C          -2.1750    0.0080    0.0000 C.ar    1  LIG1        0.0362
      5 C          -3.0460   -0.5040    0.0000 C.ar    1  LIG1        0.1721
      6 C          -3.0460   -1.5080    0.0000 C.ar    1  LIG1        0.1724
      7 C          -2.1750   -2.0040    0.0000 C.ar    1  LIG1        0.0397
      8 C          -1.3130   -1.5080    0.0000 C.ar    1  LIG1       -0.0005
      9 O          -3.9170   -2.0040    0.0000 O.3     1  LIG1       -0.4684
     10 C          -4.7830   -1.5080    0.0000 C.3     1  LIG1        0.2526
     11 O          -3.9080   -0.0040    0.0000 O.3     1  LIG1       -0.4684
     12 C          -3.9170    0.9920    0.0000 C.3     1  LIG1        0.2526
     13 C          -1.3130    0.5080    0.0000 C.3     1  LIG1        0.0449
     14 C          -1.3130    1.5000    0.0000 C.3     1  LIG1        0.1430
     15 O          -0.4380    2.0080    0.0000 O.3     1  LIG1       -0.3537
     16 C           0.4170    1.5000    0.0000 C.3     1  LIG1        0.1430
     17 C           0.4170    0.5080    0.0000 C.3     1  LIG1        0.0449
     18 N           1.2830    0.0210    0.0000 N.am    1  LIG1       -0.1790
     19 C           2.1710   -0.4630    0.0000 C.ar    1  LIG1        0.0730
     20 C           3.0210    0.0420    0.0000 C.ar    1  LIG1        0.0120
     21 C           3.8880   -0.4420    0.0000 C.ar    1  LIG1       -0.0245
     22 C           3.9040   -1.4500    0.0000 C.ar    1  LIG1       -0.0257
     23 C           3.0420   -1.9580    0.0000 C.ar    1  LIG1       -0.0032
     24 C           2.1710   -1.4750    0.0000 C.ar    1  LIG1        0.0163
     25 C           4.7790   -1.9420    0.0000 C.3     1  LIG1        0.0307
     26 C           4.7380    0.0670    0.0000 C.3     1  LIG1        0.0307
     27 O           0.4330   -1.4790    0.0000 O.2     1  LIG1       -0.2727
@<TRIPOS>BOND
     1     1     2    1
     2     1    18   am
     3     1    27    2
     4     2     3    1
     5     2    13    1
     6     2    17    1
     7     3     4   ar
     8     3     8   ar
     9     4     5   ar
    10     5     6   ar
    11     5    11    1
    12     6     7   ar
    13     6     9    1
    14     7     8   ar
    15     9    10    1
    16    11    12    1
    17    13    14    1
    18    14    15    1
    19    15    16    1
    20    16    17    1
    21    18    19    1
    22    19    20   ar
    23    19    24   ar
    24    20    21   ar
    25    21    22   ar
    26    21    26    1
    27    22    23   ar
    28    22    25    1
    29    23    24   ar
