@<TRIPOS>MOLECULE
29667_ChemDiv_8008-7686
 25 28 0 0 0
SMALL
GASTEIGER
Energy = 0

@<TRIPOS>ATOM
      1 N          -1.8830   -0.9130    0.0000 N.ar    1  LIG1       -0.1905
      2 C          -0.8710   -0.9130    0.0000 C.ar    1  LIG1        0.0956
      3 C          -0.5790   -1.8830    0.0000 C.ar    1  LIG1        0.1328
      4 N          -1.4080   -2.4540    0.0000 N.ar    1  LIG1       -0.1276
      5 N          -2.2080   -1.8830    0.0000 N.ar    1  LIG1       -0.0583
      6 C           0.3710   -2.1960    0.0000 C.2     1  LIG1        0.0935
      7 O           1.1170   -1.5420    0.0000 O.co2   1  LIG1       -0.5429
      8 O           0.5500   -3.2040    0.0000 O.co2   1  LIG1       -0.5429
      9 C          -0.2080   -0.1580    0.0000 C.3     1  LIG1        0.1115
     10 S           0.7670   -0.3710    0.0000 S.3     1  LIG1       -0.0819
     11 C           1.4420    0.3790    0.0000 C.ar    1  LIG1        0.1367
     12 N           1.1960    1.3250    0.0000 N.ar    1  LIG1       -0.2320
     13 C           2.0210    1.8790    0.0000 C.ar    1  LIG1        0.0884
     14 C           2.8040    1.2420    0.0000 C.ar    1  LIG1        0.0490
     15 S           2.4290    0.3210    0.0000 S.2     1  LIG1       -0.0603
     16 C           3.7330    1.5790    0.0000 C.ar    1  LIG1        0.0080
     17 C           3.9040    2.5710    0.0000 C.ar    1  LIG1        0.0006
     18 C           3.1290    3.2080    0.0000 C.ar    1  LIG1        0.0016
     19 C           2.2040    2.8670    0.0000 C.ar    1  LIG1        0.0196
     20 C          -2.5210   -0.1290    0.0000 C.ar    1  LIG1        0.2440
     21 C          -2.2960    0.8330    0.0000 C.ar    1  LIG1        0.2492
     22 N          -3.1500    1.3250    0.0000 N.ar    1  LIG1       -0.0281
     23 O          -3.9080    0.7040    0.0000 O.2     1  LIG1       -0.2386
     24 N          -3.5080   -0.2040    0.0000 N.ar    1  LIG1       -0.0271
     25 N          -1.3420    1.2420    0.0000 N.pl3   1  LIG1       -0.1002
@<TRIPOS>BOND
     1     1     2   ar
     2     1     5   ar
     3     1    20    1
     4     2     3   ar
     5     2     9    1
     6     3     4   ar
     7     3     6    1
     8     4     5   ar
     9     6     7   ar
    10     6     8   ar
    11     9    10    1
    12    10    11    1
    13    11    12   ar
    14    11    15   ar
    15    12    13   ar
    16    13    14   ar
    17    13    19   ar
    18    14    15   ar
    19    14    16   ar
    20    16    17   ar
    21    17    18   ar
    22    18    19   ar
    23    20    21   ar
    24    20    24   ar
    25    21    22   ar
    26    21    25    1
    27    22    23   ar
    28    23    24   ar
