@<TRIPOS>MOLECULE
29664_ChemDiv_6136-0022
 31 34 0 0 0
SMALL
GASTEIGER
Energy = 0

@<TRIPOS>ATOM
      1 C          -0.6830   -0.0830    0.0000 C.2     1  LIG1        0.2486
      2 C          -1.5920    0.4380    0.0000 C.3     1  LIG1        0.0944
      3 C          -2.6040    0.1580    0.0000 C.ar    1  LIG1       -0.0142
      4 C          -3.1250    1.0830    0.0000 C.ar    1  LIG1       -0.0007
      5 C          -4.1790    1.0830    0.0000 C.ar    1  LIG1        0.0366
      6 C          -4.7170    0.1790    0.0000 C.ar    1  LIG1        0.1387
      7 C          -4.1960   -0.7330    0.0000 C.ar    1  LIG1        0.0366
      8 C          -3.1420   -0.7460    0.0000 C.ar    1  LIG1       -0.0007
      9 O          -5.7710    0.1960    0.0000 O.3     1  LIG1       -0.4714
     10 C          -6.2960    1.1130    0.0000 C.3     1  LIG1        0.2525
     11 C          -2.3380    0.8710    0.0000 C.3     1  LIG1        0.0449
     12 C          -2.3380    1.7380    0.0000 C.3     1  LIG1        0.1430
     13 O          -1.5920    2.1750    0.0000 O.3     1  LIG1       -0.3537
     14 C          -0.8330    1.7380    0.0000 C.3     1  LIG1        0.1430
     15 C          -0.8330    0.8710    0.0000 C.3     1  LIG1        0.0449
     16 N           0.2250    0.4460    0.0000 N.am    1  LIG1       -0.1790
     17 C           1.2380    0.4460    0.0000 C.ar    1  LIG1        0.0734
     18 C           1.7380   -0.4330    0.0000 C.ar    1  LIG1        0.0167
     19 C           2.7540   -0.4330    0.0000 C.ar    1  LIG1        0.0058
     20 C           3.2630    0.4460    0.0000 C.ar    1  LIG1        0.0537
     21 C           4.2790    0.4460    0.0000 C.2     1  LIG1        0.2492
     22 N           4.7830   -0.4250    0.0000 N.am    1  LIG1       -0.2709
     23 C           4.2830   -1.3040    0.0000 C.3     1  LIG1        0.1258
     24 C           4.7830   -2.1710    0.0000 C.3     1  LIG1        0.1637
     25 O           5.7960   -2.1710    0.0000 O.3     1  LIG1       -0.3501
     26 C           6.2960   -1.2960    0.0000 C.3     1  LIG1        0.1637
     27 C           5.7920   -0.4170    0.0000 C.3     1  LIG1        0.1258
     28 O           4.7830    1.3250    0.0000 O.2     1  LIG1       -0.2699
     29 C           2.7540    1.3250    0.0000 C.ar    1  LIG1        0.0058
     30 C           1.7380    1.3250    0.0000 C.ar    1  LIG1        0.0167
     31 O          -0.6830   -1.1000    0.0000 O.2     1  LIG1       -0.2727
@<TRIPOS>BOND
     1     1     2    1
     2     1    16   am
     3     1    31    2
     4     2     3    1
     5     2    11    1
     6     2    15    1
     7     3     4   ar
     8     3     8   ar
     9     4     5   ar
    10     5     6   ar
    11     6     7   ar
    12     6     9    1
    13     7     8   ar
    14     9    10    1
    15    11    12    1
    16    12    13    1
    17    13    14    1
    18    14    15    1
    19    16    17    1
    20    17    18   ar
    21    17    30   ar
    22    18    19   ar
    23    19    20   ar
    24    20    21    1
    25    20    29   ar
    26    21    22   am
    27    21    28    2
    28    22    23    1
    29    22    27    1
    30    23    24    1
    31    24    25    1
    32    25    26    1
    33    26    27    1
    34    29    30   ar
