@<TRIPOS>MOLECULE
29660_ChemDiv_4036-0127
 22 24 0 0 0
SMALL
GASTEIGER
Energy = 0

@<TRIPOS>ATOM
      1 C           0.4130    0.2290    0.0000 C.2     1  LIG1        0.2486
      2 C          -0.3790    0.7830    0.0000 C.3     1  LIG1        0.0944
      3 C          -1.2080    0.3170    0.0000 C.ar    1  LIG1       -0.0144
      4 C          -1.2080   -0.7000    0.0000 C.ar    1  LIG1       -0.0038
      5 C          -2.1290   -1.2330    0.0000 C.ar    1  LIG1       -0.0003
      6 C          -3.0630   -0.7210    0.0000 C.ar    1  LIG1       -0.0000
      7 C          -3.0630    0.2670    0.0000 C.ar    1  LIG1       -0.0003
      8 C          -2.1750    0.7830    0.0000 C.ar    1  LIG1       -0.0038
      9 C          -1.2380    1.2790    0.0000 C.3     1  LIG1        0.0449
     10 C          -1.2380    2.2540    0.0000 C.3     1  LIG1        0.1430
     11 O          -0.3790    2.7580    0.0000 O.3     1  LIG1       -0.3537
     12 C           0.4130    2.2540    0.0000 C.3     1  LIG1        0.1430
     13 C           0.4130    1.2790    0.0000 C.3     1  LIG1        0.0449
     14 N           0.4130   -0.7330    0.0000 N.am    1  LIG1       -0.1781
     15 C           1.2790   -1.2330    0.0000 C.ar    1  LIG1        0.0839
     16 C           2.1880   -0.7750    0.0000 C.ar    1  LIG1        0.0729
     17 CL          2.1880    0.2210    0.0000 Cl      1  LIG1       -0.0809
     18 C           3.0580   -1.2630    0.0000 C.ar    1  LIG1        0.0127
     19 C           3.0580   -2.2750    0.0000 C.ar    1  LIG1        0.0010
     20 C           2.1880   -2.7540    0.0000 C.ar    1  LIG1        0.0014
     21 C           1.2790   -2.2380    0.0000 C.ar    1  LIG1        0.0175
     22 O           1.2830    0.7380    0.0000 O.2     1  LIG1       -0.2727
@<TRIPOS>BOND
     1     1     2    1
     2     1    14   am
     3     1    22    2
     4     2     3    1
     5     2     9    1
     6     2    13    1
     7     3     4   ar
     8     3     8   ar
     9     4     5   ar
    10     5     6   ar
    11     6     7   ar
    12     7     8   ar
    13     9    10    1
    14    10    11    1
    15    11    12    1
    16    12    13    1
    17    14    15    1
    18    15    16   ar
    19    15    21   ar
    20    16    17    1
    21    16    18   ar
    22    18    19   ar
    23    19    20   ar
    24    20    21   ar
