@<TRIPOS>MOLECULE
29679_ChemDiv_5461-0020
 23 24 0 0 0
SMALL
GASTEIGER
Energy = 0

@<TRIPOS>ATOM
      1 S          -2.7080   -2.9710    0.0000 S.2     1  LIG1       -0.0435
      2 C          -2.4040   -2.0250    0.0000 C.ar    1  LIG1        0.1596
      3 N          -3.1920   -1.4420    0.0000 N.ar    1  LIG1       -0.1347
      4 N          -4.0210   -2.0250    0.0000 N.ar    1  LIG1       -0.1448
      5 C          -3.7040   -2.9710    0.0000 C.ar    1  LIG1        0.1120
      6 C          -4.2830   -3.7880    0.0000 C.3     1  LIG1        0.0614
      7 S          -1.4460   -1.7250    0.0000 S.3     1  LIG1       -0.0768
      8 C          -1.2380   -0.7380    0.0000 C.3     1  LIG1        0.1510
      9 C          -0.2830   -0.4330    0.0000 C.2     1  LIG1        0.2570
     10 N          -0.0670    0.5330    0.0000 N.am    1  LIG1       -0.1785
     11 C           0.8830    0.8380    0.0000 C.ar    1  LIG1        0.0735
     12 C           1.6330    0.1710    0.0000 C.ar    1  LIG1        0.0177
     13 C           2.5830    0.4750    0.0000 C.ar    1  LIG1        0.0153
     14 C           3.3170   -0.1920    0.0000 C.2     1  LIG1        0.0729
     15 O           4.2790    0.1130    0.0000 O.co2   1  LIG1       -0.5446
     16 O           3.1040   -1.1790    0.0000 O.co2   1  LIG1       -0.5446
     17 C           2.7830    1.4460    0.0000 C.ar    1  LIG1        0.0023
     18 C           2.0580    2.1210    0.0000 C.ar    1  LIG1        0.0153
     19 C           2.2790    3.1080    0.0000 C.2     1  LIG1        0.0729
     20 O           1.5380    3.7920    0.0000 O.co2   1  LIG1       -0.5446
     21 O           3.2330    3.3960    0.0000 O.co2   1  LIG1       -0.5446
     22 C           1.1000    1.8080    0.0000 C.ar    1  LIG1        0.0177
     23 O           0.4580   -1.1000    0.0000 O.2     1  LIG1       -0.2720
@<TRIPOS>BOND
     1     1     2   ar
     2     1     5   ar
     3     2     3   ar
     4     2     7    1
     5     3     4   ar
     6     4     5   ar
     7     5     6    1
     8     7     8    1
     9     8     9    1
    10     9    10   am
    11     9    23    2
    12    10    11    1
    13    11    12   ar
    14    11    22   ar
    15    12    13   ar
    16    13    14    1
    17    13    17   ar
    18    14    15   ar
    19    14    16   ar
    20    17    18   ar
    21    18    19    1
    22    18    22   ar
    23    19    20   ar
    24    19    21   ar
