@<TRIPOS>MOLECULE
29674_ChemDiv_K893-0837
 23 25 0 0 0
SMALL
GASTEIGER
Energy = 0

@<TRIPOS>ATOM
      1 S           0.9130    0.6960    0.0000 S.O2    1  LIG1        0.0649
      2 C           1.7330    1.2250    0.0000 C.ar    1  LIG1        0.1419
      3 C           1.6960    2.2130    0.0000 C.ar    1  LIG1        0.1273
      4 N           0.9250    2.8540    0.0000 N.ar    1  LIG1       -0.1888
      5 S           1.2920    3.7750    0.0000 S.2     1  LIG1        0.1165
      6 N           2.2960    3.7380    0.0000 N.ar    1  LIG1       -0.1901
      7 C           2.5540    2.7750    0.0000 C.ar    1  LIG1        0.1102
      8 C           3.4460    2.3290    0.0000 C.ar    1  LIG1        0.0214
      9 C           3.4790    1.3000    0.0000 C.ar    1  LIG1        0.0030
     10 C           2.6540    0.7880    0.0000 C.ar    1  LIG1        0.0216
     11 N           0.0420    0.1960    0.0000 N.3     1  LIG1       -0.1520
     12 C          -0.8080    0.6830    0.0000 C.3     1  LIG1        0.1174
     13 C          -1.6750    0.2000    0.0000 C.3     1  LIG1        0.1159
     14 N          -1.7080   -0.7960    0.0000 N.am    1  LIG1       -0.2430
     15 C          -2.5710   -1.2960    0.0000 C.2     1  LIG1        0.4049
     16 O          -3.4460   -0.7790    0.0000 O.2     1  LIG1       -0.2262
     17 O          -2.5960   -2.2960    0.0000 O.3     1  LIG1       -0.4345
     18 C          -3.4670   -2.7710    0.0000 C.3     1  LIG1        0.2102
     19 C          -3.4830   -3.7710    0.0000 C.3     1  LIG1        0.0513
     20 C          -0.8250   -1.2960    0.0000 C.3     1  LIG1        0.1159
     21 C           0.0420   -0.8080    0.0000 C.3     1  LIG1        0.1174
     22 O           1.4710   -0.1710    0.0000 O.2     1  LIG1       -0.1527
     23 O           0.3790    1.5080    0.0000 O.2     1  LIG1       -0.1527
@<TRIPOS>BOND
     1     1     2    1
     2     1    11    1
     3     1    22    2
     4     1    23    2
     5     2     3   ar
     6     2    10   ar
     7     3     4   ar
     8     3     7   ar
     9     4     5   ar
    10     5     6   ar
    11     6     7   ar
    12     7     8   ar
    13     8     9   ar
    14     9    10   ar
    15    11    12    1
    16    11    21    1
    17    12    13    1
    18    13    14    1
    19    14    15   am
    20    14    20    1
    21    15    16    2
    22    15    17    1
    23    17    18    1
    24    18    19    1
    25    20    21    1
