@<TRIPOS>MOLECULE
29682_ChemDiv_6136-0024
 30 33 0 0 0
SMALL
GASTEIGER
Energy = 0

@<TRIPOS>ATOM
      1 C          -0.6750   -0.0880    0.0000 C.2     1  LIG1        0.2486
      2 C          -1.5630    0.4290    0.0000 C.3     1  LIG1        0.0944
      3 C          -2.5540    0.1540    0.0000 C.ar    1  LIG1       -0.0142
      4 C          -3.0790   -0.7250    0.0000 C.ar    1  LIG1       -0.0007
      5 C          -4.1080   -0.7210    0.0000 C.ar    1  LIG1        0.0366
      6 C          -4.6210    0.1790    0.0000 C.ar    1  LIG1        0.1387
      7 C          -4.0960    1.0580    0.0000 C.ar    1  LIG1        0.0366
      8 C          -3.0630    1.0500    0.0000 C.ar    1  LIG1       -0.0007
      9 O          -5.6500    0.1920    0.0000 O.3     1  LIG1       -0.4714
     10 C          -6.1540    1.0880    0.0000 C.3     1  LIG1        0.2525
     11 C          -0.8210    0.8460    0.0000 C.3     1  LIG1        0.0449
     12 C          -0.8210    1.7040    0.0000 C.3     1  LIG1        0.1430
     13 O          -1.5630    2.1330    0.0000 O.3     1  LIG1       -0.3537
     14 C          -2.2920    1.7040    0.0000 C.3     1  LIG1        0.1430
     15 C          -2.2920    0.8460    0.0000 C.3     1  LIG1        0.0449
     16 N           0.2170    0.4290    0.0000 N.am    1  LIG1       -0.1790
     17 C           1.2080    0.4290    0.0000 C.ar    1  LIG1        0.0734
     18 C           1.6960    1.2880    0.0000 C.ar    1  LIG1        0.0167
     19 C           2.6880    1.2920    0.0000 C.ar    1  LIG1        0.0058
     20 C           3.1880    0.4290    0.0000 C.ar    1  LIG1        0.0537
     21 C           4.1790    0.4290    0.0000 C.2     1  LIG1        0.2490
     22 N           4.6750   -0.4170    0.0000 N.am    1  LIG1       -0.2761
     23 C           4.1830   -1.2750    0.0000 C.3     1  LIG1        0.0938
     24 C           4.6750   -2.1290    0.0000 C.3     1  LIG1        0.0233
     25 C           6.1540   -1.2750    0.0000 C.3     1  LIG1        0.0233
     26 C           5.6630   -0.4170    0.0000 C.3     1  LIG1        0.0938
     27 O           4.6750    1.2920    0.0000 O.2     1  LIG1       -0.2699
     28 C           2.6880   -0.4290    0.0000 C.ar    1  LIG1        0.0058
     29 C           1.6960   -0.4290    0.0000 C.ar    1  LIG1        0.0167
     30 O          -0.6750   -1.0830    0.0000 O.2     1  LIG1       -0.2727
@<TRIPOS>BOND
     1     1     2    1
     2     1    16   am
     3     1    30    2
     4     2     3    1
     5     2    11    1
     6     2    15    1
     7     3     4   ar
     8     3     8   ar
     9     4     5   ar
    10     5     6   ar
    11     6     7   ar
    12     6     9    1
    13     7     8   ar
    14     9    10    1
    15    11    12    1
    16    12    13    1
    17    13    14    1
    18    14    15    1
    19    16    17    1
    20    17    18   ar
    21    17    29   ar
    22    18    19   ar
    23    19    20   ar
    24    20    21    1
    25    20    28   ar
    26    21    22   am
    27    21    27    2
    28    22    23    1
    29    22    26    1
    30    23    24    1
    31    24    25    1
    32    25    26    1
    33    28    29   ar
