@<TRIPOS>MOLECULE
29684_ChemDiv_6136-0025
 30 32 0 0 0
SMALL
GASTEIGER
Energy = 0

@<TRIPOS>ATOM
      1 C          -0.9170   -0.5330    0.0000 C.2     1  LIG1        0.2486
      2 C          -1.8290   -0.0130    0.0000 C.3     1  LIG1        0.0944
      3 C          -2.8420   -0.2880    0.0000 C.ar    1  LIG1       -0.0142
      4 C          -3.3630    0.6380    0.0000 C.ar    1  LIG1       -0.0007
      5 C          -4.4210    0.6380    0.0000 C.ar    1  LIG1        0.0366
      6 C          -4.9580   -0.2670    0.0000 C.ar    1  LIG1        0.1387
      7 C          -4.4380   -1.1830    0.0000 C.ar    1  LIG1        0.0366
      8 C          -3.3790   -1.1920    0.0000 C.ar    1  LIG1       -0.0007
      9 O          -6.0080   -0.2540    0.0000 O.3     1  LIG1       -0.4714
     10 C          -6.5290    0.6670    0.0000 C.3     1  LIG1        0.2525
     11 C          -2.5750    0.4250    0.0000 C.3     1  LIG1        0.0449
     12 C          -2.5750    1.2960    0.0000 C.3     1  LIG1        0.1430
     13 O          -1.8290    1.7330    0.0000 O.3     1  LIG1       -0.3537
     14 C          -1.0710    1.2960    0.0000 C.3     1  LIG1        0.1430
     15 C          -1.0710    0.4250    0.0000 C.3     1  LIG1        0.0449
     16 N          -0.0080    0.0000    0.0000 N.am    1  LIG1       -0.1790
     17 C           1.0080    0.0000    0.0000 C.ar    1  LIG1        0.0734
     18 C           1.5080   -0.8790    0.0000 C.ar    1  LIG1        0.0167
     19 C           2.5250   -0.8790    0.0000 C.ar    1  LIG1        0.0059
     20 C           3.0380    0.0000    0.0000 C.ar    1  LIG1        0.0551
     21 C           4.0540    0.0000    0.0000 C.2     1  LIG1        0.2647
     22 N           4.5580   -0.8750    0.0000 N.am    1  LIG1       -0.2051
     23 C           5.5710   -0.8670    0.0000 C.3     1  LIG1        0.0791
     24 C           6.0750   -1.7290    0.0000 C.3     1  LIG1        0.0217
     25 C           6.2710   -0.1540    0.0000 C.3     1  LIG1        0.0217
     26 C           6.5290   -1.1210    0.0000 C.3     1  LIG1        0.0217
     27 O           4.5580    0.8790    0.0000 O.2     1  LIG1       -0.2684
     28 C           2.5250    0.8790    0.0000 C.ar    1  LIG1        0.0059
     29 C           1.5080    0.8790    0.0000 C.ar    1  LIG1        0.0167
     30 O          -0.9170   -1.5460    0.0000 O.2     1  LIG1       -0.2727
@<TRIPOS>BOND
     1     1     2    1
     2     1    16   am
     3     1    30    2
     4     2     3    1
     5     2    11    1
     6     2    15    1
     7     3     4   ar
     8     3     8   ar
     9     4     5   ar
    10     5     6   ar
    11     6     7   ar
    12     6     9    1
    13     7     8   ar
    14     9    10    1
    15    11    12    1
    16    12    13    1
    17    13    14    1
    18    14    15    1
    19    16    17    1
    20    17    18   ar
    21    17    29   ar
    22    18    19   ar
    23    19    20   ar
    24    20    21    1
    25    20    28   ar
    26    21    22   am
    27    21    27    2
    28    22    23    1
    29    23    24    1
    30    23    25    1
    31    23    26    1
    32    28    29   ar
