@<TRIPOS>MOLECULE
29688_ChemDiv_6213-0040
 24 26 0 0 0
SMALL
GASTEIGER
Energy = 0

@<TRIPOS>ATOM
      1 C           0.0920    1.0500    0.0000 C.2     1  LIG1        0.2486
      2 C          -0.6250    1.7460    0.0000 C.3     1  LIG1        0.0944
      3 C          -1.6210    1.7460    0.0000 C.ar    1  LIG1       -0.0144
      4 C          -2.1210    2.6210    0.0000 C.ar    1  LIG1       -0.0038
      5 C          -3.1170    2.6210    0.0000 C.ar    1  LIG1       -0.0003
      6 C          -3.6170    1.7500    0.0000 C.ar    1  LIG1       -0.0000
      7 C          -3.1130    0.8830    0.0000 C.ar    1  LIG1       -0.0003
      8 C          -2.1210    0.8880    0.0000 C.ar    1  LIG1       -0.0038
      9 C          -1.4790    2.2460    0.0000 C.3     1  LIG1        0.0449
     10 C          -1.4790    3.2420    0.0000 C.3     1  LIG1        0.1430
     11 O          -0.6250    3.7420    0.0000 O.3     1  LIG1       -0.3537
     12 C           0.2380    3.2420    0.0000 C.3     1  LIG1        0.1430
     13 C           0.2380    2.2460    0.0000 C.3     1  LIG1        0.0449
     14 N          -0.1790    0.0710    0.0000 N.am    1  LIG1       -0.1790
     15 C           0.5290   -0.6290    0.0000 C.ar    1  LIG1        0.0734
     16 C           0.2580   -1.6040    0.0000 C.ar    1  LIG1        0.0166
     17 C           0.9670   -2.3170    0.0000 C.ar    1  LIG1        0.0025
     18 C           1.9330   -2.0630    0.0000 C.ar    1  LIG1        0.0141
     19 C           2.6460   -2.7670    0.0000 C.2     1  LIG1        0.0729
     20 O           3.6130   -2.5130    0.0000 O.co2   1  LIG1       -0.5446
     21 O           2.3830   -3.7380    0.0000 O.co2   1  LIG1       -0.5446
     22 C           2.2000   -1.0790    0.0000 C.ar    1  LIG1        0.0025
     23 C           1.4920   -0.3790    0.0000 C.ar    1  LIG1        0.0166
     24 O           1.0580    1.3080    0.0000 O.2     1  LIG1       -0.2727
@<TRIPOS>BOND
     1     1     2    1
     2     1    14   am
     3     1    24    2
     4     2     3    1
     5     2     9    1
     6     2    13    1
     7     3     4   ar
     8     3     8   ar
     9     4     5   ar
    10     5     6   ar
    11     6     7   ar
    12     7     8   ar
    13     9    10    1
    14    10    11    1
    15    11    12    1
    16    12    13    1
    17    14    15    1
    18    15    16   ar
    19    15    23   ar
    20    16    17   ar
    21    17    18   ar
    22    18    19    1
    23    18    22   ar
    24    19    20   ar
    25    19    21   ar
    26    22    23   ar
