@<TRIPOS>MOLECULE
29680_ChemDiv_3527-0139
 26 29 0 0 0
SMALL
GASTEIGER
Energy = 0

@<TRIPOS>ATOM
      1 N          -2.7210    0.1210    0.0000 N.am    1  LIG1       -0.1879
      2 C          -2.7210   -0.8790    0.0000 C.2     1  LIG1        0.1702
      3 N          -3.5880   -1.3920    0.0000 N.2     1  LIG1       -0.1932
      4 C          -4.4380   -0.8790    0.0000 C.3     1  LIG1        0.2781
      5 N          -4.4380    0.1210    0.0000 N.4     1  LIG1        0.4178
      6 C          -3.5880    0.6210    0.0000 C.3     1  LIG1        0.2538
      7 C          -5.3080    0.6210    0.0000 C.3     1  LIG1        0.2078
      8 S          -1.7670   -1.1920    0.0000 S.3     1  LIG1       -0.0675
      9 C          -1.1710   -0.3790    0.0000 C.3     1  LIG1        0.1692
     10 C          -1.7670    0.4380    0.0000 C.2     1  LIG1        0.2486
     11 O          -1.4540    1.3880    0.0000 O.2     1  LIG1       -0.2733
     12 C          -0.7040    0.5290    0.0000 C.3     1  LIG1        0.1666
     13 O           0.3000    0.5290    0.0000 O.3     1  LIG1       -0.3256
     14 C           0.7880   -0.3420    0.0000 C.3     1  LIG1        0.2601
     15 O           0.3000   -1.2080    0.0000 O.3     1  LIG1       -0.3256
     16 C          -0.7040   -1.2080    0.0000 C.3     1  LIG1        0.1666
     17 C           1.7880   -0.3420    0.0000 C.ar    1  LIG1        0.0368
     18 C           2.3000    0.5290    0.0000 C.ar    1  LIG1        0.0406
     19 C           3.3000    0.5290    0.0000 C.ar    1  LIG1        0.1722
     20 C           3.7920   -0.3420    0.0000 C.ar    1  LIG1        0.1724
     21 C           3.3000   -1.2080    0.0000 C.ar    1  LIG1        0.0399
     22 C           2.3000   -1.2080    0.0000 C.ar    1  LIG1        0.0039
     23 O           4.7920   -0.3420    0.0000 O.3     1  LIG1       -0.4684
     24 C           5.3040   -1.2080    0.0000 C.3     1  LIG1        0.2526
     25 O           3.7920    1.3960    0.0000 O.3     1  LIG1       -0.4684
     26 C           4.7920    1.3960    0.0000 C.3     1  LIG1        0.2526
@<TRIPOS>BOND
     1     1     2    1
     2     1     6    1
     3     1    10   am
     4     2     3    2
     5     2     8    1
     6     3     4    1
     7     4     5    1
     8     5     6    1
     9     5     7    1
    10     8     9    1
    11     9    10    1
    12     9    12    1
    13     9    16    1
    14    10    11    2
    15    12    13    1
    16    13    14    1
    17    14    15    1
    18    14    17    1
    19    15    16    1
    20    17    18   ar
    21    17    22   ar
    22    18    19   ar
    23    19    20   ar
    24    19    25    1
    25    20    21   ar
    26    20    23    1
    27    21    22   ar
    28    23    24    1
    29    25    26    1
