@<TRIPOS>MOLECULE
29686_ChemDiv_6136-0026
 24 26 0 0 0
SMALL
GASTEIGER
Energy = 0

@<TRIPOS>ATOM
      1 C           0.3250   -0.6250    0.0000 C.2     1  LIG1        0.2486
      2 C          -0.5790   -0.1000    0.0000 C.3     1  LIG1        0.0944
      3 C          -1.5960   -0.3790    0.0000 C.ar    1  LIG1       -0.0142
      4 C          -2.1290    0.5460    0.0000 C.ar    1  LIG1       -0.0007
      5 C          -3.1750    0.5460    0.0000 C.ar    1  LIG1        0.0366
      6 C          -3.7210   -0.3580    0.0000 C.ar    1  LIG1        0.1387
      7 C          -3.1960   -1.2750    0.0000 C.ar    1  LIG1        0.0366
      8 C          -2.1420   -1.2880    0.0000 C.ar    1  LIG1       -0.0007
      9 O          -4.7750   -0.3460    0.0000 O.3     1  LIG1       -0.4714
     10 C          -5.3000    0.5750    0.0000 C.3     1  LIG1        0.2525
     11 C           0.1750    0.3330    0.0000 C.3     1  LIG1        0.0449
     12 C           0.1750    1.2130    0.0000 C.3     1  LIG1        0.1430
     13 O          -0.5790    1.6460    0.0000 O.3     1  LIG1       -0.3537
     14 C          -1.3380    1.2130    0.0000 C.3     1  LIG1        0.1430
     15 C          -1.3380    0.3330    0.0000 C.3     1  LIG1        0.0449
     16 N           1.2380   -0.0920    0.0000 N.am    1  LIG1       -0.1790
     17 C           2.2460   -0.0920    0.0000 C.ar    1  LIG1        0.0734
     18 C           2.7630    0.7880    0.0000 C.ar    1  LIG1        0.0171
     19 C           3.7750    0.7880    0.0000 C.ar    1  LIG1        0.0080
     20 C           4.2790   -0.0920    0.0000 C.ar    1  LIG1        0.0347
     21 BR          5.2960   -0.0920    0.0000 Br      1  LIG1       -0.0490
     22 C           3.7790   -0.9710    0.0000 C.ar    1  LIG1        0.0080
     23 C           2.7630   -0.9710    0.0000 C.ar    1  LIG1        0.0171
     24 O           0.3250   -1.6420    0.0000 O.2     1  LIG1       -0.2727
@<TRIPOS>BOND
     1     1     2    1
     2     1    16   am
     3     1    24    2
     4     2     3    1
     5     2    11    1
     6     2    15    1
     7     3     4   ar
     8     3     8   ar
     9     4     5   ar
    10     5     6   ar
    11     6     7   ar
    12     6     9    1
    13     7     8   ar
    14     9    10    1
    15    11    12    1
    16    12    13    1
    17    13    14    1
    18    14    15    1
    19    16    17    1
    20    17    18   ar
    21    17    23   ar
    22    18    19   ar
    23    19    20   ar
    24    20    21    1
    25    20    22   ar
    26    22    23   ar
