@<TRIPOS>MOLECULE
29698_ChemDiv_3527-0141
 19 21 0 0 0
SMALL
GASTEIGER
Energy = 0

@<TRIPOS>ATOM
      1 N          -2.8460    0.5040    0.0000 N.am    1  LIG1        0.0009
      2 C          -2.8460   -0.5080    0.0000 C.2     1  LIG1        0.4404
      3 N          -1.8830   -0.8170    0.0000 N.pl3   1  LIG1       -0.1833
      4 C          -1.3000    0.0000    0.0000 C.3     1  LIG1        0.2461
      5 C          -1.8830    0.8080    0.0000 C.2     1  LIG1        0.3535
      6 O          -1.5790    1.7710    0.0000 O.2     1  LIG1       -0.2499
      7 C          -0.8460   -0.8330    0.0000 C.3     1  LIG1        0.1922
      8 O           0.1580   -0.8330    0.0000 O.3     1  LIG1       -0.3231
      9 C           0.6580    0.0330    0.0000 C.3     1  LIG1        0.2617
     10 O           0.1580    0.9040    0.0000 O.3     1  LIG1       -0.3231
     11 C          -0.8460    0.9040    0.0000 C.3     1  LIG1        0.1922
     12 C           1.6580    0.0330    0.0000 C.ar    1  LIG1        0.0528
     13 C           2.1580    0.9040    0.0000 C.ar    1  LIG1        0.0994
     14 N           3.1580    0.9040    0.0000 N.ar    1  LIG1       -0.2425
     15 C           3.6580    0.0330    0.0000 C.ar    1  LIG1        0.0989
     16 C           3.1580   -0.8330    0.0000 C.ar    1  LIG1        0.0205
     17 C           2.1580   -0.8330    0.0000 C.ar    1  LIG1        0.0037
     18 C          -1.5790   -1.7670    0.0000 C.3     1  LIG1        0.2081
     19 N          -3.6630   -1.0830    0.0000 N.pl3   1  LIG1        0.1415
@<TRIPOS>BOND
     1     1     2    2
     2     1     5   am
     3     2     3    1
     4     2    19    1
     5     3     4    1
     6     3    18    1
     7     4     5    1
     8     4     7    1
     9     4    11    1
    10     5     6    2
    11     7     8    1
    12     8     9    1
    13     9    10    1
    14     9    12    1
    15    10    11    1
    16    12    13   ar
    17    12    17   ar
    18    13    14   ar
    19    14    15   ar
    20    15    16   ar
    21    16    17   ar
