@<TRIPOS>MOLECULE
29690_ChemDiv_6504-0268
 28 30 0 0 0
SMALL
GASTEIGER
Energy = 0

@<TRIPOS>ATOM
      1 C          -0.8710    0.0080    0.0000 C.2     1  LIG1        0.2486
      2 C          -1.7420    0.5040    0.0000 C.3     1  LIG1        0.0944
      3 C          -2.6040    0.0080    0.0000 C.ar    1  LIG1       -0.0142
      4 C          -3.4750    0.5040    0.0000 C.ar    1  LIG1       -0.0007
      5 C          -4.3380    0.0080    0.0000 C.ar    1  LIG1        0.0366
      6 C          -4.3380   -0.9920    0.0000 C.ar    1  LIG1        0.1387
      7 C          -3.4750   -1.4920    0.0000 C.ar    1  LIG1        0.0366
      8 C          -2.6040   -0.9920    0.0000 C.ar    1  LIG1       -0.0007
      9 O          -5.2000   -1.4920    0.0000 O.3     1  LIG1       -0.4714
     10 C          -6.0580   -0.9920    0.0000 C.3     1  LIG1        0.2525
     11 C          -2.6040    1.0000    0.0000 C.3     1  LIG1        0.0449
     12 C          -2.6040    2.0040    0.0000 C.3     1  LIG1        0.1430
     13 O          -1.7420    2.5000    0.0000 O.3     1  LIG1       -0.3537
     14 C          -0.8710    2.0040    0.0000 C.3     1  LIG1        0.1430
     15 C          -0.8710    1.0000    0.0000 C.3     1  LIG1        0.0449
     16 N          -0.0080    0.5040    0.0000 N.am    1  LIG1       -0.1790
     17 C           0.8580    0.0080    0.0000 C.ar    1  LIG1        0.0734
     18 C           1.7250    0.5040    0.0000 C.ar    1  LIG1        0.0168
     19 C           2.5960    0.0080    0.0000 C.ar    1  LIG1        0.0078
     20 C           2.5960   -0.9920    0.0000 C.ar    1  LIG1        0.0757
     21 C           3.4580   -1.4960    0.0000 C.2     1  LIG1        0.3412
     22 O           3.4580   -2.4960    0.0000 O.2     1  LIG1       -0.2449
     23 O           4.3290   -0.9920    0.0000 O.3     1  LIG1       -0.4454
     24 C           5.1880   -1.4920    0.0000 C.3     1  LIG1        0.2089
     25 C           6.0580   -0.9920    0.0000 C.3     1  LIG1        0.0513
     26 C           1.7250   -1.4960    0.0000 C.ar    1  LIG1        0.0078
     27 C           0.8580   -0.9920    0.0000 C.ar    1  LIG1        0.0168
     28 O          -0.8710   -0.9920    0.0000 O.2     1  LIG1       -0.2727
@<TRIPOS>BOND
     1     1     2    1
     2     1    16   am
     3     1    28    2
     4     2     3    1
     5     2    11    1
     6     2    15    1
     7     3     4   ar
     8     3     8   ar
     9     4     5   ar
    10     5     6   ar
    11     6     7   ar
    12     6     9    1
    13     7     8   ar
    14     9    10    1
    15    11    12    1
    16    12    13    1
    17    13    14    1
    18    14    15    1
    19    16    17    1
    20    17    18   ar
    21    17    27   ar
    22    18    19   ar
    23    19    20   ar
    24    20    21    1
    25    20    26   ar
    26    21    22    2
    27    21    23    1
    28    23    24    1
    29    24    25    1
    30    26    27   ar
