@<TRIPOS>MOLECULE
29694_ChemDiv_8012-9382
 23 25 0 0 0
SMALL
GASTEIGER
Energy = 0

@<TRIPOS>ATOM
      1 C           0.0000   -0.4500    0.0000 C.2     1  LIG1        0.2486
      2 N           0.8330    0.0290    0.0000 N.am    1  LIG1       -0.1772
      3 C           1.7420   -0.4500    0.0000 C.ar    1  LIG1        0.0944
      4 C           1.7420   -1.5000    0.0000 C.ar    1  LIG1        0.0738
      5 CL          0.8330   -1.9920    0.0000 Cl      1  LIG1       -0.0809
      6 C           2.5830   -1.9920    0.0000 C.ar    1  LIG1        0.0128
      7 C           3.4250   -1.5000    0.0000 C.ar    1  LIG1        0.0018
      8 C           3.4250   -0.4500    0.0000 C.ar    1  LIG1        0.0128
      9 C           2.5830    0.0290    0.0000 C.ar    1  LIG1        0.0738
     10 CL          2.5830    1.0130    0.0000 Cl      1  LIG1       -0.0809
     11 C          -0.8420    0.0290    0.0000 C.3     1  LIG1        0.0944
     12 C          -1.7580   -0.4500    0.0000 C.ar    1  LIG1       -0.0144
     13 C          -2.5960    0.0290    0.0000 C.ar    1  LIG1       -0.0038
     14 C          -3.4290   -0.4500    0.0000 C.ar    1  LIG1       -0.0003
     15 C          -3.4290   -1.5000    0.0000 C.ar    1  LIG1       -0.0000
     16 C          -2.5960   -1.9920    0.0000 C.ar    1  LIG1       -0.0003
     17 C          -1.7580   -1.5000    0.0000 C.ar    1  LIG1       -0.0038
     18 C           0.0000    0.5170    0.0000 C.3     1  LIG1        0.0449
     19 C           0.0000    1.5040    0.0000 C.3     1  LIG1        0.1430
     20 O          -0.8420    1.9960    0.0000 O.3     1  LIG1       -0.3537
     21 C          -1.7580    1.5040    0.0000 C.3     1  LIG1        0.1430
     22 C          -1.7580    0.5170    0.0000 C.3     1  LIG1        0.0449
     23 O           0.0000   -1.5000    0.0000 O.2     1  LIG1       -0.2727
@<TRIPOS>BOND
     1     1     2   am
     2     1    11    1
     3     1    23    2
     4     2     3    1
     5     3     4   ar
     6     3     9   ar
     7     4     5    1
     8     4     6   ar
     9     6     7   ar
    10     7     8   ar
    11     8     9   ar
    12     9    10    1
    13    11    12    1
    14    11    18    1
    15    11    22    1
    16    12    13   ar
    17    12    17   ar
    18    13    14   ar
    19    14    15   ar
    20    15    16   ar
    21    16    17   ar
    22    18    19    1
    23    19    20    1
    24    20    21    1
    25    21    22    1
