@<TRIPOS>MOLECULE
29697_ChemDiv_6995-0167
 24 26 0 0 0
SMALL
GASTEIGER
Energy = 0

@<TRIPOS>ATOM
      1 N           2.3330   -0.6210    0.0000 N.am    1  LIG1       -0.2568
      2 C           1.9790   -1.5580    0.0000 C.3     1  LIG1        0.1931
      3 N           0.9830   -1.5170    0.0000 N.am    1  LIG1       -0.2596
      4 C           0.3540   -2.3000    0.0000 C.2     1  LIG1        0.2383
      5 C          -0.6460   -2.1540    0.0000 C.3     1  LIG1        0.1491
      6 S          -1.2670   -2.9420    0.0000 S.3     1  LIG1       -0.0768
      7 C          -2.2630   -2.7920    0.0000 C.ar    1  LIG1        0.1611
      8 S          -2.9750   -3.5000    0.0000 S.2     1  LIG1       -0.0212
      9 C          -3.8540   -3.0420    0.0000 C.ar    1  LIG1        0.2226
     10 N          -3.6880   -2.0500    0.0000 N.ar    1  LIG1       -0.1217
     11 N          -2.7000   -1.9080    0.0000 N.ar    1  LIG1       -0.1330
     12 N          -4.7580   -3.4880    0.0000 N.pl3   1  LIG1       -0.0979
     13 O           0.7250   -3.2290    0.0000 O.2     1  LIG1       -0.2739
     14 C           0.7130   -0.5540    0.0000 C.3     1  LIG1        0.1165
     15 C           1.5460    0.0080    0.0000 C.3     1  LIG1        0.1168
     16 C           3.2960   -0.3540    0.0000 C.2     1  LIG1        0.2503
     17 C           3.5420    0.6130    0.0000 C.ar    1  LIG1        0.0536
     18 C           2.8330    1.3080    0.0000 C.ar    1  LIG1        0.0042
     19 C           3.0750    2.2670    0.0000 C.ar    1  LIG1       -0.0041
     20 C           4.0420    2.5380    0.0000 C.ar    1  LIG1       -0.0218
     21 C           4.7540    1.8380    0.0000 C.ar    1  LIG1       -0.0041
     22 C           4.5040    0.8750    0.0000 C.ar    1  LIG1        0.0042
     23 C           4.2830    3.5040    0.0000 C.3     1  LIG1        0.0310
     24 O           4.0080   -1.0500    0.0000 O.2     1  LIG1       -0.2699
@<TRIPOS>BOND
     1     1     2    1
     2     1    15    1
     3     1    16   am
     4     2     3    1
     5     3     4   am
     6     3    14    1
     7     4     5    1
     8     4    13    2
     9     5     6    1
    10     6     7    1
    11     7     8   ar
    12     7    11   ar
    13     8     9   ar
    14     9    10   ar
    15     9    12    1
    16    10    11   ar
    17    14    15    1
    18    16    17    1
    19    16    24    2
    20    17    18   ar
    21    17    22   ar
    22    18    19   ar
    23    19    20   ar
    24    20    21   ar
    25    20    23    1
    26    21    22   ar
