@<TRIPOS>MOLECULE
29692_ChemDiv_6504-0269
 26 28 0 0 0
SMALL
GASTEIGER
Energy = 0

@<TRIPOS>ATOM
      1 C          -0.0080    0.0080    0.0000 C.2     1  LIG1        0.2486
      2 C          -0.8750    0.5000    0.0000 C.3     1  LIG1        0.0944
      3 C          -1.7380    0.0080    0.0000 C.ar    1  LIG1       -0.0142
      4 C          -2.6040    0.5000    0.0000 C.ar    1  LIG1       -0.0007
      5 C          -3.4750    0.0080    0.0000 C.ar    1  LIG1        0.0366
      6 C          -3.4750   -0.9920    0.0000 C.ar    1  LIG1        0.1387
      7 C          -2.6040   -1.4960    0.0000 C.ar    1  LIG1        0.0366
      8 C          -1.7380   -0.9920    0.0000 C.ar    1  LIG1       -0.0007
      9 O          -4.3380   -1.4960    0.0000 O.3     1  LIG1       -0.4714
     10 C          -5.1960   -0.9920    0.0000 C.3     1  LIG1        0.2525
     11 C          -1.7460    1.0000    0.0000 C.3     1  LIG1        0.0449
     12 C          -1.7460    2.0000    0.0000 C.3     1  LIG1        0.1430
     13 O          -0.8750    2.5000    0.0000 O.3     1  LIG1       -0.3537
     14 C          -0.0080    2.0000    0.0000 C.3     1  LIG1        0.1430
     15 C          -0.0080    1.0000    0.0000 C.3     1  LIG1        0.0449
     16 N           0.8580    0.5000    0.0000 N.am    1  LIG1       -0.1790
     17 C           1.7210    0.0080    0.0000 C.ar    1  LIG1        0.0734
     18 C           2.5920    0.5000    0.0000 C.ar    1  LIG1        0.0166
     19 C           3.4580    0.0080    0.0000 C.ar    1  LIG1        0.0025
     20 C           3.4580   -0.9960    0.0000 C.ar    1  LIG1        0.0141
     21 C           4.3250   -1.5000    0.0000 C.2     1  LIG1        0.0729
     22 O           4.3250   -2.4960    0.0000 O.co2   1  LIG1       -0.5446
     23 O           5.1920   -0.9960    0.0000 O.co2   1  LIG1       -0.5446
     24 C           2.5920   -1.5000    0.0000 C.ar    1  LIG1        0.0025
     25 C           1.7210   -0.9960    0.0000 C.ar    1  LIG1        0.0166
     26 O          -0.0080   -0.9920    0.0000 O.2     1  LIG1       -0.2727
@<TRIPOS>BOND
     1     1     2    1
     2     1    16   am
     3     1    26    2
     4     2     3    1
     5     2    11    1
     6     2    15    1
     7     3     4   ar
     8     3     8   ar
     9     4     5   ar
    10     5     6   ar
    11     6     7   ar
    12     6     9    1
    13     7     8   ar
    14     9    10    1
    15    11    12    1
    16    12    13    1
    17    13    14    1
    18    14    15    1
    19    16    17    1
    20    17    18   ar
    21    17    25   ar
    22    18    19   ar
    23    19    20   ar
    24    20    21    1
    25    20    24   ar
    26    21    22   ar
    27    21    23   ar
    28    24    25   ar
