@<TRIPOS>MOLECULE
29705_ChemDiv_8017-9330
 19 20 0 0 0
SMALL
GASTEIGER
Energy = 0

@<TRIPOS>ATOM
      1 S          -3.1290   -0.3420    0.0000 S.2     1  LIG1       -0.0212
      2 C          -2.1920   -0.0290    0.0000 C.ar    1  LIG1        0.1611
      3 N          -2.1790    0.9580    0.0000 N.ar    1  LIG1       -0.1330
      4 N          -3.1670    1.2540    0.0000 N.ar    1  LIG1       -0.1217
      5 C          -3.7170    0.4460    0.0000 C.ar    1  LIG1        0.2226
      6 N          -4.7330    0.4330    0.0000 N.pl3   1  LIG1       -0.0979
      7 S          -1.3290   -0.5380    0.0000 S.3     1  LIG1       -0.0767
      8 C          -0.4580   -0.0290    0.0000 C.3     1  LIG1        0.1506
      9 C           0.4000   -0.5040    0.0000 C.2     1  LIG1        0.2530
     10 N           1.2420   -0.0130    0.0000 N.am    1  LIG1       -0.2019
     11 C           2.1290   -0.4920    0.0000 C.3     1  LIG1        0.1175
     12 C           2.9920    0.0040    0.0000 C.ar    1  LIG1       -0.0026
     13 C           3.8540   -0.4920    0.0000 C.ar    1  LIG1       -0.0026
     14 C           4.7290   -0.0040    0.0000 C.ar    1  LIG1       -0.0003
     15 C           4.7170    1.0080    0.0000 C.ar    1  LIG1       -0.0000
     16 C           3.8540    1.5170    0.0000 C.ar    1  LIG1       -0.0003
     17 C           2.9920    1.0040    0.0000 C.ar    1  LIG1       -0.0026
     18 C           2.1290   -1.5130    0.0000 C.3     1  LIG1        0.0283
     19 O           0.4000   -1.5130    0.0000 O.2     1  LIG1       -0.2724
@<TRIPOS>BOND
     1     1     2   ar
     2     1     5   ar
     3     2     3   ar
     4     2     7    1
     5     3     4   ar
     6     4     5   ar
     7     5     6    1
     8     7     8    1
     9     8     9    1
    10     9    10   am
    11     9    19    2
    12    10    11    1
    13    11    12    1
    14    11    18    1
    15    12    13   ar
    16    12    17   ar
    17    13    14   ar
    18    14    15   ar
    19    15    16   ar
    20    16    17   ar
