@<TRIPOS>MOLECULE
29707_ChemDiv_D036-1729
 22 23 0 0 0
SMALL
GASTEIGER
Energy = 0

@<TRIPOS>ATOM
      1 S           3.6460    0.4880    0.0000 S.2     1  LIG1       -0.0436
      2 C           3.5460   -0.5000    0.0000 C.ar    1  LIG1        0.1591
      3 N           4.4540   -0.9080    0.0000 N.ar    1  LIG1       -0.1347
      4 N           5.1250   -0.1670    0.0000 N.ar    1  LIG1       -0.1448
      5 C           4.6210    0.7000    0.0000 C.ar    1  LIG1        0.1120
      6 C           5.0330    1.6130    0.0000 C.3     1  LIG1        0.0614
      7 S           2.6750   -1.0000    0.0000 S.3     1  LIG1       -0.0867
      8 C           1.8080   -0.5000    0.0000 C.3     1  LIG1        0.0647
      9 C           0.9330   -1.0000    0.0000 C.3     1  LIG1        0.0202
     10 C           0.0670   -0.5000    0.0000 C.3     1  LIG1        0.0701
     11 C          -0.8000   -1.0000    0.0000 C.2     1  LIG1        0.1731
     12 C          -1.6670   -0.4960    0.0000 C.ar    1  LIG1        0.0347
     13 C          -1.6670    0.5040    0.0000 C.ar    1  LIG1        0.0025
     14 C          -2.5380    1.0040    0.0000 C.ar    1  LIG1       -0.0042
     15 C          -3.3960    0.5040    0.0000 C.ar    1  LIG1       -0.0228
     16 C          -4.2630    1.0040    0.0000 C.3     1  LIG1        0.0189
     17 C          -4.2630    2.0080    0.0000 C.3     1  LIG1        0.0044
     18 C          -5.1290    0.5040    0.0000 C.3     1  LIG1        0.0044
     19 C          -3.5540    1.7170    0.0000 C.3     1  LIG1        0.0044
     20 C          -3.3960   -0.4830    0.0000 C.ar    1  LIG1       -0.0042
     21 C          -2.5290   -0.9830    0.0000 C.ar    1  LIG1        0.0025
     22 O          -0.8000   -2.0040    0.0000 O.2     1  LIG1       -0.2913
@<TRIPOS>BOND
     1     1     2   ar
     2     1     5   ar
     3     2     3   ar
     4     2     7    1
     5     3     4   ar
     6     4     5   ar
     7     5     6    1
     8     7     8    1
     9     8     9    1
    10     9    10    1
    11    10    11    1
    12    11    12    1
    13    11    22    2
    14    12    13   ar
    15    12    21   ar
    16    13    14   ar
    17    14    15   ar
    18    15    16    1
    19    15    20   ar
    20    16    17    1
    21    16    18    1
    22    16    19    1
    23    20    21   ar
