@<TRIPOS>MOLECULE
29704_ChemDiv_3535-0310
 23 26 0 0 0
SMALL
GASTEIGER
Energy = 0

@<TRIPOS>ATOM
      1 N          -1.1920    0.6380    0.0000 N.ar    1  LIG1       -0.2813
      2 C          -1.9250    1.1580    0.0000 C.ar    1  LIG1        0.0399
      3 C          -1.8380    2.0880    0.0000 C.ar    1  LIG1       -0.0087
      4 C          -0.2790    1.9540    0.0000 C.ar    1  LIG1        0.0133
      5 C          -0.3580    1.0130    0.0000 C.ar    1  LIG1        0.0659
      6 C           0.4630    0.5130    0.0000 C.ar    1  LIG1        0.0176
      7 C           1.3580    0.8790    0.0000 C.ar    1  LIG1        0.0015
      8 C           1.4380    1.8000    0.0000 C.ar    1  LIG1        0.0001
      9 C           0.6080    2.3830    0.0000 C.ar    1  LIG1        0.0012
     10 C          -2.6790    2.6330    0.0000 C.3     1  LIG1        0.0276
     11 C          -3.5540    2.2040    0.0000 C.3     1  LIG1        0.0051
     12 C          -3.6170    1.2830    0.0000 C.3     1  LIG1        0.0066
     13 C          -2.8290    0.7710    0.0000 C.3     1  LIG1        0.0439
     14 C          -1.3250   -0.3460    0.0000 C.2     1  LIG1        0.2524
     15 C          -0.5500   -0.9460    0.0000 C.3     1  LIG1        0.1523
     16 S           0.3540   -0.5630    0.0000 S.3     1  LIG1       -0.0765
     17 C           1.1170   -1.2080    0.0000 C.ar    1  LIG1        0.1612
     18 S           2.1540   -0.9750    0.0000 S.2     1  LIG1       -0.0212
     19 C           2.5830   -1.9420    0.0000 C.ar    1  LIG1        0.2226
     20 N           1.8960   -2.6290    0.0000 N.ar    1  LIG1       -0.1217
     21 N           1.0000   -2.2000    0.0000 N.ar    1  LIG1       -0.1330
     22 N           3.6130   -2.1000    0.0000 N.pl3   1  LIG1       -0.0979
     23 O          -2.2210   -0.7330    0.0000 O.2     1  LIG1       -0.2707
@<TRIPOS>BOND
     1     1     2   ar
     2     1     5   ar
     3     1    14   am
     4     2     3   ar
     5     2    13    1
     6     3     4   ar
     7     3    10    1
     8     4     5   ar
     9     4     9   ar
    10     5     6   ar
    11     6     7   ar
    12     7     8   ar
    13     8     9   ar
    14    10    11    1
    15    11    12    1
    16    12    13    1
    17    14    15    1
    18    14    23    2
    19    15    16    1
    20    16    17    1
    21    17    18   ar
    22    17    21   ar
    23    18    19   ar
    24    19    20   ar
    25    19    22    1
    26    20    21   ar
