@<TRIPOS>MOLECULE
29706_ChemDiv_3807-5262
 23 26 0 0 0
SMALL
GASTEIGER
Energy = 0

@<TRIPOS>ATOM
      1 N          -1.3040    0.2960    0.0000 N.ar    1  LIG1       -0.2813
      2 C          -2.2500    0.6040    0.0000 C.ar    1  LIG1        0.0399
      3 C          -2.2500    1.6130    0.0000 C.ar    1  LIG1       -0.0087
      4 C          -1.3040    1.9290    0.0000 C.ar    1  LIG1        0.0133
      5 C          -0.7330    1.1710    0.0000 C.ar    1  LIG1        0.0659
      6 C           0.2790    1.2130    0.0000 C.ar    1  LIG1        0.0176
      7 C           0.7210    2.1210    0.0000 C.ar    1  LIG1        0.0015
      8 C           0.1210    2.9420    0.0000 C.ar    1  LIG1        0.0001
      9 C          -0.8420    2.8250    0.0000 C.ar    1  LIG1        0.0012
     10 C          -3.1170    2.1210    0.0000 C.3     1  LIG1        0.0276
     11 C          -3.9710    1.6790    0.0000 C.3     1  LIG1        0.0051
     12 C          -3.9710    0.6040    0.0000 C.3     1  LIG1        0.0066
     13 C          -3.1170    0.0960    0.0000 C.3     1  LIG1        0.0439
     14 C          -0.9330   -0.6630    0.0000 C.2     1  LIG1        0.2524
     15 C           0.0250   -0.8500    0.0000 C.3     1  LIG1        0.1523
     16 S           0.3710   -1.8210    0.0000 S.3     1  LIG1       -0.0766
     17 C           1.3830   -2.0210    0.0000 C.ar    1  LIG1        0.1596
     18 S           2.1420   -1.4210    0.0000 S.2     1  LIG1       -0.0435
     19 C           2.9540   -1.9790    0.0000 C.ar    1  LIG1        0.1120
     20 N           2.7000   -2.8750    0.0000 N.ar    1  LIG1       -0.1448
     21 N           1.7330   -2.9380    0.0000 N.ar    1  LIG1       -0.1347
     22 C           3.9670   -1.7250    0.0000 C.3     1  LIG1        0.0614
     23 O          -1.6000   -1.4210    0.0000 O.2     1  LIG1       -0.2707
@<TRIPOS>BOND
     1     1     2   ar
     2     1     5   ar
     3     1    14   am
     4     2     3   ar
     5     2    13    1
     6     3     4   ar
     7     3    10    1
     8     4     5   ar
     9     4     9   ar
    10     5     6   ar
    11     6     7   ar
    12     7     8   ar
    13     8     9   ar
    14    10    11    1
    15    11    12    1
    16    12    13    1
    17    14    15    1
    18    14    23    2
    19    15    16    1
    20    16    17    1
    21    17    18   ar
    22    17    21   ar
    23    18    19   ar
    24    19    20   ar
    25    19    22    1
    26    20    21   ar
