@<TRIPOS>MOLECULE
29701_ChemDiv_8012-4191
 19 20 0 0 0
SMALL
GASTEIGER
Energy = 0

@<TRIPOS>ATOM
      1 S          -2.8580   -0.9920    0.0000 S.2     1  LIG1       -0.0212
      2 C          -2.5880   -0.0170    0.0000 C.ar    1  LIG1        0.1611
      3 N          -3.4460    0.4960    0.0000 N.ar    1  LIG1       -0.1330
      4 N          -4.2250   -0.1170    0.0000 N.ar    1  LIG1       -0.1217
      5 C          -3.8670   -1.0580    0.0000 C.ar    1  LIG1        0.2226
      6 N          -4.3880   -1.9000    0.0000 N.pl3   1  LIG1       -0.0979
      7 S          -1.6960    0.4290    0.0000 S.3     1  LIG1       -0.0767
      8 C          -0.8790   -0.0670    0.0000 C.3     1  LIG1        0.1510
      9 C           0.0130    0.4210    0.0000 C.2     1  LIG1        0.2570
     10 N           0.8580   -0.0830    0.0000 N.am    1  LIG1       -0.1788
     11 C           1.7630    0.3880    0.0000 C.ar    1  LIG1        0.0702
     12 C           2.6380   -0.1130    0.0000 C.ar    1  LIG1        0.0277
     13 C           3.5080    0.3630    0.0000 C.ar    1  LIG1        0.0589
     14 C           3.5080    1.3630    0.0000 C.ar    1  LIG1        0.0112
     15 C           2.6380    1.9040    0.0000 C.ar    1  LIG1       -0.0021
     16 C           1.7630    1.3880    0.0000 C.ar    1  LIG1       -0.0065
     17 C           0.8830    1.8670    0.0000 C.3     1  LIG1        0.0324
     18 CL          4.3830   -0.1170    0.0000 Cl      1  LIG1       -0.0822
     19 O           0.0130    1.3960    0.0000 O.2     1  LIG1       -0.2720
@<TRIPOS>BOND
     1     1     2   ar
     2     1     5   ar
     3     2     3   ar
     4     2     7    1
     5     3     4   ar
     6     4     5   ar
     7     5     6    1
     8     7     8    1
     9     8     9    1
    10     9    10   am
    11     9    19    2
    12    10    11    1
    13    11    12   ar
    14    11    16   ar
    15    12    13   ar
    16    13    14   ar
    17    13    18    1
    18    14    15   ar
    19    15    16   ar
    20    16    17    1
