@<TRIPOS>MOLECULE
29708_ChemDiv_4507-0181
 24 27 0 0 0
SMALL
GASTEIGER
Energy = 0

@<TRIPOS>ATOM
      1 N          -1.1420    0.0920    0.0000 N.ar    1  LIG1       -0.2813
      2 C          -2.1040    0.3960    0.0000 C.ar    1  LIG1        0.0399
      3 C          -2.1040    1.4040    0.0000 C.ar    1  LIG1       -0.0087
      4 C          -1.1420    1.7170    0.0000 C.ar    1  LIG1        0.0133
      5 C          -0.5960    0.9290    0.0000 C.ar    1  LIG1        0.0659
      6 C           0.3790    0.9710    0.0000 C.ar    1  LIG1        0.0176
      7 C           0.8750    1.9080    0.0000 C.ar    1  LIG1        0.0015
      8 C           0.2540    2.6920    0.0000 C.ar    1  LIG1        0.0001
      9 C          -0.6880    2.6080    0.0000 C.ar    1  LIG1        0.0012
     10 C          -2.9540    1.9080    0.0000 C.3     1  LIG1        0.0276
     11 C          -3.7830    1.4330    0.0000 C.3     1  LIG1        0.0051
     12 C          -3.7830    0.3960    0.0000 C.3     1  LIG1        0.0066
     13 C          -2.9540   -0.0750    0.0000 C.3     1  LIG1        0.0439
     14 C          -0.7630   -0.8330    0.0000 C.2     1  LIG1        0.2524
     15 C           0.1290   -1.0540    0.0000 C.3     1  LIG1        0.1532
     16 S           0.7920   -0.2960    0.0000 S.3     1  LIG1       -0.0655
     17 C           1.8920   -0.5380    0.0000 C.ar    1  LIG1        0.1933
     18 N           2.1460   -1.5460    0.0000 N.ar    1  LIG1       -0.1827
     19 C           3.1830   -1.6710    0.0000 C.ar    1  LIG1        0.2826
     20 C           3.7790   -0.9250    0.0000 C.ar    1  LIG1        0.0832
     21 C           3.4330    0.0500    0.0000 C.ar    1  LIG1        0.1060
     22 N           2.5210    0.2080    0.0000 N.ar    1  LIG1       -0.2195
     23 O           3.5170   -2.6880    0.0000 O.3     1  LIG1       -0.2651
     24 O          -1.4460   -1.5880    0.0000 O.2     1  LIG1       -0.2707
@<TRIPOS>BOND
     1     1     2   ar
     2     1     5   ar
     3     1    14   am
     4     2     3   ar
     5     2    13    1
     6     3     4   ar
     7     3    10    1
     8     4     5   ar
     9     4     9   ar
    10     5     6   ar
    11     6     7   ar
    12     7     8   ar
    13     8     9   ar
    14    10    11    1
    15    11    12    1
    16    12    13    1
    17    14    15    1
    18    14    24    2
    19    15    16    1
    20    16    17    1
    21    17    18   ar
    22    17    22   ar
    23    18    19   ar
    24    19    20   ar
    25    19    23    1
    26    20    21   ar
    27    21    22   ar
