@<TRIPOS>MOLECULE
29702_ChemDiv_3535-0116
 23 26 0 0 0
SMALL
GASTEIGER
Energy = 0

@<TRIPOS>ATOM
      1 N          -0.0880    1.7630    0.0000 N.ar    1  LIG1       -0.2772
      2 C          -0.9380    2.2960    0.0000 C.ar    1  LIG1        0.0401
      3 C          -0.8290    3.2500    0.0000 C.ar    1  LIG1       -0.0087
      4 C           0.8330    3.0750    0.0000 C.ar    1  LIG1        0.0133
      5 C           0.7540    2.1380    0.0000 C.ar    1  LIG1        0.0661
      6 C           1.5630    1.6040    0.0000 C.ar    1  LIG1        0.0176
      7 C           2.4630    1.9830    0.0000 C.ar    1  LIG1        0.0015
      8 C           2.5630    2.9330    0.0000 C.ar    1  LIG1        0.0001
      9 C           1.7210    3.5000    0.0000 C.ar    1  LIG1        0.0012
     10 C          -1.6080    3.7920    0.0000 C.3     1  LIG1        0.0276
     11 C          -2.4750    3.3920    0.0000 C.3     1  LIG1        0.0051
     12 C          -2.5670    2.4540    0.0000 C.3     1  LIG1        0.0066
     13 C          -1.7960    1.9040    0.0000 C.3     1  LIG1        0.0439
     14 C          -0.0880    0.7790    0.0000 C.2     1  LIG1        0.2987
     15 C           0.7290    0.2750    0.0000 C.3     1  LIG1        0.2281
     16 N           0.6580   -0.6790    0.0000 N.4     1  LIG1        0.3846
     17 C          -0.2000   -1.1580    0.0000 C.3     1  LIG1        0.1393
     18 C          -0.2460   -2.1330    0.0000 C.3     1  LIG1        0.0629
     19 C           0.5500   -2.6880    0.0000 C.3     1  LIG1        0.0119
     20 C           1.4290   -2.2210    0.0000 C.3     1  LIG1        0.0629
     21 C           1.5000   -1.2130    0.0000 C.3     1  LIG1        0.1393
     22 C           0.4710   -3.7880    0.0000 C.3     1  LIG1        0.0004
     23 O          -0.8670    0.2500    0.0000 O.2     1  LIG1       -0.2652
@<TRIPOS>BOND
     1     1     2   ar
     2     1     5   ar
     3     1    14   am
     4     2     3   ar
     5     2    13    1
     6     3     4   ar
     7     3    10    1
     8     4     5   ar
     9     4     9   ar
    10     5     6   ar
    11     6     7   ar
    12     7     8   ar
    13     8     9   ar
    14    10    11    1
    15    11    12    1
    16    12    13    1
    17    14    15    1
    18    14    23    2
    19    15    16    1
    20    16    17    1
    21    16    21    1
    22    17    18    1
    23    18    19    1
    24    19    20    1
    25    19    22    1
    26    20    21    1
