@<TRIPOS>MOLECULE
29703_ChemDiv_8012-4915
 31 33 0 0 0
SMALL
GASTEIGER
Energy = 0

@<TRIPOS>ATOM
      1 S           0.0250   -0.8710    0.0000 S.2     1  LIG1       -0.0330
      2 C           0.8290   -0.2580    0.0000 C.ar    1  LIG1        0.1603
      3 N           0.5170    0.7130    0.0000 N.ar    1  LIG1       -0.1339
      4 N          -0.4880    0.7130    0.0000 N.ar    1  LIG1       -0.1339
      5 C          -0.7920   -0.2580    0.0000 C.ar    1  LIG1        0.1603
      6 S          -1.7420   -0.5670    0.0000 S.3     1  LIG1       -0.0768
      7 C          -2.5000    0.0670    0.0000 C.3     1  LIG1        0.1506
      8 C          -3.4290   -0.2580    0.0000 C.2     1  LIG1        0.2528
      9 O          -3.6080   -1.2210    0.0000 O.2     1  LIG1       -0.2724
     10 N          -4.2330    0.4000    0.0000 N.am    1  LIG1       -0.2043
     11 C          -5.1750    0.0420    0.0000 C.3     1  LIG1        0.1198
     12 C          -5.9500    0.7210    0.0000 C.3     1  LIG1        0.0498
     13 C          -6.8960    0.4080    0.0000 C.ar    1  LIG1       -0.0204
     14 C          -7.1000   -0.5540    0.0000 C.ar    1  LIG1       -0.0042
     15 C          -8.0630   -0.8710    0.0000 C.ar    1  LIG1       -0.0003
     16 C          -8.8040   -0.1750    0.0000 C.ar    1  LIG1       -0.0000
     17 C          -8.5580    0.7750    0.0000 C.ar    1  LIG1       -0.0003
     18 C          -7.6170    1.0790    0.0000 C.ar    1  LIG1       -0.0042
     19 S           1.7830   -0.5420    0.0000 S.3     1  LIG1       -0.0768
     20 C           2.5080    0.1250    0.0000 C.3     1  LIG1        0.1506
     21 C           3.4630   -0.1630    0.0000 C.2     1  LIG1        0.2528
     22 O           3.7130   -1.1420    0.0000 O.2     1  LIG1       -0.2724
     23 N           4.2540    0.5040    0.0000 N.am    1  LIG1       -0.2043
     24 C           5.2080    0.1920    0.0000 C.3     1  LIG1        0.1198
     25 C           5.9250    0.8580    0.0000 C.3     1  LIG1        0.0498
     26 C           6.8630    0.5460    0.0000 C.ar    1  LIG1       -0.0204
     27 C           7.5420    1.2250    0.0000 C.ar    1  LIG1       -0.0042
     28 C           8.5080    0.9420    0.0000 C.ar    1  LIG1       -0.0003
     29 C           8.8040    0.0130    0.0000 C.ar    1  LIG1       -0.0000
     30 C           8.0580   -0.6920    0.0000 C.ar    1  LIG1       -0.0003
     31 C           7.1130   -0.3960    0.0000 C.ar    1  LIG1       -0.0042
@<TRIPOS>BOND
     1     1     2   ar
     2     1     5   ar
     3     2     3   ar
     4     2    19    1
     5     3     4   ar
     6     4     5   ar
     7     5     6    1
     8     6     7    1
     9     7     8    1
    10     8     9    2
    11     8    10   am
    12    10    11    1
    13    11    12    1
    14    12    13    1
    15    13    14   ar
    16    13    18   ar
    17    14    15   ar
    18    15    16   ar
    19    16    17   ar
    20    17    18   ar
    21    19    20    1
    22    20    21    1
    23    21    22    2
    24    21    23   am
    25    23    24    1
    26    24    25    1
    27    25    26    1
    28    26    27   ar
    29    26    31   ar
    30    27    28   ar
    31    28    29   ar
    32    29    30   ar
    33    30    31   ar
