@<TRIPOS>MOLECULE
29718_ChemDiv_8015-4910
 25 27 0 0 0
SMALL
GASTEIGER
Energy = 0

@<TRIPOS>ATOM
      1 C           0.9670   -0.3540    0.0000 C.2     1  LIG1        0.2487
      2 C           0.0710    0.1750    0.0000 C.3     1  LIG1        0.0944
      3 C          -0.9420   -0.1040    0.0000 C.ar    1  LIG1       -0.0142
      4 C          -1.4540    0.8000    0.0000 C.ar    1  LIG1       -0.0007
      5 C          -2.4830    0.8080    0.0000 C.ar    1  LIG1        0.0366
      6 C          -3.0170   -0.0880    0.0000 C.ar    1  LIG1        0.1387
      7 C          -2.5040   -0.9920    0.0000 C.ar    1  LIG1        0.0366
      8 C          -1.4670   -1.0040    0.0000 C.ar    1  LIG1       -0.0007
      9 O          -4.0580   -0.0790    0.0000 O.3     1  LIG1       -0.4714
     10 C          -4.5750    0.8380    0.0000 C.3     1  LIG1        0.2525
     11 C           0.8080    0.5960    0.0000 C.3     1  LIG1        0.0449
     12 C           0.8080    1.4580    0.0000 C.3     1  LIG1        0.1430
     13 O           0.0710    1.8960    0.0000 O.3     1  LIG1       -0.3537
     14 C          -0.6710    1.4580    0.0000 C.3     1  LIG1        0.1430
     15 C          -0.6710    0.5960    0.0000 C.3     1  LIG1        0.0449
     16 N           1.8580    0.1750    0.0000 N.am    1  LIG1       -0.1759
     17 C           2.7710   -0.3380    0.0000 C.ar    1  LIG1        0.1072
     18 C           3.6540    0.1880    0.0000 C.ar    1  LIG1        0.1539
     19 O           3.6460    1.2330    0.0000 O.3     1  LIG1       -0.4701
     20 C           2.7330    1.7500    0.0000 C.3     1  LIG1        0.2525
     21 C           4.5580   -0.3170    0.0000 C.ar    1  LIG1        0.0383
     22 C           4.5710   -1.3630    0.0000 C.ar    1  LIG1        0.0032
     23 C           3.6710   -1.8920    0.0000 C.ar    1  LIG1        0.0015
     24 C           2.7710   -1.3790    0.0000 C.ar    1  LIG1        0.0197
     25 O           0.9670   -1.3790    0.0000 O.2     1  LIG1       -0.2727
@<TRIPOS>BOND
     1     1     2    1
     2     1    16   am
     3     1    25    2
     4     2     3    1
     5     2    11    1
     6     2    15    1
     7     3     4   ar
     8     3     8   ar
     9     4     5   ar
    10     5     6   ar
    11     6     7   ar
    12     6     9    1
    13     7     8   ar
    14     9    10    1
    15    11    12    1
    16    12    13    1
    17    13    14    1
    18    14    15    1
    19    16    17    1
    20    17    18   ar
    21    17    24   ar
    22    18    19    1
    23    18    21   ar
    24    19    20    1
    25    21    22   ar
    26    22    23   ar
    27    23    24   ar
