@<TRIPOS>MOLECULE
29714_ChemDiv_8013-6161
 22 24 0 0 0
SMALL
GASTEIGER
Energy = 0

@<TRIPOS>ATOM
      1 C          -0.4460   -0.4880    0.0000 C.2     1  LIG1        0.2486
      2 C          -1.3170    0.0080    0.0000 C.3     1  LIG1        0.0944
      3 C          -2.1750   -0.5040    0.0000 C.ar    1  LIG1       -0.0144
      4 C          -3.0420   -0.0080    0.0000 C.ar    1  LIG1       -0.0038
      5 C          -3.9080   -0.5130    0.0000 C.ar    1  LIG1       -0.0003
      6 C          -3.9000   -1.5210    0.0000 C.ar    1  LIG1       -0.0000
      7 C          -3.0290   -2.0080    0.0000 C.ar    1  LIG1       -0.0003
      8 C          -2.1710   -1.5040    0.0000 C.ar    1  LIG1       -0.0038
      9 C          -0.4540    0.5080    0.0000 C.3     1  LIG1        0.0449
     10 C          -0.4540    1.5080    0.0000 C.3     1  LIG1        0.1430
     11 O          -1.3290    2.0130    0.0000 O.3     1  LIG1       -0.3537
     12 C          -2.1920    1.5000    0.0000 C.3     1  LIG1        0.1430
     13 C          -2.1880    0.4920    0.0000 C.3     1  LIG1        0.0449
     14 N           0.4130    0.0250    0.0000 N.am    1  LIG1       -0.1790
     15 C           1.2880   -0.4540    0.0000 C.ar    1  LIG1        0.0735
     16 C           2.1380    0.0540    0.0000 C.ar    1  LIG1        0.0189
     17 C           3.0080   -0.4210    0.0000 C.ar    1  LIG1        0.0310
     18 C           3.0250   -1.4250    0.0000 C.ar    1  LIG1        0.1402
     19 F           3.9040   -1.9080    0.0000 F       1  LIG1       -0.2042
     20 C           2.1710   -1.9380    0.0000 C.ar    1  LIG1        0.0310
     21 C           1.2960   -1.4540    0.0000 C.ar    1  LIG1        0.0189
     22 O          -0.4420   -1.4880    0.0000 O.2     1  LIG1       -0.2727
@<TRIPOS>BOND
     1     1     2    1
     2     1    14   am
     3     1    22    2
     4     2     3    1
     5     2     9    1
     6     2    13    1
     7     3     4   ar
     8     3     8   ar
     9     4     5   ar
    10     5     6   ar
    11     6     7   ar
    12     7     8   ar
    13     9    10    1
    14    10    11    1
    15    11    12    1
    16    12    13    1
    17    14    15    1
    18    15    16   ar
    19    15    21   ar
    20    16    17   ar
    21    17    18   ar
    22    18    19    1
    23    18    20   ar
    24    20    21   ar
