@<TRIPOS>MOLECULE
29716_ChemDiv_8015-4875
 25 27 0 0 0
SMALL
GASTEIGER
Energy = 0

@<TRIPOS>ATOM
      1 C          -0.1960    0.0710    0.0000 C.2     1  LIG1        0.2486
      2 N           0.7750    0.3250    0.0000 N.am    1  LIG1       -0.1788
      3 C           1.7290    0.5960    0.0000 C.ar    1  LIG1        0.0796
      4 C           2.4420   -0.1170    0.0000 C.ar    1  LIG1        0.0909
      5 C           2.1790   -1.0790    0.0000 C.2     1  LIG1        0.3426
      6 O           3.1380   -1.3380    0.0000 O.2     1  LIG1       -0.2448
      7 O           1.3040   -1.5670    0.0000 O.3     1  LIG1       -0.4413
      8 C           1.3040   -2.5670    0.0000 C.3     1  LIG1        0.2560
      9 C           3.4040    0.1460    0.0000 C.ar    1  LIG1        0.0078
     10 C           3.6540    1.1130    0.0000 C.ar    1  LIG1        0.0003
     11 C           2.9420    1.8210    0.0000 C.ar    1  LIG1        0.0013
     12 C           1.9790    1.5500    0.0000 C.ar    1  LIG1        0.0168
     13 C          -1.0580    0.5710    0.0000 C.3     1  LIG1        0.0944
     14 C          -1.9210    0.0580    0.0000 C.ar    1  LIG1       -0.0144
     15 C          -2.7920    0.5630    0.0000 C.ar    1  LIG1       -0.0038
     16 C          -3.6580    0.0580    0.0000 C.ar    1  LIG1       -0.0003
     17 C          -3.6580   -0.9500    0.0000 C.ar    1  LIG1       -0.0000
     18 C          -2.7920   -1.4420    0.0000 C.ar    1  LIG1       -0.0003
     19 C          -1.9210   -0.9500    0.0000 C.ar    1  LIG1       -0.0038
     20 C          -0.1960    1.0580    0.0000 C.3     1  LIG1        0.0449
     21 C          -0.1960    2.0580    0.0000 C.3     1  LIG1        0.1430
     22 O          -1.0580    2.5710    0.0000 O.3     1  LIG1       -0.3537
     23 C          -1.9210    2.0580    0.0000 C.3     1  LIG1        0.1430
     24 C          -1.9210    1.0580    0.0000 C.3     1  LIG1        0.0449
     25 O          -0.3210   -0.9290    0.0000 O.2     1  LIG1       -0.2727
@<TRIPOS>BOND
     1     1     2   am
     2     1    13    1
     3     1    25    2
     4     2     3    1
     5     3     4   ar
     6     3    12   ar
     7     4     5    1
     8     4     9   ar
     9     5     6    2
    10     5     7    1
    11     7     8    1
    12     9    10   ar
    13    10    11   ar
    14    11    12   ar
    15    13    14    1
    16    13    20    1
    17    13    24    1
    18    14    15   ar
    19    14    19   ar
    20    15    16   ar
    21    16    17   ar
    22    17    18   ar
    23    18    19   ar
    24    20    21    1
    25    21    22    1
    26    22    23    1
    27    23    24    1
