@<TRIPOS>MOLECULE
29728_ChemDiv_6030-2128
 21 23 0 0 0
SMALL
GASTEIGER
Energy = 0

@<TRIPOS>ATOM
      1 C          -0.4420   -0.4710    0.0000 C.2     1  LIG1        0.2448
      2 C          -1.2920    0.0000    0.0000 C.3     1  LIG1        0.0940
      3 C          -2.1330   -0.4880    0.0000 C.ar    1  LIG1       -0.0144
      4 C          -2.1330   -1.4630    0.0000 C.ar    1  LIG1       -0.0038
      5 C          -2.9790   -1.9500    0.0000 C.ar    1  LIG1       -0.0003
      6 C          -3.8210   -1.4630    0.0000 C.ar    1  LIG1       -0.0000
      7 C          -3.8210   -0.4880    0.0000 C.ar    1  LIG1       -0.0003
      8 C          -2.9790    0.0000    0.0000 C.ar    1  LIG1       -0.0038
      9 C          -2.1250    0.4920    0.0000 C.3     1  LIG1        0.0449
     10 C          -2.1250    1.4670    0.0000 C.3     1  LIG1        0.1430
     11 O          -1.2920    1.9540    0.0000 O.3     1  LIG1       -0.3537
     12 C          -0.4500    1.4670    0.0000 C.3     1  LIG1        0.1430
     13 C          -0.4500    0.4920    0.0000 C.3     1  LIG1        0.0449
     14 N           0.4040    0.0170    0.0000 N.am    1  LIG1       -0.1969
     15 C           1.2500   -0.4710    0.0000 C.3     1  LIG1        0.1791
     16 C           2.1210   -0.4880    0.0000 C.ar    1  LIG1        0.1449
     17 O           2.9630   -0.9750    0.0000 O.2     1  LIG1       -0.4529
     18 C           3.8080   -0.4960    0.0000 C.ar    1  LIG1        0.1792
     19 C           3.8170    0.4790    0.0000 C.ar    1  LIG1        0.0435
     20 C           2.1330    0.4920    0.0000 C.ar    1  LIG1        0.0380
     21 O          -0.4380   -1.4460    0.0000 O.2     1  LIG1       -0.2730
@<TRIPOS>BOND
     1     1     2    1
     2     1    14   am
     3     1    21    2
     4     2     3    1
     5     2     9    1
     6     2    13    1
     7     3     4   ar
     8     3     8   ar
     9     4     5   ar
    10     5     6   ar
    11     6     7   ar
    12     7     8   ar
    13     9    10    1
    14    10    11    1
    15    11    12    1
    16    12    13    1
    17    14    15    1
    18    15    16    1
    19    16    17   ar
    20    16    20   ar
    21    17    18   ar
    22    18    19   ar
    23    19    20   ar
