@<TRIPOS>MOLECULE
29729_ChemDiv_3448-4481
 31 35 0 0 0
SMALL
GASTEIGER
Energy = 0

@<TRIPOS>ATOM
      1 C          -0.2960    1.5130    0.0000 C.3     1  LIG1        0.1939
      2 C           0.0330    0.5670    0.0000 C.2     1  LIG1        0.2637
      3 N          -0.7290   -0.0460    0.0000 N.am    1  LIG1       -0.2077
      4 C          -1.5960    0.5210    0.0000 C.ar    1  LIG1        0.0578
      5 C          -1.3040    1.4710    0.0000 C.ar    1  LIG1        0.0260
      6 C          -2.0420    2.2000    0.0000 C.ar    1  LIG1       -0.0002
      7 C          -3.0170    1.9540    0.0000 C.ar    1  LIG1       -0.0001
      8 C          -3.2880    0.9920    0.0000 C.ar    1  LIG1        0.0013
      9 C          -2.5710    0.2670    0.0000 C.ar    1  LIG1        0.0149
     10 C          -0.6670   -1.0210    0.0000 C.3     1  LIG1        0.2491
     11 N          -1.5040   -1.5040    0.0000 N.4     1  LIG1        0.3937
     12 C          -1.4880   -2.5000    0.0000 C.3     1  LIG1        0.1410
     13 C          -2.3460   -3.0250    0.0000 C.3     1  LIG1        0.0630
     14 C          -3.2710   -2.5540    0.0000 C.3     1  LIG1        0.0119
     15 C          -3.2380   -1.5330    0.0000 C.3     1  LIG1        0.0630
     16 C          -2.3790   -1.0380    0.0000 C.3     1  LIG1        0.1410
     17 C          -4.1250   -3.0460    0.0000 C.3     1  LIG1        0.0004
     18 O           0.8000    0.1000    0.0000 O.2     1  LIG1       -0.2713
     19 N           0.7000    1.4580    0.0000 N.am    1  LIG1       -0.2415
     20 C           1.4880    0.9210    0.0000 C.ar    1  LIG1        0.0549
     21 C           2.3790    1.3670    0.0000 C.ar    1  LIG1        0.0104
     22 C           3.2290    0.7880    0.0000 C.ar    1  LIG1       -0.0246
     23 C           3.1580   -0.2040    0.0000 C.ar    1  LIG1       -0.0257
     24 C           2.2630   -0.6500    0.0000 C.ar    1  LIG1       -0.0033
     25 C           1.4250   -0.0710    0.0000 C.ar    1  LIG1        0.0146
     26 C           4.0170   -0.7580    0.0000 C.3     1  LIG1        0.0307
     27 C           4.1210    1.1920    0.0000 C.3     1  LIG1        0.0307
     28 C           1.0960    2.4380    0.0000 C.2     1  LIG1        0.2415
     29 C           0.2790    3.0500    0.0000 C.3     1  LIG1        0.1451
     30 S          -0.5210    2.5290    0.0000 S.3     1  LIG1       -0.1007
     31 O           2.0380    2.7540    0.0000 O.2     1  LIG1       -0.2735
@<TRIPOS>BOND
     1     1     2    1
     2     1     5    1
     3     1    19    1
     4     1    30    1
     5     2     3   am
     6     2    18    2
     7     3     4    1
     8     3    10    1
     9     4     5   ar
    10     4     9   ar
    11     5     6   ar
    12     6     7   ar
    13     7     8   ar
    14     8     9   ar
    15    10    11    1
    16    11    12    1
    17    11    16    1
    18    12    13    1
    19    13    14    1
    20    14    15    1
    21    14    17    1
    22    15    16    1
    23    19    20    1
    24    19    28   am
    25    20    21   ar
    26    20    25   ar
    27    21    22   ar
    28    22    23   ar
    29    22    27    1
    30    23    24   ar
    31    23    26    1
    32    24    25   ar
    33    28    29    1
    34    28    31    2
    35    29    30    1
