@<TRIPOS>MOLECULE
29723_ChemDiv_8015-8471
 16 18 0 0 0
SMALL
GASTEIGER
Energy = 0

@<TRIPOS>ATOM
      1 O           0.2290   -0.7670    0.0000 O.3     1  LIG1       -0.4535
      2 C          -0.6040   -0.2920    0.0000 C.ar    1  LIG1        0.1465
      3 C          -0.8540    0.6420    0.0000 C.ar    1  LIG1        0.0347
      4 C          -0.2830    1.4420    0.0000 C.2     1  LIG1        0.0031
      5 C           0.7130    1.4290    0.0000 C.2     1  LIG1        0.0031
      6 C           1.3630    0.6210    0.0000 C.ar    1  LIG1        0.0346
      7 C           1.1250   -0.2790    0.0000 C.ar    1  LIG1        0.1452
      8 C           1.8790   -0.9670    0.0000 C.ar    1  LIG1        0.0375
      9 C           2.8500   -0.6670    0.0000 C.ar    1  LIG1        0.0031
     10 C           3.0750    0.2540    0.0000 C.ar    1  LIG1        0.0002
     11 C           2.3380    0.9210    0.0000 C.ar    1  LIG1        0.0030
     12 C          -1.8080    0.9330    0.0000 C.ar    1  LIG1        0.0044
     13 C          -2.5670    0.2290    0.0000 C.ar    1  LIG1        0.0183
     14 C          -2.3330   -0.7130    0.0000 C.ar    1  LIG1        0.0921
     15 C          -1.3580   -1.0000    0.0000 C.ar    1  LIG1        0.0555
     16 N          -3.0790   -1.4380    0.0000 N.pl3   1  LIG1       -0.1280
@<TRIPOS>BOND
     1     1     2    1
     2     1     7    1
     3     2     3   ar
     4     2    15   ar
     5     3     4    1
     6     3    12   ar
     7     4     5    2
     8     5     6    1
     9     6     7   ar
    10     6    11   ar
    11     7     8   ar
    12     8     9   ar
    13     9    10   ar
    14    10    11   ar
    15    12    13   ar
    16    13    14   ar
    17    14    15   ar
    18    14    16    1
