@<TRIPOS>MOLECULE
29726_ChemDiv_4435-0140
 23 25 0 0 0
SMALL
GASTEIGER
Energy = 0

@<TRIPOS>ATOM
      1 C           2.6080    0.0290    0.0000 C.2     1  LIG1        0.2995
      2 C           2.6210   -0.9630    0.0000 C.ar    1  LIG1        0.2002
      3 O           1.8250   -1.5380    0.0000 O.2     1  LIG1       -0.4458
      4 C           2.0830   -2.5040    0.0000 C.ar    1  LIG1        0.1798
      5 C           3.0710   -2.5420    0.0000 C.ar    1  LIG1        0.0440
      6 C           3.4330   -1.5670    0.0000 C.ar    1  LIG1        0.0455
      7 N           1.7580    0.5380    0.0000 N.am    1  LIG1       -0.1987
      8 C           0.9000    0.0460    0.0000 C.3     1  LIG1        0.1197
      9 C           0.0130    0.5380    0.0000 C.3     1  LIG1        0.0438
     10 C          -0.8500    0.0290    0.0000 C.ar    1  LIG1       -0.0208
     11 C          -0.8500   -0.9630    0.0000 C.ar    1  LIG1       -0.0011
     12 C          -1.7130   -1.4580    0.0000 C.ar    1  LIG1        0.0366
     13 C          -2.5830   -0.9630    0.0000 C.ar    1  LIG1        0.1387
     14 C          -2.5830    0.0290    0.0000 C.ar    1  LIG1        0.0366
     15 C          -1.7130    0.5380    0.0000 C.ar    1  LIG1       -0.0011
     16 O          -3.4460   -1.4830    0.0000 O.3     1  LIG1       -0.4714
     17 C          -3.4460   -2.4750    0.0000 C.3     1  LIG1        0.2525
     18 C           0.9000    1.0500    0.0000 C.3     1  LIG1        0.0379
     19 C           0.9000    2.0540    0.0000 C.3     1  LIG1        0.1425
     20 O           0.0130    2.5460    0.0000 O.3     1  LIG1       -0.3538
     21 C          -0.8330    2.0540    0.0000 C.3     1  LIG1        0.1425
     22 C          -0.8330    1.0330    0.0000 C.3     1  LIG1        0.0379
     23 O           3.4420    0.5500    0.0000 O.2     1  LIG1       -0.2650
@<TRIPOS>BOND
     1     1     2    1
     2     1     7   am
     3     1    23    2
     4     2     3   ar
     5     2     6   ar
     6     3     4   ar
     7     4     5   ar
     8     5     6   ar
     9     7     8    1
    10     8     9    1
    11     9    10    1
    12     9    18    1
    13     9    22    1
    14    10    11   ar
    15    10    15   ar
    16    11    12   ar
    17    12    13   ar
    18    13    14   ar
    19    13    16    1
    20    14    15   ar
    21    16    17    1
    22    18    19    1
    23    19    20    1
    24    20    21    1
    25    21    22    1
