@<TRIPOS>MOLECULE
29722_ChemDiv_8016-3568
 28 30 0 0 0
SMALL
GASTEIGER
Energy = 0

@<TRIPOS>ATOM
      1 C           0.0790    1.6580    0.0000 C.2     1  LIG1        0.2486
      2 C          -0.6330    2.3580    0.0000 C.3     1  LIG1        0.0944
      3 C          -1.6330    2.3580    0.0000 C.ar    1  LIG1       -0.0144
      4 C          -2.1250    3.2290    0.0000 C.ar    1  LIG1       -0.0038
      5 C          -3.1330    3.2290    0.0000 C.ar    1  LIG1       -0.0003
      6 C          -3.6210    2.3580    0.0000 C.ar    1  LIG1       -0.0000
      7 C          -3.1210    1.4960    0.0000 C.ar    1  LIG1       -0.0003
      8 C          -2.1250    1.4960    0.0000 C.ar    1  LIG1       -0.0038
      9 C           0.2290    2.8580    0.0000 C.3     1  LIG1        0.0449
     10 C           0.2290    3.8540    0.0000 C.3     1  LIG1        0.1430
     11 O          -0.6330    4.3500    0.0000 O.3     1  LIG1       -0.3537
     12 C          -1.4880    3.8540    0.0000 C.3     1  LIG1        0.1430
     13 C          -1.4880    2.8580    0.0000 C.3     1  LIG1        0.0449
     14 N          -0.1830    0.6830    0.0000 N.am    1  LIG1       -0.1790
     15 C           0.5250   -0.0290    0.0000 C.ar    1  LIG1        0.0734
     16 C           1.4880    0.2330    0.0000 C.ar    1  LIG1        0.0167
     17 C           2.1960   -0.4790    0.0000 C.ar    1  LIG1        0.0059
     18 C           1.9380   -1.4500    0.0000 C.ar    1  LIG1        0.0551
     19 C           2.6420   -2.1580    0.0000 C.2     1  LIG1        0.2647
     20 N           2.3790   -3.1250    0.0000 N.am    1  LIG1       -0.2051
     21 C           1.4170   -3.3880    0.0000 C.3     1  LIG1        0.0791
     22 C           1.1540   -4.3500    0.0000 C.3     1  LIG1        0.0217
     23 C           0.7040   -2.6750    0.0000 C.3     1  LIG1        0.0217
     24 C           0.4170   -3.3750    0.0000 C.3     1  LIG1        0.0217
     25 O           3.6170   -1.9000    0.0000 O.2     1  LIG1       -0.2684
     26 C           0.9670   -1.7000    0.0000 C.ar    1  LIG1        0.0059
     27 C           0.2630   -0.9880    0.0000 C.ar    1  LIG1        0.0167
     28 O           1.0540    1.9130    0.0000 O.2     1  LIG1       -0.2727
@<TRIPOS>BOND
     1     1     2    1
     2     1    14   am
     3     1    28    2
     4     2     3    1
     5     2     9    1
     6     2    13    1
     7     3     4   ar
     8     3     8   ar
     9     4     5   ar
    10     5     6   ar
    11     6     7   ar
    12     7     8   ar
    13     9    10    1
    14    10    11    1
    15    11    12    1
    16    12    13    1
    17    14    15    1
    18    15    16   ar
    19    15    27   ar
    20    16    17   ar
    21    17    18   ar
    22    18    19    1
    23    18    26   ar
    24    19    20   am
    25    19    25    2
    26    20    21    1
    27    21    22    1
    28    21    23    1
    29    21    24    1
    30    26    27   ar
