@<TRIPOS>MOLECULE
29724_ChemDiv_3455-1358
 22 24 0 0 0
SMALL
GASTEIGER
Energy = 0

@<TRIPOS>ATOM
      1 C           1.8750   -0.0750    0.0000 C.ar    1  LIG1        0.2008
      2 O           2.8170   -0.4960    0.0000 O.2     1  LIG1       -0.4423
      3 C           3.4830    0.2290    0.0000 C.ar    1  LIG1        0.1793
      4 C           2.9830    1.0830    0.0000 C.ar    1  LIG1        0.0478
      5 C           1.9830    0.9000    0.0000 C.ar    1  LIG1        0.0460
      6 BR          4.5170   -0.0750    0.0000 Br      1  LIG1       -0.0078
      7 C           1.0130   -0.5290    0.0000 C.2     1  LIG1        0.2995
      8 N           0.1500   -0.0080    0.0000 N.am    1  LIG1       -0.1987
      9 C          -0.7250   -0.4750    0.0000 C.3     1  LIG1        0.1197
     10 C          -1.7460    0.1460    0.0000 C.3     1  LIG1        0.0438
     11 C          -2.6710   -0.3210    0.0000 C.ar    1  LIG1       -0.0210
     12 C          -3.5750    0.1460    0.0000 C.ar    1  LIG1       -0.0042
     13 C          -4.5210   -0.3790    0.0000 C.ar    1  LIG1       -0.0003
     14 C          -4.5210   -1.3830    0.0000 C.ar    1  LIG1       -0.0000
     15 C          -3.5630   -1.9130    0.0000 C.ar    1  LIG1       -0.0003
     16 C          -2.6710   -1.3830    0.0000 C.ar    1  LIG1       -0.0042
     17 C          -2.5250    0.6580    0.0000 C.3     1  LIG1        0.0379
     18 C          -2.5250    1.4790    0.0000 C.3     1  LIG1        0.1425
     19 O          -1.7130    1.9170    0.0000 O.3     1  LIG1       -0.3538
     20 C          -0.9460    1.4790    0.0000 C.3     1  LIG1        0.1425
     21 C          -0.9460    0.6580    0.0000 C.3     1  LIG1        0.0379
     22 O           1.0130   -1.6210    0.0000 O.2     1  LIG1       -0.2650
@<TRIPOS>BOND
     1     1     2   ar
     2     1     5   ar
     3     1     7    1
     4     2     3   ar
     5     3     4   ar
     6     3     6    1
     7     4     5   ar
     8     7     8   am
     9     7    22    2
    10     8     9    1
    11     9    10    1
    12    10    11    1
    13    10    17    1
    14    10    21    1
    15    11    12   ar
    16    11    16   ar
    17    12    13   ar
    18    13    14   ar
    19    14    15   ar
    20    15    16   ar
    21    17    18    1
    22    18    19    1
    23    19    20    1
    24    20    21    1
