@<TRIPOS>MOLECULE
29720_ChemDiv_8015-4914
 33 36 0 0 0
SMALL
GASTEIGER
Energy = 0

@<TRIPOS>ATOM
      1 C          -1.6380   -0.6290    0.0000 C.2     1  LIG1        0.2486
      2 C          -2.5380   -0.0920    0.0000 C.3     1  LIG1        0.0944
      3 C          -3.5540   -0.3790    0.0000 C.ar    1  LIG1       -0.0142
      4 C          -4.0880   -1.2790    0.0000 C.ar    1  LIG1       -0.0007
      5 C          -5.1500   -1.2670    0.0000 C.ar    1  LIG1        0.0366
      6 C          -5.6630   -0.3540    0.0000 C.ar    1  LIG1        0.1387
      7 C          -5.1250    0.5460    0.0000 C.ar    1  LIG1        0.0366
      8 C          -4.0750    0.5460    0.0000 C.ar    1  LIG1       -0.0007
      9 O          -6.7040   -0.3420    0.0000 O.3     1  LIG1       -0.4714
     10 C          -7.2210    0.5750    0.0000 C.3     1  LIG1        0.2525
     11 C          -1.7880    0.3330    0.0000 C.3     1  LIG1        0.0449
     12 C          -1.7880    1.2080    0.0000 C.3     1  LIG1        0.1430
     13 O          -2.5380    1.6460    0.0000 O.3     1  LIG1       -0.3537
     14 C          -3.3000    1.2080    0.0000 C.3     1  LIG1        0.1430
     15 C          -3.3000    0.3330    0.0000 C.3     1  LIG1        0.0449
     16 N          -0.7290   -0.0920    0.0000 N.am    1  LIG1       -0.1790
     17 C           0.2830   -0.0920    0.0000 C.ar    1  LIG1        0.0734
     18 C           0.7880   -0.9670    0.0000 C.ar    1  LIG1        0.0167
     19 C           1.8000   -0.9670    0.0000 C.ar    1  LIG1        0.0059
     20 C           2.3130   -0.0920    0.0000 C.ar    1  LIG1        0.0551
     21 C           3.3250   -0.0920    0.0000 C.2     1  LIG1        0.2651
     22 N           3.8250   -0.9670    0.0000 N.am    1  LIG1       -0.1968
     23 C           4.8380   -0.9540    0.0000 C.3     1  LIG1        0.1418
     24 C           5.5460   -0.2420    0.0000 C.ar    1  LIG1       -0.0006
     25 C           6.5130   -0.5000    0.0000 C.ar    1  LIG1       -0.0026
     26 C           7.2210    0.2130    0.0000 C.ar    1  LIG1       -0.0003
     27 C           6.9500    1.1830    0.0000 C.ar    1  LIG1       -0.0000
     28 C           5.9750    1.4380    0.0000 C.ar    1  LIG1       -0.0003
     29 C           5.2710    0.7210    0.0000 C.ar    1  LIG1       -0.0026
     30 O           3.8250    0.7960    0.0000 O.2     1  LIG1       -0.2684
     31 C           1.8000    0.7880    0.0000 C.ar    1  LIG1        0.0059
     32 C           0.7880    0.7880    0.0000 C.ar    1  LIG1        0.0167
     33 O          -1.6380   -1.6420    0.0000 O.2     1  LIG1       -0.2727
@<TRIPOS>BOND
     1     1     2    1
     2     1    16   am
     3     1    33    2
     4     2     3    1
     5     2    11    1
     6     2    15    1
     7     3     4   ar
     8     3     8   ar
     9     4     5   ar
    10     5     6   ar
    11     6     7   ar
    12     6     9    1
    13     7     8   ar
    14     9    10    1
    15    11    12    1
    16    12    13    1
    17    13    14    1
    18    14    15    1
    19    16    17    1
    20    17    18   ar
    21    17    32   ar
    22    18    19   ar
    23    19    20   ar
    24    20    21    1
    25    20    31   ar
    26    21    22   am
    27    21    30    2
    28    22    23    1
    29    23    24    1
    30    24    25   ar
    31    24    29   ar
    32    25    26   ar
    33    26    27   ar
    34    27    28   ar
    35    28    29   ar
    36    31    32   ar
