@<TRIPOS>MOLECULE
29733_ChemDiv_6710-1812
 28 32 0 0 0
SMALL
GASTEIGER
Energy = 0

@<TRIPOS>ATOM
      1 C          -0.5960    1.3500    0.0000 C.3     1  LIG1        0.1939
      2 C           0.0250    0.4500    0.0000 C.2     1  LIG1        0.2637
      3 N          -0.5580   -0.3630    0.0000 N.am    1  LIG1       -0.2077
      4 C          -1.5130   -0.0540    0.0000 C.ar    1  LIG1        0.0578
      5 C          -1.5170    0.9460    0.0000 C.ar    1  LIG1        0.0260
      6 C          -2.3830    1.4420    0.0000 C.ar    1  LIG1       -0.0002
      7 C          -3.2460    0.9460    0.0000 C.ar    1  LIG1       -0.0001
      8 C          -3.2460   -0.0540    0.0000 C.ar    1  LIG1        0.0013
      9 C          -2.3830   -0.5540    0.0000 C.ar    1  LIG1        0.0149
     10 C          -0.3040   -1.3250    0.0000 C.3     1  LIG1        0.2491
     11 N          -1.0130   -2.0290    0.0000 N.4     1  LIG1        0.3937
     12 C          -0.7580   -2.9880    0.0000 C.3     1  LIG1        0.1410
     13 C          -1.4670   -3.6920    0.0000 C.3     1  LIG1        0.0630
     14 C          -2.4380   -3.4290    0.0000 C.3     1  LIG1        0.0123
     15 C          -2.6880   -2.4630    0.0000 C.3     1  LIG1        0.0630
     16 C          -1.9790   -1.7630    0.0000 C.3     1  LIG1        0.1410
     17 O           1.0210    0.4580    0.0000 O.2     1  LIG1       -0.2713
     18 N           0.2630    1.8580    0.0000 N.am    1  LIG1       -0.2415
     19 C           0.0540    2.8330    0.0000 C.2     1  LIG1        0.2415
     20 C          -0.9380    2.9290    0.0000 C.3     1  LIG1        0.1451
     21 S          -1.3330    2.0170    0.0000 S.3     1  LIG1       -0.1007
     22 O           0.5460    3.6960    0.0000 O.2     1  LIG1       -0.2735
     23 C           1.2580    1.8580    0.0000 C.ar    1  LIG1        0.0552
     24 C           1.7500    2.7170    0.0000 C.ar    1  LIG1        0.0149
     25 C           2.7380    2.7210    0.0000 C.ar    1  LIG1        0.0013
     26 C           3.2420    1.8580    0.0000 C.ar    1  LIG1        0.0001
     27 C           2.7460    1.0000    0.0000 C.ar    1  LIG1        0.0013
     28 C           1.7580    1.0000    0.0000 C.ar    1  LIG1        0.0149
@<TRIPOS>BOND
     1     1     2    1
     2     1     5    1
     3     1    18    1
     4     1    21    1
     5     2     3   am
     6     2    17    2
     7     3     4    1
     8     3    10    1
     9     4     5   ar
    10     4     9   ar
    11     5     6   ar
    12     6     7   ar
    13     7     8   ar
    14     8     9   ar
    15    10    11    1
    16    11    12    1
    17    11    16    1
    18    12    13    1
    19    13    14    1
    20    14    15    1
    21    15    16    1
    22    18    19   am
    23    18    23    1
    24    19    20    1
    25    19    22    2
    26    20    21    1
    27    23    24   ar
    28    23    28   ar
    29    24    25   ar
    30    25    26   ar
    31    26    27   ar
    32    27    28   ar
