@<TRIPOS>MOLECULE
29737_ChemDiv_8011-4687
 35 39 0 0 0
SMALL
GASTEIGER
Energy = 0

@<TRIPOS>ATOM
      1 C          -1.7500    0.4330    0.0000 C.3     1  LIG1        0.1939
      2 N          -0.2750    1.2540    0.0000 N.am    1  LIG1       -0.2415
      3 C          -0.7630    2.0960    0.0000 C.2     1  LIG1        0.2401
      4 C          -1.7290    2.0960    0.0000 C.3     1  LIG1        0.1265
      5 S          -2.2130    1.2710    0.0000 S.3     1  LIG1       -0.1020
      6 C          -2.2130    2.9210    0.0000 C.3     1  LIG1        0.0215
      7 O          -0.2920    2.9210    0.0000 O.2     1  LIG1       -0.2736
      8 C           0.6880    1.2540    0.0000 C.ar    1  LIG1        0.0553
      9 C           1.1670    0.4330    0.0000 C.ar    1  LIG1        0.0158
     10 C           2.1290    0.4330    0.0000 C.ar    1  LIG1        0.0127
     11 C           2.6000    1.2710    0.0000 C.ar    1  LIG1        0.0578
     12 C           2.1170    2.0790    0.0000 C.ar    1  LIG1        0.0127
     13 C           1.1670    2.0790    0.0000 C.ar    1  LIG1        0.0158
     14 CL          3.6290    1.2710    0.0000 Cl      1  LIG1       -0.0822
     15 C          -1.2500   -0.3710    0.0000 C.2     1  LIG1        0.2637
     16 N          -1.7500   -1.2080    0.0000 N.am    1  LIG1       -0.2077
     17 C          -2.6880   -1.2080    0.0000 C.ar    1  LIG1        0.0578
     18 C          -3.1500   -0.3880    0.0000 C.ar    1  LIG1        0.0260
     19 C          -4.1130   -0.3880    0.0000 C.ar    1  LIG1       -0.0002
     20 C          -4.6130   -1.1920    0.0000 C.ar    1  LIG1       -0.0001
     21 C          -4.1290   -2.0290    0.0000 C.ar    1  LIG1        0.0013
     22 C          -3.2000   -2.0290    0.0000 C.ar    1  LIG1        0.0149
     23 C          -1.2880   -2.0960    0.0000 C.3     1  LIG1        0.2491
     24 N          -0.2750   -2.0960    0.0000 N.4     1  LIG1        0.3937
     25 C           0.2040   -1.2750    0.0000 C.3     1  LIG1        0.1416
     26 C           1.1500   -1.2750    0.0000 C.3     1  LIG1        0.0741
     27 C           1.6290   -2.0960    0.0000 C.3     1  LIG1        0.1109
     28 C           2.6380   -2.0960    0.0000 C.2     1  LIG1        0.3168
     29 O           3.0500   -2.9170    0.0000 O.2     1  LIG1       -0.2501
     30 O           3.1170   -1.2330    0.0000 O.3     1  LIG1       -0.4485
     31 C           4.1580   -1.2330    0.0000 C.3     1  LIG1        0.2086
     32 C           4.6080   -0.3880    0.0000 C.3     1  LIG1        0.0513
     33 C           1.1670   -2.9000    0.0000 C.3     1  LIG1        0.0741
     34 C           0.2040   -2.9000    0.0000 C.3     1  LIG1        0.1416
     35 O          -0.2130   -0.3710    0.0000 O.2     1  LIG1       -0.2713
@<TRIPOS>BOND
     1     1     2    1
     2     1     5    1
     3     1    15    1
     4     1    18    1
     5     2     3   am
     6     2     8    1
     7     3     4    1
     8     3     7    2
     9     4     5    1
    10     4     6    1
    11     8     9   ar
    12     8    13   ar
    13     9    10   ar
    14    10    11   ar
    15    11    12   ar
    16    11    14    1
    17    12    13   ar
    18    15    16   am
    19    15    35    2
    20    16    17    1
    21    16    23    1
    22    17    18   ar
    23    17    22   ar
    24    18    19   ar
    25    19    20   ar
    26    20    21   ar
    27    21    22   ar
    28    23    24    1
    29    24    25    1
    30    24    34    1
    31    25    26    1
    32    26    27    1
    33    27    28    1
    34    27    33    1
    35    28    29    2
    36    28    30    1
    37    30    31    1
    38    31    32    1
    39    33    34    1
