@<TRIPOS>MOLECULE
29739_ChemDiv_E897-0035
 22 25 0 0 0
SMALL
GASTEIGER
Energy = 0

@<TRIPOS>ATOM
      1 C           0.8040    0.0380    0.0000 C.3     1  LIG1        0.1938
      2 C           1.3500   -0.8080    0.0000 C.2     1  LIG1        0.2597
      3 N           0.7710   -1.6250    0.0000 N.am    1  LIG1       -0.2548
      4 C          -0.1880   -1.3170    0.0000 C.ar    1  LIG1        0.0527
      5 C          -0.1880   -0.3080    0.0000 C.ar    1  LIG1        0.0258
      6 C          -1.0540    0.1880    0.0000 C.ar    1  LIG1       -0.0002
      7 C          -1.9130   -0.3210    0.0000 C.ar    1  LIG1       -0.0001
      8 C          -1.9130   -1.3170    0.0000 C.ar    1  LIG1        0.0013
      9 C          -1.0540   -1.8130    0.0000 C.ar    1  LIG1        0.0147
     10 C           1.0790   -2.5710    0.0000 C.3     1  LIG1        0.1201
     11 O           2.3460   -0.7920    0.0000 O.2     1  LIG1       -0.2715
     12 N           0.4880    0.9880    0.0000 N.am    1  LIG1       -0.2415
     13 C           1.2920    1.5750    0.0000 C.2     1  LIG1        0.2415
     14 C           2.1000    0.9920    0.0000 C.3     1  LIG1        0.1451
     15 S           1.8000    0.0420    0.0000 S.3     1  LIG1       -0.1007
     16 O           1.2880    2.5750    0.0000 O.2     1  LIG1       -0.2735
     17 C          -0.4580    1.2920    0.0000 C.ar    1  LIG1        0.0552
     18 C          -1.1920    0.6170    0.0000 C.ar    1  LIG1        0.0149
     19 C          -2.1380    0.9130    0.0000 C.ar    1  LIG1        0.0013
     20 C          -2.3500    1.8960    0.0000 C.ar    1  LIG1        0.0001
     21 C          -1.6210    2.5630    0.0000 C.ar    1  LIG1        0.0013
     22 C          -0.6710    2.2540    0.0000 C.ar    1  LIG1        0.0149
@<TRIPOS>BOND
     1     1     2    1
     2     1     5    1
     3     1    12    1
     4     1    15    1
     5     2     3   am
     6     2    11    2
     7     3     4    1
     8     3    10    1
     9     4     5   ar
    10     4     9   ar
    11     5     6   ar
    12     6     7   ar
    13     7     8   ar
    14     8     9   ar
    15    12    13   am
    16    12    17    1
    17    13    14    1
    18    13    16    2
    19    14    15    1
    20    17    18   ar
    21    17    22   ar
    22    18    19   ar
    23    19    20   ar
    24    20    21   ar
    25    21    22   ar
