@<TRIPOS>MOLECULE
29748_ChemDiv_6504-0263
 23 25 0 0 0
SMALL
GASTEIGER
Energy = 0

@<TRIPOS>ATOM
      1 C          -0.4290    0.0080    0.0000 C.3     1  LIG1        0.0940
      2 C           0.4130   -0.4790    0.0000 C.2     1  LIG1        0.2448
      3 N           1.2500    0.0040    0.0000 N.am    1  LIG1       -0.1969
      4 C           2.0960   -0.4830    0.0000 C.3     1  LIG1        0.1791
      5 C           2.9380    0.0040    0.0000 C.ar    1  LIG1        0.1449
      6 O           3.7830   -0.4830    0.0000 O.2     1  LIG1       -0.4529
      7 C           4.6250    0.0040    0.0000 C.ar    1  LIG1        0.1792
      8 C           4.6250    0.9670    0.0000 C.ar    1  LIG1        0.0435
      9 C           2.9380    0.9670    0.0000 C.ar    1  LIG1        0.0380
     10 O           0.4130   -1.4500    0.0000 O.2     1  LIG1       -0.2730
     11 C          -1.2670   -0.4790    0.0000 C.ar    1  LIG1       -0.0142
     12 C          -2.1130    0.0080    0.0000 C.ar    1  LIG1       -0.0007
     13 C          -2.9580   -0.4790    0.0000 C.ar    1  LIG1        0.0366
     14 C          -2.9580   -1.4500    0.0000 C.ar    1  LIG1        0.1387
     15 C          -2.1130   -1.9420    0.0000 C.ar    1  LIG1        0.0366
     16 C          -1.2670   -1.4500    0.0000 C.ar    1  LIG1       -0.0007
     17 O          -3.7960   -1.9380    0.0000 O.3     1  LIG1       -0.4714
     18 C          -4.6290   -1.4500    0.0000 C.3     1  LIG1        0.2525
     19 C           0.4130    0.4920    0.0000 C.3     1  LIG1        0.0449
     20 C           0.4130    1.4580    0.0000 C.3     1  LIG1        0.1430
     21 O          -0.4290    1.9460    0.0000 O.3     1  LIG1       -0.3537
     22 C          -1.2710    1.4580    0.0000 C.3     1  LIG1        0.1430
     23 C          -1.2710    0.4920    0.0000 C.3     1  LIG1        0.0449
@<TRIPOS>BOND
     1     1     2    1
     2     1    11    1
     3     1    19    1
     4     1    23    1
     5     2     3   am
     6     2    10    2
     7     3     4    1
     8     4     5    1
     9     5     6   ar
    10     5     9   ar
    11     6     7   ar
    12     7     8   ar
    13     8     9   ar
    14    11    12   ar
    15    11    16   ar
    16    12    13   ar
    17    13    14   ar
    18    14    15   ar
    19    14    17    1
    20    15    16   ar
    21    17    18    1
    22    19    20    1
    23    20    21    1
    24    21    22    1
    25    22    23    1
