@<TRIPOS>MOLECULE
29749_ChemDiv_3448-8869
 20 21 0 0 0
SMALL
GASTEIGER
Energy = 0

@<TRIPOS>ATOM
      1 C           0.5330    0.2290    0.0000 C.3     1  LIG1        0.1562
      2 C           0.0330   -0.7130    0.0000 C.3     1  LIG1        0.0915
      3 C          -1.3040   -0.5330    0.0000 C.3     1  LIG1        0.0899
      4 N          -2.0460   -0.9460    0.0000 N.4     1  LIG1        0.3731
      5 C          -1.7500    0.0130    0.0000 C.3     1  LIG1        0.1409
      6 C          -0.5750   -0.2540    0.0000 C.3     1  LIG1        0.0890
      7 C          -0.3420    0.6130    0.0000 C.3     1  LIG1        0.0091
      8 C          -2.8790   -0.9250    0.0000 C.3     1  LIG1        0.1383
      9 C          -3.3250   -0.2130    0.0000 C.3     1  LIG1        0.0627
     10 C          -2.6210    0.4960    0.0000 C.3     1  LIG1        0.0059
     11 C          -2.8920    1.4500    0.0000 C.3     1  LIG1        0.0002
     12 C          -1.6460    0.8170    0.0000 C.3     1  LIG1        0.0002
     13 C          -1.5420   -1.4130    0.0000 C.3     1  LIG1        0.0627
     14 C           1.4420   -0.1170    0.0000 C.ar    1  LIG1        0.0054
     15 C           2.1880    0.5250    0.0000 C.ar    1  LIG1       -0.0019
     16 C           3.1460    0.1920    0.0000 C.ar    1  LIG1       -0.0002
     17 C           3.3210   -0.8000    0.0000 C.ar    1  LIG1       -0.0000
     18 C           2.5540   -1.4460    0.0000 C.ar    1  LIG1       -0.0002
     19 C           1.6210   -1.0920    0.0000 C.ar    1  LIG1       -0.0019
     20 O           0.4830    1.0710    0.0000 O.3     1  LIG1       -0.2208
@<TRIPOS>BOND
     1     1     2    1
     2     1     6    1
     3     1    14    1
     4     1    20    1
     5     2     3    1
     6     3     4    1
     7     3    13    1
     8     4     5    1
     9     4     8    1
    10     5     6    1
    11     6     7    1
    12     8     9    1
    13     9    10    1
    14    10    11    1
    15    10    12    1
    16    14    15   ar
    17    14    19   ar
    18    15    16   ar
    19    16    17   ar
    20    17    18   ar
    21    18    19   ar
