@<TRIPOS>MOLECULE
29746_ChemDiv_6136-0018
 24 26 0 0 0
SMALL
GASTEIGER
Energy = 0

@<TRIPOS>ATOM
      1 C           2.9330    0.2130    0.0000 C.ar    1  LIG1        0.2008
      2 O           3.9580    0.3290    0.0000 O.2     1  LIG1       -0.4423
      3 C           4.1710    1.3500    0.0000 C.ar    1  LIG1        0.1793
      4 C           3.2710    1.8710    0.0000 C.ar    1  LIG1        0.0478
      5 C           2.5040    1.1710    0.0000 C.ar    1  LIG1        0.0460
      6 BR          5.0960    1.7630    0.0000 Br      1  LIG1       -0.0078
      7 C           2.4130   -0.6880    0.0000 C.2     1  LIG1        0.2995
      8 N           1.3670   -0.6880    0.0000 N.am    1  LIG1       -0.1987
      9 C           0.4670   -1.2130    0.0000 C.3     1  LIG1        0.1197
     10 C          -0.4330   -0.6920    0.0000 C.3     1  LIG1        0.0438
     11 C          -1.4420   -0.9670    0.0000 C.ar    1  LIG1       -0.0208
     12 C          -1.9580   -0.0500    0.0000 C.ar    1  LIG1       -0.0011
     13 C          -2.9960   -0.0500    0.0000 C.ar    1  LIG1        0.0366
     14 C          -3.5290   -0.9460    0.0000 C.ar    1  LIG1        0.1387
     15 C          -3.0170   -1.8500    0.0000 C.ar    1  LIG1        0.0366
     16 C          -1.9750   -1.8670    0.0000 C.ar    1  LIG1       -0.0011
     17 O          -4.5830   -0.9380    0.0000 O.3     1  LIG1       -0.4714
     18 C          -5.1000   -0.0210    0.0000 C.3     1  LIG1        0.2525
     19 C          -1.1710   -0.2670    0.0000 C.3     1  LIG1        0.0379
     20 C          -1.1710    0.6040    0.0000 C.3     1  LIG1        0.1425
     21 O          -0.4330    1.0380    0.0000 O.3     1  LIG1       -0.3538
     22 C           0.3130    0.6040    0.0000 C.3     1  LIG1        0.1425
     23 C           0.3130   -0.2670    0.0000 C.3     1  LIG1        0.0379
     24 O           2.9330   -1.5880    0.0000 O.2     1  LIG1       -0.2650
@<TRIPOS>BOND
     1     1     2   ar
     2     1     5   ar
     3     1     7    1
     4     2     3   ar
     5     3     4   ar
     6     3     6    1
     7     4     5   ar
     8     7     8   am
     9     7    24    2
    10     8     9    1
    11     9    10    1
    12    10    11    1
    13    10    19    1
    14    10    23    1
    15    11    12   ar
    16    11    16   ar
    17    12    13   ar
    18    13    14   ar
    19    14    15   ar
    20    14    17    1
    21    15    16   ar
    22    17    18    1
    23    19    20    1
    24    20    21    1
    25    21    22    1
    26    22    23    1
