@<TRIPOS>MOLECULE
29745_ChemDiv_8016-2013
 17 19 0 0 0
SMALL
GASTEIGER
Energy = 0

@<TRIPOS>ATOM
      1 O          -0.1080   -0.8580    0.0000 O.3     1  LIG1       -0.4535
      2 C          -1.0130   -0.4330    0.0000 C.ar    1  LIG1        0.1465
      3 C          -1.2460    0.5460    0.0000 C.ar    1  LIG1        0.0347
      4 C          -0.6210    1.3250    0.0000 C.2     1  LIG1        0.0031
      5 C           0.3830    1.3330    0.0000 C.2     1  LIG1        0.0031
      6 C           1.0080    0.5580    0.0000 C.ar    1  LIG1        0.0351
      7 C           0.7920   -0.4210    0.0000 C.ar    1  LIG1        0.1452
      8 C           1.5290   -1.1040    0.0000 C.ar    1  LIG1        0.0380
      9 C           2.4830   -0.7960    0.0000 C.ar    1  LIG1        0.0098
     10 C           2.6960    0.1830    0.0000 C.ar    1  LIG1        0.0348
     11 C           1.9580    0.8580    0.0000 C.ar    1  LIG1        0.0097
     12 BR          3.5670    0.6830    0.0000 Br      1  LIG1       -0.0490
     13 C          -2.2000    0.8330    0.0000 C.ar    1  LIG1        0.0044
     14 C          -2.9250    0.1460    0.0000 C.ar    1  LIG1        0.0183
     15 C          -2.7000   -0.8290    0.0000 C.ar    1  LIG1        0.0921
     16 C          -1.7460   -1.1210    0.0000 C.ar    1  LIG1        0.0555
     17 N          -3.5710   -1.3290    0.0000 N.pl3   1  LIG1       -0.1280
@<TRIPOS>BOND
     1     1     2    1
     2     1     7    1
     3     2     3   ar
     4     2    16   ar
     5     3     4    1
     6     3    13   ar
     7     4     5    2
     8     5     6    1
     9     6     7   ar
    10     6    11   ar
    11     7     8   ar
    12     8     9   ar
    13     9    10   ar
    14    10    11   ar
    15    10    12    1
    16    13    14   ar
    17    14    15   ar
    18    15    16   ar
    19    15    17    1
