@<TRIPOS>MOLECULE
29753_ChemDiv_4286-0111
 32 36 0 0 0
SMALL
GASTEIGER
Energy = 0

@<TRIPOS>ATOM
      1 C          -0.9380    1.8920    0.0000 C.3     1  LIG1        0.0916
      2 C           0.0830    1.8920    0.0000 C.3     1  LIG1        0.1694
      3 C           1.2290    2.9000    0.0000 C.ar    1  LIG1        0.0091
      4 C           0.7330    3.7170    0.0000 C.ar    1  LIG1       -0.0016
      5 C           1.1920    4.5330    0.0000 C.ar    1  LIG1       -0.0002
      6 C           2.1420    4.5580    0.0000 C.ar    1  LIG1       -0.0000
      7 C           2.6250    3.7500    0.0000 C.ar    1  LIG1       -0.0002
      8 C           2.1670    2.9250    0.0000 C.ar    1  LIG1       -0.0016
      9 C           1.6040    1.6290    0.0000 C.ar    1  LIG1        0.0091
     10 C           1.1290    0.8210    0.0000 C.ar    1  LIG1       -0.0016
     11 C           1.6290    0.0000    0.0000 C.ar    1  LIG1       -0.0002
     12 C           2.5790    0.0170    0.0000 C.ar    1  LIG1       -0.0000
     13 C           3.0380    0.8380    0.0000 C.ar    1  LIG1       -0.0002
     14 C           2.5580    1.6460    0.0000 C.ar    1  LIG1       -0.0016
     15 O           0.0880    0.8880    0.0000 O.3     1  LIG1       -0.2165
     16 C          -0.9380    0.6920    0.0000 C.3     1  LIG1        0.1119
     17 N          -1.9670    0.0830    0.0000 N.4     1  LIG1        0.3029
     18 C          -2.0210   -0.8460    0.0000 C.3     1  LIG1        0.1786
     19 C          -1.3040   -1.2630    0.0000 C.2     1  LIG1        0.2280
     20 C          -1.3290   -2.0960    0.0000 C.ar    1  LIG1        0.0406
     21 C          -0.6130   -2.5080    0.0000 C.ar    1  LIG1        0.0036
     22 C          -0.6290   -3.3330    0.0000 C.ar    1  LIG1        0.0068
     23 C          -1.3460   -3.7380    0.0000 C.ar    1  LIG1        0.0346
     24 C          -2.0460   -3.3210    0.0000 C.ar    1  LIG1        0.0068
     25 C          -2.0290   -2.4830    0.0000 C.ar    1  LIG1        0.0036
     26 BR         -1.3460   -4.5580    0.0000 Br      1  LIG1       -0.0490
     27 O          -0.5960   -0.8460    0.0000 O.2     1  LIG1       -0.2851
     28 C          -2.3960    1.2290    0.0000 C.3     1  LIG1        0.1089
     29 C          -1.6380    1.6630    0.0000 C.3     1  LIG1        0.0616
     30 C          -1.9830    2.5580    0.0000 C.3     1  LIG1        0.0205
     31 C          -3.0420    1.9460    0.0000 C.3     1  LIG1        0.0616
     32 C          -3.0420    0.7080    0.0000 C.3     1  LIG1        0.1089
@<TRIPOS>BOND
     1     1     2    1
     2     1    16    1
     3     1    30    1
     4     2     3    1
     5     2     9    1
     6     2    15    1
     7     3     4   ar
     8     3     8   ar
     9     4     5   ar
    10     5     6   ar
    11     6     7   ar
    12     7     8   ar
    13     9    10   ar
    14     9    14   ar
    15    10    11   ar
    16    11    12   ar
    17    12    13   ar
    18    13    14   ar
    19    16    17    1
    20    17    18    1
    21    17    28    1
    22    17    32    1
    23    18    19    1
    24    19    20    1
    25    19    27    2
    26    20    21   ar
    27    20    25   ar
    28    21    22   ar
    29    22    23   ar
    30    23    24   ar
    31    23    26    1
    32    24    25   ar
    33    28    29    1
    34    29    30    1
    35    30    31    1
    36    31    32    1
