@<TRIPOS>MOLECULE
29758_ChemDiv_5586-1861
 19 20 0 0 0
SMALL
GASTEIGER
Energy = 0

@<TRIPOS>ATOM
      1 C          -0.4710    0.0000    0.0000 C.3     1  LIG1        0.0406
      2 C           0.5000    0.0000    0.0000 C.ar    1  LIG1        0.0123
      3 C           0.9920    0.8670    0.0000 C.ar    1  LIG1        0.1347
      4 O           0.5000    1.7330    0.0000 O.3     1  LIG1       -0.4717
      5 C           0.9920    2.6000    0.0000 C.3     1  LIG1        0.2525
      6 C           2.0000    0.8130    0.0000 C.ar    1  LIG1        0.0366
      7 C           2.4920   -0.0750    0.0000 C.ar    1  LIG1        0.0031
      8 C           1.9580   -0.9080    0.0000 C.ar    1  LIG1       -0.0001
      9 C           0.9670   -0.8670    0.0000 C.ar    1  LIG1       -0.0013
     10 C          -1.4710    0.0000    0.0000 C.3     1  LIG1        0.0325
     11 C          -1.9500    0.8460    0.0000 C.3     1  LIG1        0.0932
     12 O          -1.4290    1.7540    0.0000 O.3     1  LIG1       -0.3585
     13 C          -0.4540    1.7540    0.0000 C.3     1  LIG1        0.1423
     14 C           0.0670    0.8460    0.0000 C.3     1  LIG1        0.0373
     15 C          -2.4960   -0.0420    0.0000 C.3     1  LIG1        0.0296
     16 C          -2.4960    1.6920    0.0000 C.3     1  LIG1        0.0296
     17 C          -1.0040   -0.8630    0.0000 C.3     1  LIG1        0.1096
     18 C          -0.5500   -1.7290    0.0000 C.1     1  LIG1        0.0735
     19 N          -0.1290   -2.5960    0.0000 N.1     1  LIG1       -0.1959
@<TRIPOS>BOND
     1     1     2    1
     2     1    10    1
     3     1    14    1
     4     1    17    1
     5     2     3   ar
     6     2     9   ar
     7     3     4    1
     8     3     6   ar
     9     4     5    1
    10     6     7   ar
    11     7     8   ar
    12     8     9   ar
    13    10    11    1
    14    11    12    1
    15    11    15    1
    16    11    16    1
    17    12    13    1
    18    13    14    1
    19    17    18    1
    20    18    19    3
