@<TRIPOS>MOLECULE
29752_ChemDiv_3455-1365
 26 29 0 0 0
SMALL
GASTEIGER
Energy = 0

@<TRIPOS>ATOM
      1 C          -0.8790    0.5880    0.0000 C.3     1  LIG1        0.2860
      2 O          -1.7460    1.1040    0.0000 O.3     1  LIG1       -0.4629
      3 C          -2.6080    0.5880    0.0000 C.ar    1  LIG1        0.1729
      4 C          -2.6080   -0.4080    0.0000 C.ar    1  LIG1        0.1724
      5 O          -1.7460   -0.9040    0.0000 O.3     1  LIG1       -0.4679
      6 C          -0.8790   -0.4080    0.0000 C.3     1  LIG1        0.2584
      7 C          -3.4790   -0.9040    0.0000 C.ar    1  LIG1        0.0400
      8 C          -4.3420   -0.4080    0.0000 C.ar    1  LIG1        0.0033
      9 C          -4.3420    0.5880    0.0000 C.ar    1  LIG1        0.0033
     10 C          -3.4790    1.1040    0.0000 C.ar    1  LIG1        0.0401
     11 C           0.0000    1.0830    0.0000 C.2     1  LIG1        0.2855
     12 N           0.8580    0.5540    0.0000 N.am    1  LIG1       -0.2020
     13 C           1.7420    1.0460    0.0000 C.3     1  LIG1        0.1193
     14 C           2.6040    0.5080    0.0000 C.3     1  LIG1        0.0438
     15 C           2.1460   -0.2540    0.0000 C.ar    1  LIG1       -0.0210
     16 C           1.1210   -0.2540    0.0000 C.ar    1  LIG1       -0.0042
     17 C           0.6130   -1.1330    0.0000 C.ar    1  LIG1       -0.0003
     18 C           1.1170   -2.0210    0.0000 C.ar    1  LIG1       -0.0000
     19 C           2.1330   -2.0210    0.0000 C.ar    1  LIG1       -0.0003
     20 C           2.6250   -1.1330    0.0000 C.ar    1  LIG1       -0.0042
     21 C           3.4670    1.0130    0.0000 C.3     1  LIG1        0.0379
     22 C           4.3380    0.4750    0.0000 C.3     1  LIG1        0.1425
     23 O           4.3380   -0.5290    0.0000 O.3     1  LIG1       -0.3538
     24 C           3.4330   -0.9960    0.0000 C.3     1  LIG1        0.1425
     25 C           2.6040   -0.4830    0.0000 C.3     1  LIG1        0.0379
     26 O           0.0000    2.0250    0.0000 O.2     1  LIG1       -0.2693
@<TRIPOS>BOND
     1     1     2    1
     2     1     6    1
     3     1    11    1
     4     2     3    1
     5     3     4   ar
     6     3    10   ar
     7     4     5    1
     8     4     7   ar
     9     5     6    1
    10     7     8   ar
    11     8     9   ar
    12     9    10   ar
    13    11    12   am
    14    11    26    2
    15    12    13    1
    16    13    14    1
    17    14    15    1
    18    14    21    1
    19    14    25    1
    20    15    16   ar
    21    15    20   ar
    22    16    17   ar
    23    17    18   ar
    24    18    19   ar
    25    19    20   ar
    26    21    22    1
    27    22    23    1
    28    23    24    1
    29    24    25    1
