@<TRIPOS>MOLECULE
29751_ChemDiv_4286-0108
 25 28 0 0 0
SMALL
GASTEIGER
Energy = 0

@<TRIPOS>ATOM
      1 C          -0.2080   -0.1040    0.0000 C.3     1  LIG1        0.1694
      2 C          -1.2830   -0.4750    0.0000 C.3     1  LIG1        0.0915
      3 C          -1.2750   -1.6080    0.0000 C.3     1  LIG1        0.1117
      4 N          -2.1330   -2.1130    0.0000 N.4     1  LIG1        0.3016
      5 C          -2.9750   -1.6080    0.0000 C.3     1  LIG1        0.1087
      6 C          -2.9750   -0.6330    0.0000 C.3     1  LIG1        0.0615
      7 C          -2.1330   -0.1330    0.0000 C.3     1  LIG1        0.0205
      8 C          -1.8750   -0.8330    0.0000 C.3     1  LIG1        0.0615
      9 C          -2.4710   -1.1750    0.0000 C.3     1  LIG1        0.1087
     10 C          -2.1420   -3.0830    0.0000 C.3     1  LIG1        0.1704
     11 C          -0.2920    0.5000    0.0000 C.ar    1  LIG1        0.0100
     12 C           0.5500    1.2540    0.0000 C.ar    1  LIG1        0.0098
     13 C           0.3290    2.3500    0.0000 C.ar    1  LIG1        0.0574
     14 CL          1.1630    3.0880    0.0000 Cl      1  LIG1       -0.0823
     15 C          -0.7460    2.7040    0.0000 C.ar    1  LIG1        0.0114
     16 C          -1.5790    1.9540    0.0000 C.ar    1  LIG1        0.0006
     17 C          -1.3580    0.8580    0.0000 C.ar    1  LIG1       -0.0016
     18 C           1.0040   -0.4420    0.0000 C.ar    1  LIG1        0.0100
     19 C           1.4830   -1.2920    0.0000 C.ar    1  LIG1        0.0098
     20 C           2.4750   -1.2960    0.0000 C.ar    1  LIG1        0.0574
     21 CL          2.9580   -2.1580    0.0000 Cl      1  LIG1       -0.0823
     22 C           2.9710   -0.4540    0.0000 C.ar    1  LIG1        0.0114
     23 C           2.4960    0.4040    0.0000 C.ar    1  LIG1        0.0006
     24 C           1.4960    0.4040    0.0000 C.ar    1  LIG1       -0.0016
     25 O          -0.1290   -0.9540    0.0000 O.3     1  LIG1       -0.2164
@<TRIPOS>BOND
     1     1     2    1
     2     1    11    1
     3     1    18    1
     4     1    25    1
     5     2     3    1
     6     2     7    1
     7     3     4    1
     8     4     5    1
     9     4     9    1
    10     4    10    1
    11     5     6    1
    12     6     7    1
    13     7     8    1
    14     8     9    1
    15    11    12   ar
    16    11    17   ar
    17    12    13   ar
    18    13    14    1
    19    13    15   ar
    20    15    16   ar
    21    16    17   ar
    22    18    19   ar
    23    18    24   ar
    24    19    20   ar
    25    20    21    1
    26    20    22   ar
    27    22    23   ar
    28    23    24   ar
