@<TRIPOS>MOLECULE
29750_ChemDiv_8015-4917
 32 35 0 0 0
SMALL
GASTEIGER
Energy = 0

@<TRIPOS>ATOM
      1 C          -4.0210    1.7710    0.0000 C.2     1  LIG1        0.3037
      2 C          -5.0130    1.7710    0.0000 C.ar    1  LIG1        0.2005
      3 O          -5.8750    1.2460    0.0000 O.2     1  LIG1       -0.4457
      4 C          -6.6170    1.9170    0.0000 C.ar    1  LIG1        0.1798
      5 C          -6.2210    2.8330    0.0000 C.ar    1  LIG1        0.0440
      6 C          -5.2380    2.7380    0.0000 C.ar    1  LIG1        0.0455
      7 N          -3.5170    0.9080    0.0000 N.am    1  LIG1       -0.1728
      8 C          -2.5170    0.9080    0.0000 C.ar    1  LIG1        0.0738
      9 C          -2.0170    0.0290    0.0000 C.ar    1  LIG1        0.0168
     10 C          -1.0080    0.0290    0.0000 C.ar    1  LIG1        0.0059
     11 C          -0.5170    0.9000    0.0000 C.ar    1  LIG1        0.0551
     12 C           0.4920    0.9080    0.0000 C.2     1  LIG1        0.2648
     13 N           1.0000    0.0460    0.0000 N.am    1  LIG1       -0.2013
     14 C           1.9920    0.0460    0.0000 C.3     1  LIG1        0.1196
     15 C           2.4920   -0.8290    0.0000 C.3     1  LIG1        0.0438
     16 C           3.4540   -1.0830    0.0000 C.ar    1  LIG1       -0.0208
     17 C           3.7130   -2.0540    0.0000 C.ar    1  LIG1       -0.0011
     18 C           4.6790   -2.3170    0.0000 C.ar    1  LIG1        0.0366
     19 C           5.3920   -1.6040    0.0000 C.ar    1  LIG1        0.1387
     20 C           5.1290   -0.6330    0.0000 C.ar    1  LIG1        0.0366
     21 C           4.1630   -0.3790    0.0000 C.ar    1  LIG1       -0.0011
     22 O           6.3540   -1.8580    0.0000 O.3     1  LIG1       -0.4714
     23 C           6.6170   -2.8290    0.0000 C.3     1  LIG1        0.2525
     24 C           1.4920   -0.7170    0.0000 C.3     1  LIG1        0.0379
     25 C           0.9000   -1.5080    0.0000 C.3     1  LIG1        0.1425
     26 O           1.2920   -2.4290    0.0000 O.3     1  LIG1       -0.3538
     27 C           2.2790   -2.5460    0.0000 C.3     1  LIG1        0.1425
     28 C           2.8790   -1.7460    0.0000 C.3     1  LIG1        0.0379
     29 O           0.9920    1.7790    0.0000 O.2     1  LIG1       -0.2684
     30 C          -1.0250    1.7710    0.0000 C.ar    1  LIG1        0.0059
     31 C          -2.0170    1.7710    0.0000 C.ar    1  LIG1        0.0168
     32 O          -3.5130    2.6330    0.0000 O.2     1  LIG1       -0.2646
@<TRIPOS>BOND
     1     1     2    1
     2     1     7   am
     3     1    32    2
     4     2     3   ar
     5     2     6   ar
     6     3     4   ar
     7     4     5   ar
     8     5     6   ar
     9     7     8    1
    10     8     9   ar
    11     8    31   ar
    12     9    10   ar
    13    10    11   ar
    14    11    12    1
    15    11    30   ar
    16    12    13   am
    17    12    29    2
    18    13    14    1
    19    14    15    1
    20    15    16    1
    21    15    24    1
    22    15    28    1
    23    16    17   ar
    24    16    21   ar
    25    17    18   ar
    26    18    19   ar
    27    19    20   ar
    28    19    22    1
    29    20    21   ar
    30    22    23    1
    31    24    25    1
    32    25    26    1
    33    26    27    1
    34    27    28    1
    35    30    31   ar
