@<TRIPOS>MOLECULE
29759_ChemDiv_4286-0116
 28 31 0 0 0
SMALL
GASTEIGER
Energy = 0

@<TRIPOS>ATOM
      1 C          -0.9000    1.2380    0.0000 C.3     1  LIG1        0.0916
      2 C           0.0670    1.2380    0.0000 C.3     1  LIG1        0.1694
      3 C           1.1920    2.2380    0.0000 C.ar    1  LIG1        0.0091
      4 C           2.1000    2.2380    0.0000 C.ar    1  LIG1       -0.0016
      5 C           2.5460    3.0330    0.0000 C.ar    1  LIG1       -0.0002
      6 C           2.0750    3.8420    0.0000 C.ar    1  LIG1       -0.0000
      7 C           1.1670    3.8130    0.0000 C.ar    1  LIG1       -0.0002
      8 C           0.7130    3.0170    0.0000 C.ar    1  LIG1       -0.0016
      9 C           1.5500    0.9960    0.0000 C.ar    1  LIG1        0.0091
     10 C           1.0960    0.1920    0.0000 C.ar    1  LIG1       -0.0016
     11 C           1.5630   -0.5960    0.0000 C.ar    1  LIG1       -0.0002
     12 C           2.4880   -0.5790    0.0000 C.ar    1  LIG1       -0.0000
     13 C           2.9420    0.2290    0.0000 C.ar    1  LIG1       -0.0002
     14 C           2.4750    1.0130    0.0000 C.ar    1  LIG1       -0.0016
     15 O           0.1000    0.2580    0.0000 O.3     1  LIG1       -0.2165
     16 C          -0.9000    0.0790    0.0000 C.3     1  LIG1        0.1121
     17 N          -1.9210   -0.5250    0.0000 N.4     1  LIG1        0.3055
     18 C          -1.9630   -1.4170    0.0000 C.3     1  LIG1        0.2192
     19 C          -1.2790   -1.8170    0.0000 C.2     1  LIG1        0.3739
     20 O          -0.5750   -1.4460    0.0000 O.2     1  LIG1       -0.2435
     21 O          -1.2790   -2.6290    0.0000 O.3     1  LIG1       -0.4445
     22 C          -0.5830   -3.0420    0.0000 C.3     1  LIG1        0.2088
     23 C          -0.6130   -3.8380    0.0000 C.3     1  LIG1        0.0513
     24 C          -2.9460    0.0880    0.0000 C.3     1  LIG1        0.1091
     25 C          -2.9460    1.3080    0.0000 C.3     1  LIG1        0.0616
     26 C          -1.9210    1.8960    0.0000 C.3     1  LIG1        0.0205
     27 C          -1.5960    1.0250    0.0000 C.3     1  LIG1        0.0616
     28 C          -2.3210    0.6000    0.0000 C.3     1  LIG1        0.1091
@<TRIPOS>BOND
     1     1     2    1
     2     1    16    1
     3     1    26    1
     4     2     3    1
     5     2     9    1
     6     2    15    1
     7     3     4   ar
     8     3     8   ar
     9     4     5   ar
    10     5     6   ar
    11     6     7   ar
    12     7     8   ar
    13     9    10   ar
    14     9    14   ar
    15    10    11   ar
    16    11    12   ar
    17    12    13   ar
    18    13    14   ar
    19    16    17    1
    20    17    18    1
    21    17    24    1
    22    17    28    1
    23    18    19    1
    24    19    20    2
    25    19    21    1
    26    21    22    1
    27    22    23    1
    28    24    25    1
    29    25    26    1
    30    26    27    1
    31    27    28    1
