@<TRIPOS>MOLECULE
29756_ChemDiv_4850-0198
 15 16 0 0 0
SMALL
GASTEIGER
Energy = 0

@<TRIPOS>ATOM
      1 C           0.3880   -0.0330    0.0000 C.3     1  LIG1        0.0556
      2 C           1.3040   -0.5290    0.0000 C.2     1  LIG1        0.0536
      3 O           1.3040   -1.5170    0.0000 O.co2   1  LIG1       -0.5489
      4 O           2.1540   -0.0330    0.0000 O.co2   1  LIG1       -0.5489
      5 C          -0.4630   -0.5290    0.0000 C.ar    1  LIG1       -0.0178
      6 C          -1.3080   -0.0330    0.0000 C.ar    1  LIG1       -0.0039
      7 C          -2.1580   -0.5290    0.0000 C.ar    1  LIG1       -0.0003
      8 C          -2.1580   -1.5170    0.0000 C.ar    1  LIG1       -0.0000
      9 C          -1.3080   -2.0130    0.0000 C.ar    1  LIG1       -0.0003
     10 C          -0.4630   -1.5170    0.0000 C.ar    1  LIG1       -0.0039
     11 C          -0.4630    0.5380    0.0000 C.3     1  LIG1        0.0414
     12 C          -0.4630    1.5210    0.0000 C.3     1  LIG1        0.1429
     13 O           0.3880    2.0170    0.0000 O.3     1  LIG1       -0.3537
     14 C           1.3040    1.5210    0.0000 C.3     1  LIG1        0.1429
     15 C           1.3040    0.5380    0.0000 C.3     1  LIG1        0.0414
@<TRIPOS>BOND
     1     1     2    1
     2     1     5    1
     3     1    11    1
     4     1    15    1
     5     2     3   ar
     6     2     4   ar
     7     5     6   ar
     8     5    10   ar
     9     6     7   ar
    10     7     8   ar
    11     8     9   ar
    12     9    10   ar
    13    11    12    1
    14    12    13    1
    15    13    14    1
    16    14    15    1
