@<TRIPOS>MOLECULE
29769_ChemDiv_E963-0158
 35 39 0 0 0
SMALL
GASTEIGER
Energy = 0

@<TRIPOS>ATOM
      1 C           0.8750    0.4290    0.0000 C.3     1  LIG1        0.2648
      2 S           1.8420    0.6710    0.0000 S.O2    1  LIG1        0.0238
      3 C           1.9080    1.6670    0.0000 C.3     1  LIG1        0.2384
      4 C           0.9830    2.0420    0.0000 C.2     1  LIG1        0.2552
      5 N           0.3460    1.2750    0.0000 N.am    1  LIG1       -0.2316
      6 C          -0.5630    1.6750    0.0000 C.ar    1  LIG1        0.0592
      7 C          -0.6630    2.6750    0.0000 C.ar    1  LIG1        0.0550
      8 C          -1.5750    3.0830    0.0000 C.ar    1  LIG1        0.1736
      9 C          -2.3830    2.4920    0.0000 C.ar    1  LIG1        0.1725
     10 C          -2.2790    1.4960    0.0000 C.ar    1  LIG1        0.0413
     11 C          -1.3710    1.0920    0.0000 C.ar    1  LIG1        0.0183
     12 O          -3.2920    2.9000    0.0000 O.3     1  LIG1       -0.4684
     13 C          -4.0960    2.3130    0.0000 C.3     1  LIG1        0.2526
     14 O          -1.6750    4.0670    0.0000 O.3     1  LIG1       -0.4683
     15 C          -2.5880    4.4750    0.0000 C.3     1  LIG1        0.2526
     16 O           0.7420    3.0080    0.0000 O.2     1  LIG1       -0.2726
     17 O           2.7830    0.3630    0.0000 O.2     1  LIG1       -0.1703
     18 O           2.7250    1.1330    0.0000 O.2     1  LIG1       -0.1703
     19 C           1.4250   -0.4330    0.0000 C.2     1  LIG1        0.2716
     20 N           0.8460   -1.2500    0.0000 N.am    1  LIG1       -0.2516
     21 C          -0.1170   -0.9380    0.0000 C.ar    1  LIG1        0.0538
     22 C          -0.1170    0.0580    0.0000 C.ar    1  LIG1        0.0373
     23 C          -0.9830    0.5580    0.0000 C.ar    1  LIG1        0.0006
     24 C          -1.8460    0.0580    0.0000 C.ar    1  LIG1       -0.0001
     25 C          -1.8460   -0.9380    0.0000 C.ar    1  LIG1        0.0013
     26 C          -0.9830   -1.4460    0.0000 C.ar    1  LIG1        0.0147
     27 C           1.1670   -2.1920    0.0000 C.3     1  LIG1        0.1249
     28 C           2.1460   -2.3880    0.0000 C.ar    1  LIG1        0.0002
     29 C           2.4500   -3.3330    0.0000 C.ar    1  LIG1        0.0270
     30 C           3.4330   -3.5330    0.0000 C.ar    1  LIG1        0.1399
     31 F           3.7500   -4.4750    0.0000 F       1  LIG1       -0.2042
     32 C           4.0920   -2.7790    0.0000 C.ar    1  LIG1        0.0296
     33 C           3.7670   -1.8290    0.0000 C.ar    1  LIG1        0.0020
     34 C           2.7920   -1.6420    0.0000 C.ar    1  LIG1       -0.0025
     35 O           2.4210   -0.4250    0.0000 O.2     1  LIG1       -0.2706
@<TRIPOS>BOND
     1     1     2    1
     2     1     5    1
     3     1    19    1
     4     1    22    1
     5     2     3    1
     6     2    17    2
     7     2    18    2
     8     3     4    1
     9     4     5   am
    10     4    16    2
    11     5     6    1
    12     6     7   ar
    13     6    11   ar
    14     7     8   ar
    15     8     9   ar
    16     8    14    1
    17     9    10   ar
    18     9    12    1
    19    10    11   ar
    20    12    13    1
    21    14    15    1
    22    19    20   am
    23    19    35    2
    24    20    21    1
    25    20    27    1
    26    21    22   ar
    27    21    26   ar
    28    22    23   ar
    29    23    24   ar
    30    24    25   ar
    31    25    26   ar
    32    27    28    1
    33    28    29   ar
    34    28    34   ar
    35    29    30   ar
    36    30    31    1
    37    30    32   ar
    38    32    33   ar
    39    33    34   ar
