@<TRIPOS>MOLECULE
29765_ChemDiv_E963-0116
 32 36 0 0 0
SMALL
GASTEIGER
Energy = 0

@<TRIPOS>ATOM
      1 C          -0.0130    0.6580    0.0000 C.3     1  LIG1        0.2648
      2 S           0.9540    0.9000    0.0000 S.O2    1  LIG1        0.0238
      3 C           1.0250    1.8960    0.0000 C.3     1  LIG1        0.2384
      4 C           0.0920    2.2750    0.0000 C.2     1  LIG1        0.2552
      5 N          -0.5420    1.5040    0.0000 N.am    1  LIG1       -0.2317
      6 C          -1.4500    1.9130    0.0000 C.ar    1  LIG1        0.0559
      7 C          -1.5540    2.9000    0.0000 C.ar    1  LIG1        0.0146
      8 C          -2.4630    3.3080    0.0000 C.ar    1  LIG1       -0.0030
      9 C          -3.2670    2.7290    0.0000 C.ar    1  LIG1       -0.0218
     10 C          -3.1630    1.7290    0.0000 C.ar    1  LIG1       -0.0030
     11 C          -2.2540    1.3210    0.0000 C.ar    1  LIG1        0.0146
     12 C          -4.1880    3.1250    0.0000 C.3     1  LIG1        0.0310
     13 O          -0.1500    3.2420    0.0000 O.2     1  LIG1       -0.2726
     14 O           1.8380    1.3580    0.0000 O.2     1  LIG1       -0.1703
     15 O           1.8880    0.5960    0.0000 O.2     1  LIG1       -0.1703
     16 C           0.5420   -0.2040    0.0000 C.2     1  LIG1        0.2716
     17 N          -0.0460   -1.0210    0.0000 N.am    1  LIG1       -0.2516
     18 C          -1.0000   -0.7170    0.0000 C.ar    1  LIG1        0.0538
     19 C          -1.0000    0.2830    0.0000 C.ar    1  LIG1        0.0373
     20 C          -1.8750    0.7830    0.0000 C.ar    1  LIG1        0.0006
     21 C          -2.7330    0.2830    0.0000 C.ar    1  LIG1       -0.0001
     22 C          -2.7330   -0.7170    0.0000 C.ar    1  LIG1        0.0013
     23 C          -1.8750   -1.2170    0.0000 C.ar    1  LIG1        0.0147
     24 C           0.2710   -1.9580    0.0000 C.3     1  LIG1        0.1248
     25 C           1.2540   -2.1540    0.0000 C.ar    1  LIG1       -0.0020
     26 C           1.5670   -3.1040    0.0000 C.ar    1  LIG1       -0.0029
     27 C           2.5380   -3.3040    0.0000 C.ar    1  LIG1       -0.0045
     28 C           3.2040   -2.5460    0.0000 C.ar    1  LIG1       -0.0219
     29 C           2.8830   -1.6040    0.0000 C.ar    1  LIG1       -0.0045
     30 C           1.9040   -1.4130    0.0000 C.ar    1  LIG1       -0.0029
     31 C           4.1830   -2.7420    0.0000 C.3     1  LIG1        0.0310
     32 O           1.5380   -0.2000    0.0000 O.2     1  LIG1       -0.2706
@<TRIPOS>BOND
     1     1     2    1
     2     1     5    1
     3     1    16    1
     4     1    19    1
     5     2     3    1
     6     2    14    2
     7     2    15    2
     8     3     4    1
     9     4     5   am
    10     4    13    2
    11     5     6    1
    12     6     7   ar
    13     6    11   ar
    14     7     8   ar
    15     8     9   ar
    16     9    10   ar
    17     9    12    1
    18    10    11   ar
    19    16    17   am
    20    16    32    2
    21    17    18    1
    22    17    24    1
    23    18    19   ar
    24    18    23   ar
    25    19    20   ar
    26    20    21   ar
    27    21    22   ar
    28    22    23   ar
    29    24    25    1
    30    25    26   ar
    31    25    30   ar
    32    26    27   ar
    33    27    28   ar
    34    28    29   ar
    35    28    31    1
    36    29    30   ar
