@<TRIPOS>MOLECULE
29760_ChemDiv_6504-0281
 17 18 0 0 0
SMALL
GASTEIGER
Energy = 0

@<TRIPOS>ATOM
      1 C           1.2960    0.0040    0.0000 C.3     1  LIG1        0.0556
      2 C           2.1630   -0.4960    0.0000 C.2     1  LIG1        0.0536
      3 O           2.1630   -1.4920    0.0000 O.co2   1  LIG1       -0.5489
      4 O           3.0290    0.0000    0.0000 O.co2   1  LIG1       -0.5489
      5 C           0.4290   -0.4960    0.0000 C.ar    1  LIG1       -0.0176
      6 C           0.4290   -1.4960    0.0000 C.ar    1  LIG1       -0.0008
      7 C          -0.4380   -2.0000    0.0000 C.ar    1  LIG1        0.0366
      8 C          -1.3080   -1.4960    0.0000 C.ar    1  LIG1        0.1387
      9 C          -1.3080   -0.4960    0.0000 C.ar    1  LIG1        0.0366
     10 C          -0.4380    0.0040    0.0000 C.ar    1  LIG1       -0.0008
     11 O          -2.1710   -1.9960    0.0000 O.3     1  LIG1       -0.4714
     12 C          -3.0330   -1.4960    0.0000 C.3     1  LIG1        0.2525
     13 C           0.4250    0.5040    0.0000 C.3     1  LIG1        0.0414
     14 C           0.4250    1.5040    0.0000 C.3     1  LIG1        0.1429
     15 O           1.2960    2.0040    0.0000 O.3     1  LIG1       -0.3537
     16 C           2.1630    1.5040    0.0000 C.3     1  LIG1        0.1429
     17 C           2.1630    0.5040    0.0000 C.3     1  LIG1        0.0414
@<TRIPOS>BOND
     1     1     2    1
     2     1     5    1
     3     1    13    1
     4     1    17    1
     5     2     3   ar
     6     2     4   ar
     7     5     6   ar
     8     5    10   ar
     9     6     7   ar
    10     7     8   ar
    11     8     9   ar
    12     8    11    1
    13     9    10   ar
    14    11    12    1
    15    13    14    1
    16    14    15    1
    17    15    16    1
    18    16    17    1
