@<TRIPOS>MOLECULE
29767_ChemDiv_E963-0119
 33 37 0 0 0
SMALL
GASTEIGER
Energy = 0

@<TRIPOS>ATOM
      1 C          -0.4670   -0.1330    0.0000 C.3     1  LIG1        0.2648
      2 S           0.5000    0.1080    0.0000 S.O2    1  LIG1        0.0238
      3 C           0.5670    1.1040    0.0000 C.3     1  LIG1        0.2384
      4 C          -0.3580    1.4830    0.0000 C.2     1  LIG1        0.2552
      5 N          -0.9960    0.7130    0.0000 N.am    1  LIG1       -0.2317
      6 C          -1.9040    1.1210    0.0000 C.ar    1  LIG1        0.0556
      7 C          -2.0040    2.1080    0.0000 C.ar    1  LIG1        0.0107
      8 C          -2.9170    2.5170    0.0000 C.ar    1  LIG1       -0.0209
      9 C          -3.7290    1.9380    0.0000 C.ar    1  LIG1       -0.0042
     10 C          -3.6210    0.9380    0.0000 C.ar    1  LIG1        0.0010
     11 C          -2.7170    0.5330    0.0000 C.ar    1  LIG1        0.0149
     12 C          -3.0170    3.5080    0.0000 C.3     1  LIG1        0.0264
     13 C          -2.2170    4.0960    0.0000 C.3     1  LIG1        0.0050
     14 O          -0.6000    2.4500    0.0000 O.2     1  LIG1       -0.2726
     15 O           1.3790    0.5670    0.0000 O.2     1  LIG1       -0.1703
     16 O           1.4420   -0.1960    0.0000 O.2     1  LIG1       -0.1703
     17 C           0.0790   -0.9960    0.0000 C.2     1  LIG1        0.2716
     18 N          -0.5000   -1.8130    0.0000 N.am    1  LIG1       -0.2516
     19 C          -1.4630   -1.5080    0.0000 C.ar    1  LIG1        0.0538
     20 C          -1.4630   -0.5080    0.0000 C.ar    1  LIG1        0.0373
     21 C          -2.3290   -0.0080    0.0000 C.ar    1  LIG1        0.0006
     22 C          -3.1880   -0.5080    0.0000 C.ar    1  LIG1       -0.0001
     23 C          -3.1880   -1.5080    0.0000 C.ar    1  LIG1        0.0013
     24 C          -2.3290   -2.0080    0.0000 C.ar    1  LIG1        0.0147
     25 C          -0.1750   -2.7500    0.0000 C.3     1  LIG1        0.1248
     26 C           0.8000   -2.9460    0.0000 C.ar    1  LIG1       -0.0020
     27 C           1.1080   -3.9000    0.0000 C.ar    1  LIG1       -0.0029
     28 C           2.0920   -4.0960    0.0000 C.ar    1  LIG1       -0.0045
     29 C           2.7500   -3.3380    0.0000 C.ar    1  LIG1       -0.0219
     30 C           2.4250   -2.3960    0.0000 C.ar    1  LIG1       -0.0045
     31 C           1.4500   -2.2040    0.0000 C.ar    1  LIG1       -0.0029
     32 C           3.7250   -3.5380    0.0000 C.3     1  LIG1        0.0310
     33 O           1.0790   -0.9920    0.0000 O.2     1  LIG1       -0.2706
@<TRIPOS>BOND
     1     1     2    1
     2     1     5    1
     3     1    17    1
     4     1    20    1
     5     2     3    1
     6     2    15    2
     7     2    16    2
     8     3     4    1
     9     4     5   am
    10     4    14    2
    11     5     6    1
    12     6     7   ar
    13     6    11   ar
    14     7     8   ar
    15     8     9   ar
    16     8    12    1
    17     9    10   ar
    18    10    11   ar
    19    12    13    1
    20    17    18   am
    21    17    33    2
    22    18    19    1
    23    18    25    1
    24    19    20   ar
    25    19    24   ar
    26    20    21   ar
    27    21    22   ar
    28    22    23   ar
    29    23    24   ar
    30    25    26    1
    31    26    27   ar
    32    26    31   ar
    33    27    28   ar
    34    28    29   ar
    35    29    30   ar
    36    29    32    1
    37    30    31   ar
