@<TRIPOS>MOLECULE
29776_ChemDiv_4578-1118
 33 37 0 0 0
SMALL
GASTEIGER
Energy = 0

@<TRIPOS>ATOM
      1 N           0.9710    1.3920    0.0000 N.am    1  LIG1       -0.2398
      2 C           0.6670    0.4250    0.0000 C.2     1  LIG1        0.1215
      3 S          -0.3250    0.4250    0.0000 S.3     1  LIG1       -0.0604
      4 C          -0.6250    1.3920    0.0000 C.2     1  LIG1        0.0852
      5 C           0.1670    1.9790    0.0000 C.2     1  LIG1        0.2598
      6 O           0.1670    2.9670    0.0000 O.2     1  LIG1       -0.2690
      7 C          -1.5920    1.6920    0.0000 C.2     1  LIG1        0.0187
      8 C          -2.3250    1.0250    0.0000 C.ar    1  LIG1        0.0901
      9 C          -3.2000    1.5170    0.0000 C.ar    1  LIG1        0.2685
     10 N          -4.0630    1.0130    0.0000 N.ar    1  LIG1       -0.2577
     11 C          -4.0630    0.0000    0.0000 C.ar    1  LIG1        0.1514
     12 N          -3.2000   -0.4880    0.0000 N.ar    1  LIG1       -0.2116
     13 C          -2.3250    0.0170    0.0000 C.ar    1  LIG1        0.1538
     14 N          -1.4710   -0.4880    0.0000 N.pl3   1  LIG1       -0.2173
     15 C          -1.4710   -1.4750    0.0000 C.3     1  LIG1        0.1493
     16 C          -2.3420   -1.9790    0.0000 C.3     1  LIG1        0.2054
     17 O          -2.3420   -2.9630    0.0000 O.3     1  LIG1       -0.2184
     18 C          -4.9290   -0.4920    0.0000 C.ar    1  LIG1        0.0376
     19 C          -5.7790    0.0000    0.0000 C.ar    1  LIG1        0.0046
     20 C          -5.7830    1.0130    0.0000 C.ar    1  LIG1        0.0192
     21 C          -4.9290    1.5130    0.0000 C.ar    1  LIG1        0.0844
     22 O          -3.2170    2.5130    0.0000 O.2     1  LIG1       -0.2665
     23 S           1.2580   -0.3710    0.0000 S.2     1  LIG1       -0.0272
     24 C           1.9250    1.6920    0.0000 C.3     1  LIG1        0.1261
     25 C           2.6710    1.0250    0.0000 C.ar    1  LIG1        0.0013
     26 C           3.6250    1.3290    0.0000 C.ar    1  LIG1        0.0376
     27 C           4.3670    0.6670    0.0000 C.ar    1  LIG1        0.1762
     28 C           4.1670   -0.3080    0.0000 C.ar    1  LIG1        0.1764
     29 O           5.0380   -0.8250    0.0000 O.3     1  LIG1       -0.4346
     30 C           5.7790   -0.1420    0.0000 C.3     1  LIG1        0.4294
     31 O           5.3790    0.7830    0.0000 O.3     1  LIG1       -0.4346
     32 C           3.2000   -0.6290    0.0000 C.ar    1  LIG1        0.0399
     33 C           2.4670    0.0540    0.0000 C.ar    1  LIG1        0.0007
@<TRIPOS>BOND
     1     1     2    1
     2     1     5   am
     3     1    24    1
     4     2     3    1
     5     2    23    2
     6     3     4    1
     7     4     5    1
     8     4     7    2
     9     5     6    2
    10     7     8    1
    11     8     9   ar
    12     8    13   ar
    13     9    10   ar
    14     9    22    2
    15    10    11   ar
    16    10    21   ar
    17    11    12   ar
    18    11    18   ar
    19    12    13   ar
    20    13    14    1
    21    14    15    1
    22    15    16    1
    23    16    17    1
    24    18    19   ar
    25    19    20   ar
    26    20    21   ar
    27    24    25    1
    28    25    26   ar
    29    25    33   ar
    30    26    27   ar
    31    27    28   ar
    32    27    31    1
    33    28    29    1
    34    28    32   ar
    35    29    30    1
    36    30    31    1
    37    32    33   ar
