@<TRIPOS>MOLECULE
29778_ChemDiv_8012-8622
 27 29 0 0 0
SMALL
GASTEIGER
Energy = 0

@<TRIPOS>ATOM
      1 C          -0.5380    2.2210    0.0000 C.3     1  LIG1        0.0323
      2 C           0.3290    1.7540    0.0000 C.3     1  LIG1        0.0914
      3 C           0.3290    0.7540    0.0000 C.2     1  LIG1        0.2459
      4 N           1.1960    0.2500    0.0000 N.am    1  LIG1       -0.1792
      5 C           1.1960   -0.7500    0.0000 C.ar    1  LIG1        0.0736
      6 C           0.3210   -1.2540    0.0000 C.ar    1  LIG1        0.0197
      7 C           0.3210   -2.2540    0.0000 C.ar    1  LIG1        0.0382
      8 C           1.1960   -2.7500    0.0000 C.ar    1  LIG1        0.1388
      9 C           2.0540   -2.2540    0.0000 C.ar    1  LIG1        0.0382
     10 C           2.0540   -1.2420    0.0000 C.ar    1  LIG1        0.0197
     11 O           1.1790   -3.7580    0.0000 O.3     1  LIG1       -0.4714
     12 C           2.0540   -4.2540    0.0000 C.3     1  LIG1        0.2525
     13 O          -0.5460    0.2460    0.0000 O.2     1  LIG1       -0.2730
     14 C           0.3210    2.7330    0.0000 C.ar    1  LIG1       -0.0222
     15 C           1.1960    2.2460    0.0000 C.ar    1  LIG1       -0.0046
     16 C           2.0460    2.7540    0.0000 C.ar    1  LIG1       -0.0046
     17 C           2.0290    3.7540    0.0000 C.ar    1  LIG1       -0.0219
     18 C           1.1580    4.2290    0.0000 C.ar    1  LIG1       -0.0046
     19 C           0.3080    3.7290    0.0000 C.ar    1  LIG1       -0.0046
     20 C           2.9000    4.2540    0.0000 C.3     1  LIG1        0.0310
     21 C          -1.0290    1.3750    0.0000 C.3     1  LIG1        0.0318
     22 C          -2.0420    1.3750    0.0000 C.3     1  LIG1        0.0932
     23 O          -2.5500    2.2330    0.0000 O.3     1  LIG1       -0.3585
     24 C          -2.0420    3.1000    0.0000 C.3     1  LIG1        0.1423
     25 C          -1.0290    3.1000    0.0000 C.3     1  LIG1        0.0367
     26 C          -2.9040    0.8880    0.0000 C.3     1  LIG1        0.0296
     27 C          -2.0420    0.3790    0.0000 C.3     1  LIG1        0.0296
@<TRIPOS>BOND
     1     1     2    1
     2     1    14    1
     3     1    21    1
     4     1    25    1
     5     2     3    1
     6     3     4   am
     7     3    13    2
     8     4     5    1
     9     5     6   ar
    10     5    10   ar
    11     6     7   ar
    12     7     8   ar
    13     8     9   ar
    14     8    11    1
    15     9    10   ar
    16    11    12    1
    17    14    15   ar
    18    14    19   ar
    19    15    16   ar
    20    16    17   ar
    21    17    18   ar
    22    17    20    1
    23    18    19   ar
    24    21    22    1
    25    22    23    1
    26    22    26    1
    27    22    27    1
    28    23    24    1
    29    24    25    1
