@<TRIPOS>MOLECULE
29788_ChemDiv_3456-0214
 31 33 0 0 0
SMALL
GASTEIGER
Energy = 0

@<TRIPOS>ATOM
      1 C          -0.1880    3.0080    0.0000 C.3     1  LIG1        0.0252
      2 C          -1.0880    2.5000    0.0000 C.3     1  LIG1        0.0314
      3 C          -1.9630    3.0080    0.0000 C.3     1  LIG1        0.0932
      4 O          -1.9630    3.9960    0.0000 O.3     1  LIG1       -0.3585
      5 C          -1.0880    4.4960    0.0000 C.3     1  LIG1        0.1423
      6 C          -0.1880    4.0250    0.0000 C.3     1  LIG1        0.0362
      7 C          -2.2040    2.0790    0.0000 C.3     1  LIG1        0.0296
      8 C          -2.8250    3.5250    0.0000 C.3     1  LIG1        0.0296
      9 C          -0.1880    2.0000    0.0000 C.3     1  LIG1        0.0257
     10 C           0.4920    1.5960    0.0000 C.3     1  LIG1        0.0941
     11 N           0.5080    0.6000    0.0000 N.am    1  LIG1       -0.2754
     12 C          -0.3670    0.0960    0.0000 C.2     1  LIG1        0.2264
     13 O          -0.3830   -0.9290    0.0000 O.2     1  LIG1       -0.2748
     14 C          -1.2250    0.5880    0.0000 C.3     1  LIG1        0.0948
     15 C           1.3580    0.1000    0.0000 C.3     1  LIG1        0.1202
     16 C           1.3580   -0.9080    0.0000 C.ar    1  LIG1        0.0009
     17 C           0.4880   -1.4290    0.0000 C.ar    1  LIG1        0.0374
     18 C           0.5250   -2.4290    0.0000 C.ar    1  LIG1        0.1721
     19 C           1.3580   -2.9080    0.0000 C.ar    1  LIG1        0.1724
     20 C           2.2330   -2.4380    0.0000 C.ar    1  LIG1        0.0398
     21 C           2.2420   -1.4290    0.0000 C.ar    1  LIG1        0.0007
     22 O           1.3170   -3.9750    0.0000 O.3     1  LIG1       -0.4684
     23 C           2.1500   -4.4960    0.0000 C.3     1  LIG1        0.2526
     24 O          -0.3170   -2.9670    0.0000 O.3     1  LIG1       -0.4684
     25 C          -1.1960   -2.5210    0.0000 C.3     1  LIG1        0.2526
     26 C           0.8040    3.0080    0.0000 C.ar    1  LIG1       -0.0226
     27 C           1.3000    2.1170    0.0000 C.ar    1  LIG1       -0.0043
     28 C           2.3250    2.1170    0.0000 C.ar    1  LIG1       -0.0003
     29 C           2.8210    3.0080    0.0000 C.ar    1  LIG1       -0.0000
     30 C           2.3250    3.8960    0.0000 C.ar    1  LIG1       -0.0003
     31 C           1.3330    3.8960    0.0000 C.ar    1  LIG1       -0.0043
@<TRIPOS>BOND
     1     1     2    1
     2     1     6    1
     3     1     9    1
     4     1    26    1
     5     2     3    1
     6     3     4    1
     7     3     7    1
     8     3     8    1
     9     4     5    1
    10     5     6    1
    11     9    10    1
    12    10    11    1
    13    11    12   am
    14    11    15    1
    15    12    13    2
    16    12    14    1
    17    15    16    1
    18    16    17   ar
    19    16    21   ar
    20    17    18   ar
    21    18    19   ar
    22    18    24    1
    23    19    20   ar
    24    19    22    1
    25    20    21   ar
    26    22    23    1
    27    24    25    1
    28    26    27   ar
    29    26    31   ar
    30    27    28   ar
    31    28    29   ar
    32    29    30   ar
    33    30    31   ar
