@<TRIPOS>MOLECULE
29784_ChemDiv_8016-0580
 16 17 0 0 0
SMALL
GASTEIGER
Energy = 0

@<TRIPOS>ATOM
      1 C           0.4960    0.0710    0.0000 C.3     1  LIG1        0.1056
      2 C          -0.0080   -0.7960    0.0000 C.1     1  LIG1        0.0755
      3 N          -0.0080   -1.7960    0.0000 N.1     1  LIG1       -0.1956
      4 C          -0.5080    0.0710    0.0000 C.ar    1  LIG1        0.0245
      5 C          -1.0080    0.9330    0.0000 C.ar    1  LIG1        0.1356
      6 O          -0.5080    1.8000    0.0000 O.3     1  LIG1       -0.4717
      7 C           0.4960    1.8000    0.0000 C.3     1  LIG1        0.2525
      8 C          -2.0080    0.9330    0.0000 C.ar    1  LIG1        0.0366
      9 C          -2.5080    0.0710    0.0000 C.ar    1  LIG1        0.0031
     10 C          -2.0080   -0.7960    0.0000 C.ar    1  LIG1       -0.0001
     11 C          -1.0080   -0.7960    0.0000 C.ar    1  LIG1       -0.0003
     12 C           0.9960    0.9330    0.0000 C.3     1  LIG1        0.0505
     13 C           1.9960    0.9330    0.0000 C.3     1  LIG1        0.1435
     14 O           2.5040    0.0710    0.0000 O.3     1  LIG1       -0.3537
     15 C           1.9960   -0.7960    0.0000 C.3     1  LIG1        0.1435
     16 C           0.9960   -0.7960    0.0000 C.3     1  LIG1        0.0505
@<TRIPOS>BOND
     1     1     2    1
     2     1     4    1
     3     1    12    1
     4     1    16    1
     5     2     3    3
     6     4     5   ar
     7     4    11   ar
     8     5     6    1
     9     5     8   ar
    10     6     7    1
    11     8     9   ar
    12     9    10   ar
    13    10    11   ar
    14    12    13    1
    15    13    14    1
    16    14    15    1
    17    15    16    1
