@<TRIPOS>MOLECULE
29787_ChemDiv_8008-9195
 19 20 0 0 0
SMALL
GASTEIGER
Energy = 0

@<TRIPOS>ATOM
      1 N          -1.1460   -0.1750    0.0000 N.4     1  LIG1        0.3776
      2 C          -0.3170    0.1830    0.0000 C.3     1  LIG1        0.1419
      3 C           0.7330   -0.1750    0.0000 C.3     1  LIG1        0.0891
      4 C           1.4080    0.6540    0.0000 C.3     1  LIG1        0.1565
      5 C           0.5880    0.2750    0.0000 C.3     1  LIG1        0.0975
      6 C          -0.4580    0.6540    0.0000 C.3     1  LIG1        0.1422
      7 C           2.2420    0.0710    0.0000 C.ar    1  LIG1        0.0054
      8 C           3.1790    0.4790    0.0000 C.ar    1  LIG1       -0.0019
      9 C           4.0330   -0.1040    0.0000 C.ar    1  LIG1       -0.0002
     10 C           3.9330   -1.1290    0.0000 C.ar    1  LIG1       -0.0000
     11 C           2.9790   -1.5830    0.0000 C.ar    1  LIG1       -0.0002
     12 C           2.1420   -0.9580    0.0000 C.ar    1  LIG1       -0.0019
     13 O           1.4000    1.5880    0.0000 O.3     1  LIG1       -0.2208
     14 C           1.5880   -0.1710    0.0000 C.3     1  LIG1        0.0091
     15 C          -2.0040   -0.1710    0.0000 C.3     1  LIG1        0.1016
     16 C          -3.0210   -0.1710    0.0000 C.1     1  LIG1       -0.0295
     17 C          -4.0370   -0.1710    0.0000 C.1     1  LIG1       -0.0088
     18 C          -2.5380    0.5580    0.0000 C.3     1  LIG1        0.0713
     19 C          -2.5170   -1.0210    0.0000 C.3     1  LIG1        0.0713
@<TRIPOS>BOND
     1     1     2    1
     2     1     6    1
     3     1    15    1
     4     2     3    1
     5     3     4    1
     6     3    14    1
     7     4     5    1
     8     4     7    1
     9     4    13    1
    10     5     6    1
    11     7     8   ar
    12     7    12   ar
    13     8     9   ar
    14     9    10   ar
    15    10    11   ar
    16    11    12   ar
    17    15    16    1
    18    15    18    1
    19    15    19    1
    20    16    17    3
