@<TRIPOS>MOLECULE
29780_ChemDiv_8015-4926
 16 17 0 0 0
SMALL
GASTEIGER
Energy = 0

@<TRIPOS>ATOM
      1 N           3.0080   -1.3290    0.0000 N.1     1  LIG1       -0.1956
      2 C           2.0080   -1.3540    0.0000 C.1     1  LIG1        0.0754
      3 C           1.4920   -0.5130    0.0000 C.3     1  LIG1        0.1028
      4 C           0.4960   -0.5290    0.0000 C.ar    1  LIG1       -0.0093
      5 C           0.0170   -1.4040    0.0000 C.ar    1  LIG1       -0.0002
      6 C          -0.9880   -1.4290    0.0000 C.ar    1  LIG1        0.0366
      7 C          -1.5000   -0.5750    0.0000 C.ar    1  LIG1        0.1387
      8 C          -1.0210    0.3000    0.0000 C.ar    1  LIG1        0.0366
      9 C          -0.0250    0.3210    0.0000 C.ar    1  LIG1       -0.0002
     10 O          -2.5000   -0.5920    0.0000 O.3     1  LIG1       -0.4714
     11 C          -3.0130    0.2580    0.0000 C.3     1  LIG1        0.2525
     12 C           0.7830    0.2000    0.0000 C.3     1  LIG1        0.0504
     13 C           1.0540    1.1710    0.0000 C.3     1  LIG1        0.1435
     14 O           2.0210    1.4330    0.0000 O.3     1  LIG1       -0.3537
     15 C           2.7290    0.7080    0.0000 C.3     1  LIG1        0.1435
     16 C           2.4580   -0.2630    0.0000 C.3     1  LIG1        0.0504
@<TRIPOS>BOND
     1     1     2    3
     2     2     3    1
     3     3     4    1
     4     3    12    1
     5     3    16    1
     6     4     5   ar
     7     4     9   ar
     8     5     6   ar
     9     6     7   ar
    10     7     8   ar
    11     7    10    1
    12     8     9   ar
    13    10    11    1
    14    12    13    1
    15    13    14    1
    16    14    15    1
    17    15    16    1
