@<TRIPOS>MOLECULE
29782_ChemDiv_8015-4935
 19 20 0 0 0
SMALL
GASTEIGER
Energy = 0

@<TRIPOS>ATOM
      1 C           1.4960    0.7330    0.0000 C.3     1  LIG1        0.1131
      2 C           2.0670   -0.0960    0.0000 C.2     1  LIG1        0.3199
      3 O           3.0580   -0.0040    0.0000 O.2     1  LIG1       -0.2498
      4 O           1.6330   -0.9960    0.0000 O.3     1  LIG1       -0.4483
      5 C           2.2000   -1.8170    0.0000 C.3     1  LIG1        0.2086
      6 C           1.7790   -2.7210    0.0000 C.3     1  LIG1        0.0513
      7 C           0.4960    0.6500    0.0000 C.ar    1  LIG1       -0.0124
      8 C           0.0790   -0.2580    0.0000 C.ar    1  LIG1       -0.0007
      9 C          -0.9330   -0.3330    0.0000 C.ar    1  LIG1        0.0366
     10 C          -1.4960    0.4960    0.0000 C.ar    1  LIG1        0.1387
     11 C          -1.0710    1.3960    0.0000 C.ar    1  LIG1        0.0366
     12 C          -0.0710    1.4710    0.0000 C.ar    1  LIG1       -0.0007
     13 O          -2.4960    0.4210    0.0000 O.3     1  LIG1       -0.4714
     14 C          -3.0630    1.2460    0.0000 C.3     1  LIG1        0.2525
     15 C           0.6330    1.2250    0.0000 C.3     1  LIG1        0.0468
     16 C           0.6330    2.2210    0.0000 C.3     1  LIG1        0.1430
     17 O           1.4960    2.7250    0.0000 O.3     1  LIG1       -0.3537
     18 C           2.3580    2.2210    0.0000 C.3     1  LIG1        0.1430
     19 C           2.3580    1.2250    0.0000 C.3     1  LIG1        0.0468
@<TRIPOS>BOND
     1     1     2    1
     2     1     7    1
     3     1    15    1
     4     1    19    1
     5     2     3    2
     6     2     4    1
     7     4     5    1
     8     5     6    1
     9     7     8   ar
    10     7    12   ar
    11     8     9   ar
    12     9    10   ar
    13    10    11   ar
    14    10    13    1
    15    11    12   ar
    16    13    14    1
    17    15    16    1
    18    16    17    1
    19    17    18    1
    20    18    19    1
