@<TRIPOS>MOLECULE
29792_ChemDiv_3966-1258
 30 32 0 0 0
SMALL
GASTEIGER
Energy = 0

@<TRIPOS>ATOM
      1 C          -1.8000    0.0880    0.0000 C.3     1  LIG1        0.0282
      2 C          -1.2920    0.9290    0.0000 C.ar    1  LIG1        0.0114
      3 C          -1.7420    1.8130    0.0000 C.ar    1  LIG1        0.1347
      4 O          -2.7250    1.8130    0.0000 O.3     1  LIG1       -0.4717
      5 C          -3.1750    2.6960    0.0000 C.3     1  LIG1        0.2525
      6 C          -1.2540    2.6540    0.0000 C.ar    1  LIG1        0.0366
      7 C          -0.2420    2.6540    0.0000 C.ar    1  LIG1        0.0031
      8 C           0.2210    1.7580    0.0000 C.ar    1  LIG1       -0.0001
      9 C          -0.2830    0.9210    0.0000 C.ar    1  LIG1       -0.0013
     10 C          -2.2500   -0.7540    0.0000 C.3     1  LIG1        0.0315
     11 C          -3.2420   -0.7540    0.0000 C.3     1  LIG1        0.0932
     12 O          -3.7460    0.0880    0.0000 O.3     1  LIG1       -0.3585
     13 C          -3.2580    0.9130    0.0000 C.3     1  LIG1        0.1423
     14 C          -2.2920    0.9130    0.0000 C.3     1  LIG1        0.0363
     15 C          -4.2250   -1.1500    0.0000 C.3     1  LIG1        0.0296
     16 C          -3.2420   -1.6710    0.0000 C.3     1  LIG1        0.0296
     17 C          -0.8420    0.0880    0.0000 C.3     1  LIG1        0.0277
     18 C          -0.3670   -0.9250    0.0000 C.3     1  LIG1        0.1158
     19 N           0.6130   -0.9250    0.0000 N.am    1  LIG1       -0.2017
     20 C           1.0630   -0.0630    0.0000 C.2     1  LIG1        0.2648
     21 C           2.0880   -0.0630    0.0000 C.ar    1  LIG1        0.0561
     22 C           2.6460   -0.9250    0.0000 C.ar    1  LIG1        0.0184
     23 C           2.1580   -1.8080    0.0000 C.2     1  LIG1        0.0730
     24 O           2.6670   -2.6920    0.0000 O.co2   1  LIG1       -0.5446
     25 O           1.1710   -1.7960    0.0000 O.co2   1  LIG1       -0.5446
     26 C           3.6880   -0.9250    0.0000 C.ar    1  LIG1        0.0013
     27 C           4.2250   -0.0580    0.0000 C.ar    1  LIG1        0.0000
     28 C           3.6330    0.8250    0.0000 C.ar    1  LIG1        0.0001
     29 C           2.6330    0.8250    0.0000 C.ar    1  LIG1        0.0046
     30 O           0.6250    0.8670    0.0000 O.2     1  LIG1       -0.2684
@<TRIPOS>BOND
     1     1     2    1
     2     1    10    1
     3     1    14    1
     4     1    17    1
     5     2     3   ar
     6     2     9   ar
     7     3     4    1
     8     3     6   ar
     9     4     5    1
    10     6     7   ar
    11     7     8   ar
    12     8     9   ar
    13    10    11    1
    14    11    12    1
    15    11    15    1
    16    11    16    1
    17    12    13    1
    18    13    14    1
    19    17    18    1
    20    18    19    1
    21    19    20   am
    22    20    21    1
    23    20    30    2
    24    21    22   ar
    25    21    29   ar
    26    22    23    1
    27    22    26   ar
    28    23    24   ar
    29    23    25   ar
    30    26    27   ar
    31    27    28   ar
    32    28    29   ar
