@<TRIPOS>MOLECULE
29790_ChemDiv_3473-1364
 33 35 0 0 0
SMALL
GASTEIGER
Energy = 0

@<TRIPOS>ATOM
      1 C          -1.3500    1.7210    0.0000 C.3     1  LIG1        0.0252
      2 C          -2.3130    1.4540    0.0000 C.ar    1  LIG1       -0.0224
      3 C          -2.5130    0.4580    0.0000 C.ar    1  LIG1       -0.0020
      4 C          -3.4880    0.1880    0.0000 C.ar    1  LIG1        0.0293
      5 C          -4.2500    0.9040    0.0000 C.ar    1  LIG1        0.1401
      6 C          -3.9830    1.8790    0.0000 C.ar    1  LIG1        0.0293
      7 C          -3.0630    2.1290    0.0000 C.ar    1  LIG1       -0.0020
      8 F          -5.2170    0.6750    0.0000 F       1  LIG1       -0.2042
      9 C          -1.8630    2.5750    0.0000 C.3     1  LIG1        0.0314
     10 C          -1.3580    3.4750    0.0000 C.3     1  LIG1        0.0932
     11 O          -0.3580    3.4750    0.0000 O.3     1  LIG1       -0.3585
     12 C           0.1380    2.5960    0.0000 C.3     1  LIG1        0.1423
     13 C          -0.3290    1.7210    0.0000 C.3     1  LIG1        0.0362
     14 C          -2.3500    3.7080    0.0000 C.3     1  LIG1        0.0296
     15 C          -0.8670    4.3250    0.0000 C.3     1  LIG1        0.0296
     16 C          -0.8250    0.8210    0.0000 C.3     1  LIG1        0.0257
     17 C           0.1750    0.8210    0.0000 C.3     1  LIG1        0.0941
     18 N           0.6710   -0.0290    0.0000 N.am    1  LIG1       -0.2754
     19 C           0.1880   -0.8790    0.0000 C.2     1  LIG1        0.2259
     20 O          -0.8170   -0.9460    0.0000 O.2     1  LIG1       -0.2749
     21 C           0.6250   -1.7500    0.0000 C.3     1  LIG1        0.0853
     22 C           0.0710   -2.5540    0.0000 C.3     1  LIG1        0.0101
     23 C           1.6750   -0.0290    0.0000 C.3     1  LIG1        0.1202
     24 C           2.2080   -0.8790    0.0000 C.ar    1  LIG1        0.0009
     25 C           3.2080   -0.8790    0.0000 C.ar    1  LIG1        0.0374
     26 C           3.7170   -1.7460    0.0000 C.ar    1  LIG1        0.1721
     27 C           3.2170   -2.6130    0.0000 C.ar    1  LIG1        0.1724
     28 C           2.2130   -2.6130    0.0000 C.ar    1  LIG1        0.0398
     29 C           1.7130   -1.7500    0.0000 C.ar    1  LIG1        0.0007
     30 O           3.7170   -3.4830    0.0000 O.3     1  LIG1       -0.4684
     31 C           3.2330   -4.3250    0.0000 C.3     1  LIG1        0.2526
     32 O           4.7000   -1.7460    0.0000 O.3     1  LIG1       -0.4684
     33 C           5.2130   -2.5710    0.0000 C.3     1  LIG1        0.2526
@<TRIPOS>BOND
     1     1     2    1
     2     1     9    1
     3     1    13    1
     4     1    16    1
     5     2     3   ar
     6     2     7   ar
     7     3     4   ar
     8     4     5   ar
     9     5     6   ar
    10     5     8    1
    11     6     7   ar
    12     9    10    1
    13    10    11    1
    14    10    14    1
    15    10    15    1
    16    11    12    1
    17    12    13    1
    18    16    17    1
    19    17    18    1
    20    18    19   am
    21    18    23    1
    22    19    20    2
    23    19    21    1
    24    21    22    1
    25    23    24    1
    26    24    25   ar
    27    24    29   ar
    28    25    26   ar
    29    26    27   ar
    30    26    32    1
    31    27    28   ar
    32    27    30    1
    33    28    29   ar
    34    30    31    1
    35    32    33    1
