@<TRIPOS>MOLECULE
29795_ChemDiv_3448-4604
 28 31 0 0 0
SMALL
GASTEIGER
Energy = 0

@<TRIPOS>ATOM
      1 N           0.6170    0.6880    0.0000 N.am    1  LIG1       -0.2252
      2 C           1.4380    0.1130    0.0000 C.2     1  LIG1        0.2379
      3 C           1.1630   -0.8210    0.0000 C.3     1  LIG1        0.1480
      4 C           0.1500   -0.8210    0.0000 C.3     1  LIG1        0.1528
      5 C          -0.1750    0.0830    0.0000 C.2     1  LIG1        0.2381
      6 O          -1.1250    0.4040    0.0000 O.2     1  LIG1       -0.2742
      7 C          -0.1920   -1.7330    0.0000 C.3     1  LIG1        0.1788
      8 N           0.6170   -2.3380    0.0000 N.4     1  LIG1        0.4426
      9 C           1.4380   -1.7750    0.0000 C.3     1  LIG1        0.1387
     10 C           1.8790   -2.6710    0.0000 C.2     1  LIG1        0.1017
     11 O           2.9040   -2.7290    0.0000 O.co2   1  LIG1       -0.5437
     12 O           1.3460   -3.5080    0.0000 O.co2   1  LIG1       -0.5437
     13 C           2.5670   -1.4250    0.0000 C.3     1  LIG1        0.0693
     14 C          -1.0750   -2.1210    0.0000 C.ar    1  LIG1        0.0732
     15 C          -1.8830   -1.5170    0.0000 C.ar    1  LIG1        0.1972
     16 O          -1.7830   -0.5580    0.0000 O.3     1  LIG1       -0.2867
     17 C          -2.8130   -1.9420    0.0000 C.ar    1  LIG1        0.0419
     18 C          -2.9080   -2.9210    0.0000 C.ar    1  LIG1        0.0033
     19 C          -2.1040   -3.5170    0.0000 C.ar    1  LIG1        0.0001
     20 C          -1.2000   -3.1130    0.0000 C.ar    1  LIG1        0.0046
     21 O           2.3750    0.4500    0.0000 O.2     1  LIG1       -0.2742
     22 C           0.5330    1.6920    0.0000 C.3     1  LIG1        0.1274
     23 C          -0.3630    2.1080    0.0000 C.ar    1  LIG1       -0.0019
     24 C          -0.4460    3.1040    0.0000 C.ar    1  LIG1       -0.0026
     25 C          -1.3460    3.5210    0.0000 C.ar    1  LIG1       -0.0003
     26 C          -2.1710    2.9500    0.0000 C.ar    1  LIG1       -0.0000
     27 C          -2.0580    1.9630    0.0000 C.ar    1  LIG1       -0.0003
     28 C          -1.1670    1.5420    0.0000 C.ar    1  LIG1       -0.0026
@<TRIPOS>BOND
     1     1     2   am
     2     1     5   am
     3     1    22    1
     4     2     3    1
     5     2    21    2
     6     3     4    1
     7     3     9    1
     8     4     5    1
     9     4     7    1
    10     5     6    2
    11     7     8    1
    12     7    14    1
    13     8     9    1
    14     9    10    1
    15     9    13    1
    16    10    11   ar
    17    10    12   ar
    18    14    15   ar
    19    14    20   ar
    20    15    16    1
    21    15    17   ar
    22    17    18   ar
    23    18    19   ar
    24    19    20   ar
    25    22    23    1
    26    23    24   ar
    27    23    28   ar
    28    24    25   ar
    29    25    26   ar
    30    26    27   ar
    31    27    28   ar
