@<TRIPOS>MOLECULE
29807_ChemDiv_8013-0803
 30 33 0 0 0
SMALL
GASTEIGER
Energy = 0

@<TRIPOS>ATOM
      1 N          -0.4920    1.1130    0.0000 N.am    1  LIG1       -0.2048
      2 C           0.5080    1.0920    0.0000 C.2     1  LIG1        0.2415
      3 C           0.8130    0.1130    0.0000 C.3     1  LIG1        0.1484
      4 C          -0.0130   -0.4750    0.0000 C.3     1  LIG1        0.1531
      5 C          -0.8420    0.1330    0.0000 C.2     1  LIG1        0.2417
      6 O          -1.4540   -0.0420    0.0000 O.2     1  LIG1       -0.2739
      7 C           0.3130   -1.4580    0.0000 C.3     1  LIG1        0.1788
      8 N           1.3170   -1.4580    0.0000 N.4     1  LIG1        0.4426
      9 C           1.6210   -0.4750    0.0000 C.3     1  LIG1        0.1387
     10 C           2.5460   -0.0170    0.0000 C.2     1  LIG1        0.1017
     11 O           2.6250    1.0380    0.0000 O.co2   1  LIG1       -0.5437
     12 O           3.3330   -0.6500    0.0000 O.co2   1  LIG1       -0.5437
     13 C           2.2960   -1.1420    0.0000 C.3     1  LIG1        0.0693
     14 C          -0.6670   -1.7630    0.0000 C.ar    1  LIG1        0.0734
     15 C          -1.5630   -1.2630    0.0000 C.ar    1  LIG1        0.2004
     16 C          -2.4540   -1.7630    0.0000 C.ar    1  LIG1        0.0839
     17 C          -2.4540   -2.7880    0.0000 C.ar    1  LIG1        0.1989
     18 C          -1.5630   -3.3130    0.0000 C.ar    1  LIG1        0.0421
     19 C          -0.6670   -2.7880    0.0000 C.ar    1  LIG1        0.0079
     20 O          -3.3380   -3.2790    0.0000 O.3     1  LIG1       -0.2865
     21 O          -1.5710   -0.5540    0.0000 O.3     1  LIG1       -0.2866
     22 O           1.0960    1.9460    0.0000 O.2     1  LIG1       -0.2739
     23 C          -1.1250    1.9210    0.0000 C.ar    1  LIG1        0.0945
     24 C          -1.9290    1.2880    0.0000 C.ar    1  LIG1        0.1526
     25 O          -1.7790    0.2880    0.0000 O.3     1  LIG1       -0.4702
     26 C          -2.5630   -0.3460    0.0000 C.3     1  LIG1        0.2525
     27 C          -2.8920    1.6580    0.0000 C.ar    1  LIG1        0.0382
     28 C          -3.0210    2.6630    0.0000 C.ar    1  LIG1        0.0032
     29 C          -2.2170    3.3170    0.0000 C.ar    1  LIG1        0.0015
     30 C          -1.2580    2.9210    0.0000 C.ar    1  LIG1        0.0184
@<TRIPOS>BOND
     1     1     2   am
     2     1     5   am
     3     1    23    1
     4     2     3    1
     5     2    22    2
     6     3     4    1
     7     3     9    1
     8     4     5    1
     9     4     7    1
    10     5     6    2
    11     7     8    1
    12     7    14    1
    13     8     9    1
    14     9    10    1
    15     9    13    1
    16    10    11   ar
    17    10    12   ar
    18    14    15   ar
    19    14    19   ar
    20    15    16   ar
    21    15    21    1
    22    16    17   ar
    23    17    18   ar
    24    17    20    1
    25    18    19   ar
    26    23    24   ar
    27    23    30   ar
    28    24    25    1
    29    24    27   ar
    30    25    26    1
    31    27    28   ar
    32    28    29   ar
    33    29    30   ar
