@<TRIPOS>MOLECULE
29802_ChemDiv_3544-1280
 31 34 0 0 0
SMALL
GASTEIGER
Energy = 0

@<TRIPOS>ATOM
      1 C          -0.4170   -3.0210    0.0000 C.ar    1  LIG1        0.1734
      2 N           0.4670   -2.5000    0.0000 N.ar    1  LIG1       -0.1311
      3 N           0.4670   -1.5380    0.0000 N.ar    1  LIG1       -0.1467
      4 C          -0.4170   -1.0170    0.0000 C.ar    1  LIG1        0.1029
      5 C          -1.3130   -1.5080    0.0000 C.ar    1  LIG1        0.0222
      6 C          -1.3130   -2.5080    0.0000 C.ar    1  LIG1        0.0366
      7 C          -2.1330   -3.0210    0.0000 C.ar    1  LIG1        0.0029
      8 C          -3.0290   -2.5000    0.0000 C.ar    1  LIG1        0.0001
      9 C          -3.0290   -1.5380    0.0000 C.ar    1  LIG1        0.0001
     10 C          -2.1330   -1.0170    0.0000 C.ar    1  LIG1        0.0016
     11 C          -0.4170   -0.0250    0.0000 C.ar    1  LIG1        0.0194
     12 C           0.4670    0.5170    0.0000 C.ar    1  LIG1        0.0017
     13 C           0.4670    1.5330    0.0000 C.ar    1  LIG1        0.0046
     14 C          -0.4170    1.9880    0.0000 C.ar    1  LIG1        0.0550
     15 C          -0.4170    3.0330    0.0000 C.2     1  LIG1        0.2649
     16 O          -1.3130    3.5000    0.0000 O.2     1  LIG1       -0.2684
     17 N           0.4670    3.5000    0.0000 N.am    1  LIG1       -0.1989
     18 C           0.4670    4.5330    0.0000 C.3     1  LIG1        0.1509
     19 C           1.3540    5.0170    0.0000 C.3     1  LIG1        0.2054
     20 O           1.3540    6.0250    0.0000 O.3     1  LIG1       -0.2184
     21 C          -1.3130    1.4960    0.0000 C.ar    1  LIG1        0.0046
     22 C          -1.3130    0.5170    0.0000 C.ar    1  LIG1        0.0017
     23 N          -0.4170   -4.0000    0.0000 N.pl3   1  LIG1       -0.1930
     24 C           0.4290   -4.4920    0.0000 C.ar    1  LIG1        0.0682
     25 C           0.4500   -5.4830    0.0000 C.ar    1  LIG1       -0.0069
     26 C           1.2630   -5.9420    0.0000 C.ar    1  LIG1       -0.0072
     27 C           2.1460   -5.4250    0.0000 C.ar    1  LIG1       -0.0221
     28 C           2.1130   -4.4670    0.0000 C.ar    1  LIG1       -0.0029
     29 C           1.2420   -3.9790    0.0000 C.ar    1  LIG1        0.0159
     30 C           3.0250   -5.8460    0.0000 C.3     1  LIG1        0.0310
     31 C          -0.3630   -6.0250    0.0000 C.3     1  LIG1        0.0324
@<TRIPOS>BOND
     1     1     2   ar
     2     1     6   ar
     3     1    23    1
     4     2     3   ar
     5     3     4   ar
     6     4     5   ar
     7     4    11    1
     8     5     6   ar
     9     5    10   ar
    10     6     7   ar
    11     7     8   ar
    12     8     9   ar
    13     9    10   ar
    14    11    12   ar
    15    11    22   ar
    16    12    13   ar
    17    13    14   ar
    18    14    15    1
    19    14    21   ar
    20    15    16    2
    21    15    17   am
    22    17    18    1
    23    18    19    1
    24    19    20    1
    25    21    22   ar
    26    23    24    1
    27    24    25   ar
    28    24    29   ar
    29    25    26   ar
    30    25    31    1
    31    26    27   ar
    32    27    28   ar
    33    27    30    1
    34    28    29   ar
