@<TRIPOS>MOLECULE
29804_ChemDiv_4903-2224
 28 32 0 0 0
SMALL
GASTEIGER
Energy = 0

@<TRIPOS>ATOM
      1 N           2.1040    0.3130    0.0000 N.ar    1  LIG1       -0.1467
      2 N           2.1040   -0.6960    0.0000 N.ar    1  LIG1       -0.1311
      3 C           1.2500   -1.2040    0.0000 C.ar    1  LIG1        0.1734
      4 C           0.3790   -0.6960    0.0000 C.ar    1  LIG1        0.0366
      5 C           0.3790    0.3130    0.0000 C.ar    1  LIG1        0.0222
      6 C           1.2500    0.8040    0.0000 C.ar    1  LIG1        0.1029
      7 C           1.2500    1.8210    0.0000 C.ar    1  LIG1        0.0196
      8 C           2.1040    2.3080    0.0000 C.ar    1  LIG1        0.0047
      9 C           2.1040    3.3130    0.0000 C.ar    1  LIG1        0.0369
     10 C           1.2500    3.8290    0.0000 C.ar    1  LIG1        0.1387
     11 C           0.3790    3.3130    0.0000 C.ar    1  LIG1        0.0369
     12 C           0.3790    2.3080    0.0000 C.ar    1  LIG1        0.0047
     13 O           1.2500    4.8080    0.0000 O.3     1  LIG1       -0.4714
     14 C           2.1040    5.2750    0.0000 C.3     1  LIG1        0.2525
     15 C          -0.4920    0.8040    0.0000 C.ar    1  LIG1        0.0016
     16 C          -1.3580    0.3130    0.0000 C.ar    1  LIG1        0.0001
     17 C          -1.3580   -0.6960    0.0000 C.ar    1  LIG1        0.0001
     18 C          -0.4920   -1.2040    0.0000 C.ar    1  LIG1        0.0029
     19 N           1.2500   -2.2040    0.0000 N.pl3   1  LIG1       -0.1926
     20 C           0.3790   -2.7130    0.0000 C.ar    1  LIG1        0.0754
     21 C           0.3790   -3.7130    0.0000 C.ar    1  LIG1        0.0567
     22 C          -0.4920   -4.2210    0.0000 C.ar    1  LIG1        0.1777
     23 C          -1.3580   -3.7130    0.0000 C.ar    1  LIG1        0.1765
     24 O          -2.1080   -4.4000    0.0000 O.3     1  LIG1       -0.4346
     25 C          -1.7000   -5.2750    0.0000 C.3     1  LIG1        0.4294
     26 O          -0.7080   -5.1960    0.0000 O.3     1  LIG1       -0.4346
     27 C          -1.3580   -2.7130    0.0000 C.ar    1  LIG1        0.0415
     28 C          -0.4920   -2.2040    0.0000 C.ar    1  LIG1        0.0199
@<TRIPOS>BOND
     1     1     2   ar
     2     1     6   ar
     3     2     3   ar
     4     3     4   ar
     5     3    19    1
     6     4     5   ar
     7     4    18   ar
     8     5     6   ar
     9     5    15   ar
    10     6     7    1
    11     7     8   ar
    12     7    12   ar
    13     8     9   ar
    14     9    10   ar
    15    10    11   ar
    16    10    13    1
    17    11    12   ar
    18    13    14    1
    19    15    16   ar
    20    16    17   ar
    21    17    18   ar
    22    19    20    1
    23    20    21   ar
    24    20    28   ar
    25    21    22   ar
    26    22    23   ar
    27    22    26    1
    28    23    24    1
    29    23    27   ar
    30    24    25    1
    31    25    26    1
    32    27    28   ar
