@<TRIPOS>MOLECULE
29801_ChemDiv_8012-9497
 29 32 0 0 0
SMALL
GASTEIGER
Energy = 0

@<TRIPOS>ATOM
      1 N           0.7080    1.3250    0.0000 N.am    1  LIG1       -0.2252
      2 C           1.0170    0.3670    0.0000 C.2     1  LIG1        0.2379
      3 C           0.2250   -0.1920    0.0000 C.3     1  LIG1        0.1480
      4 C          -0.5750    0.4000    0.0000 C.3     1  LIG1        0.1528
      5 C          -0.2420    1.3250    0.0000 C.2     1  LIG1        0.2381
      6 O          -0.7960    2.1630    0.0000 O.2     1  LIG1       -0.2742
      7 C          -1.4130   -0.1580    0.0000 C.3     1  LIG1        0.1788
      8 N          -1.1380   -1.1080    0.0000 N.4     1  LIG1        0.4426
      9 C          -0.1250   -1.1420    0.0000 C.3     1  LIG1        0.1387
     10 C          -0.4500   -2.0830    0.0000 C.2     1  LIG1        0.1017
     11 O           0.2170   -2.8750    0.0000 O.co2   1  LIG1       -0.5437
     12 O          -1.4420   -2.2750    0.0000 O.co2   1  LIG1       -0.5437
     13 C           0.8670   -1.1880    0.0000 C.3     1  LIG1        0.0693
     14 C          -2.3830    0.1040    0.0000 C.ar    1  LIG1        0.0737
     15 C          -3.1170   -0.5830    0.0000 C.ar    1  LIG1        0.1973
     16 C          -4.0790   -0.3000    0.0000 C.ar    1  LIG1        0.0424
     17 C          -4.3040    0.6540    0.0000 C.ar    1  LIG1        0.0100
     18 C          -3.5750    1.3630    0.0000 C.ar    1  LIG1        0.0347
     19 C          -2.6170    1.0630    0.0000 C.ar    1  LIG1        0.0113
     20 BR         -3.8130    2.3420    0.0000 Br      1  LIG1       -0.0490
     21 O          -2.8960   -1.5790    0.0000 O.3     1  LIG1       -0.2867
     22 O           1.9960    0.0420    0.0000 O.2     1  LIG1       -0.2742
     23 C           1.3130    2.1380    0.0000 C.3     1  LIG1        0.1274
     24 C           2.2920    2.0670    0.0000 C.ar    1  LIG1       -0.0019
     25 C           2.8750    2.8790    0.0000 C.ar    1  LIG1       -0.0026
     26 C           3.8670    2.7960    0.0000 C.ar    1  LIG1       -0.0003
     27 C           4.3000    1.8920    0.0000 C.ar    1  LIG1       -0.0000
     28 C           3.7130    1.0830    0.0000 C.ar    1  LIG1       -0.0003
     29 C           2.7170    1.1830    0.0000 C.ar    1  LIG1       -0.0026
@<TRIPOS>BOND
     1     1     2   am
     2     1     5   am
     3     1    23    1
     4     2     3    1
     5     2    22    2
     6     3     4    1
     7     3     9    1
     8     4     5    1
     9     4     7    1
    10     5     6    2
    11     7     8    1
    12     7    14    1
    13     8     9    1
    14     9    10    1
    15     9    13    1
    16    10    11   ar
    17    10    12   ar
    18    14    15   ar
    19    14    19   ar
    20    15    16   ar
    21    15    21    1
    22    16    17   ar
    23    17    18   ar
    24    18    19   ar
    25    18    20    1
    26    23    24    1
    27    24    25   ar
    28    24    29   ar
    29    25    26   ar
    30    26    27   ar
    31    27    28   ar
    32    28    29   ar
