@<TRIPOS>MOLECULE
29808_ChemDiv_5233-2449
 29 32 0 0 0
SMALL
GASTEIGER
Energy = 0

@<TRIPOS>ATOM
      1 N          -0.0080    0.7500    0.0000 N.ar    1  LIG1       -0.1467
      2 N          -0.0080   -0.2540    0.0000 N.ar    1  LIG1       -0.1311
      3 C          -0.8710   -0.7540    0.0000 C.ar    1  LIG1        0.1734
      4 C          -1.7380   -0.2540    0.0000 C.ar    1  LIG1        0.0366
      5 C          -1.7380    0.7500    0.0000 C.ar    1  LIG1        0.0222
      6 C          -0.8710    1.2460    0.0000 C.ar    1  LIG1        0.1029
      7 C          -0.8710    2.2500    0.0000 C.ar    1  LIG1        0.0196
      8 C          -1.7380    2.7500    0.0000 C.ar    1  LIG1        0.0048
      9 C          -1.7380    3.7580    0.0000 C.ar    1  LIG1        0.0421
     10 C          -0.8710    4.2460    0.0000 C.ar    1  LIG1        0.1957
     11 C          -0.0080    3.7580    0.0000 C.ar    1  LIG1        0.0421
     12 C          -0.0080    2.7500    0.0000 C.ar    1  LIG1        0.0048
     13 O          -0.8750    5.2420    0.0000 O.3     1  LIG1       -0.2866
     14 C          -2.6000    1.2460    0.0000 C.ar    1  LIG1        0.0016
     15 C          -3.4750    0.7330    0.0000 C.ar    1  LIG1        0.0001
     16 C          -3.4750   -0.2540    0.0000 C.ar    1  LIG1        0.0001
     17 C          -2.6000   -0.7540    0.0000 C.ar    1  LIG1        0.0029
     18 N          -0.8710   -1.7540    0.0000 N.pl3   1  LIG1       -0.1927
     19 C          -0.0080   -2.2420    0.0000 C.ar    1  LIG1        0.0722
     20 C          -0.0080   -3.2500    0.0000 C.ar    1  LIG1        0.0167
     21 C           0.8670   -3.7330    0.0000 C.ar    1  LIG1        0.0058
     22 C           1.7290   -3.2420    0.0000 C.ar    1  LIG1        0.0537
     23 C           2.6000   -3.7330    0.0000 C.2     1  LIG1        0.2491
     24 N           2.6000   -4.7250    0.0000 N.am    1  LIG1       -0.2726
     25 C           1.7330   -5.2420    0.0000 C.3     1  LIG1        0.1152
     26 C           3.4710   -5.2250    0.0000 C.3     1  LIG1        0.1152
     27 O           3.4630   -3.2250    0.0000 O.2     1  LIG1       -0.2699
     28 C           1.7170   -2.2330    0.0000 C.ar    1  LIG1        0.0058
     29 C           0.8580   -1.7500    0.0000 C.ar    1  LIG1        0.0167
@<TRIPOS>BOND
     1     1     2   ar
     2     1     6   ar
     3     2     3   ar
     4     3     4   ar
     5     3    18    1
     6     4     5   ar
     7     4    17   ar
     8     5     6   ar
     9     5    14   ar
    10     6     7    1
    11     7     8   ar
    12     7    12   ar
    13     8     9   ar
    14     9    10   ar
    15    10    11   ar
    16    10    13    1
    17    11    12   ar
    18    14    15   ar
    19    15    16   ar
    20    16    17   ar
    21    18    19    1
    22    19    20   ar
    23    19    29   ar
    24    20    21   ar
    25    21    22   ar
    26    22    23    1
    27    22    28   ar
    28    23    24   am
    29    23    27    2
    30    24    25    1
    31    24    26    1
    32    28    29   ar
