@<TRIPOS>MOLECULE
29806_ChemDiv_5233-2447
 27 30 0 0 0
SMALL
GASTEIGER
Energy = 0

@<TRIPOS>ATOM
      1 N          -0.0040    0.4920    0.0000 N.ar    1  LIG1       -0.1467
      2 N          -0.0040   -0.5130    0.0000 N.ar    1  LIG1       -0.1311
      3 C          -0.8670   -1.0130    0.0000 C.ar    1  LIG1        0.1734
      4 C          -1.7330   -0.5130    0.0000 C.ar    1  LIG1        0.0366
      5 C          -1.7330    0.4920    0.0000 C.ar    1  LIG1        0.0222
      6 C          -0.8670    0.9880    0.0000 C.ar    1  LIG1        0.1029
      7 C          -0.8670    1.9920    0.0000 C.ar    1  LIG1        0.0196
      8 C          -0.0040    2.4920    0.0000 C.ar    1  LIG1        0.0048
      9 C          -0.0040    3.5040    0.0000 C.ar    1  LIG1        0.0421
     10 C          -0.8670    3.9920    0.0000 C.ar    1  LIG1        0.1957
     11 C          -1.7330    3.5040    0.0000 C.ar    1  LIG1        0.0421
     12 C          -1.7330    2.4920    0.0000 C.ar    1  LIG1        0.0048
     13 O          -0.8710    4.9830    0.0000 O.3     1  LIG1       -0.2866
     14 C          -2.5960    0.9880    0.0000 C.ar    1  LIG1        0.0016
     15 C          -3.4750    0.4750    0.0000 C.ar    1  LIG1        0.0001
     16 C          -3.4750   -0.5130    0.0000 C.ar    1  LIG1        0.0001
     17 C          -2.5960   -1.0130    0.0000 C.ar    1  LIG1        0.0029
     18 N          -0.8670   -2.0130    0.0000 N.pl3   1  LIG1       -0.1927
     19 C          -0.0040   -2.5000    0.0000 C.ar    1  LIG1        0.0722
     20 C          -0.0040   -3.5080    0.0000 C.ar    1  LIG1        0.0167
     21 C           0.8710   -3.9960    0.0000 C.ar    1  LIG1        0.0060
     22 C           1.7380   -3.5000    0.0000 C.ar    1  LIG1        0.0567
     23 C           2.6040   -3.9960    0.0000 C.2     1  LIG1        0.2842
     24 O           3.4710   -3.4830    0.0000 O.2     1  LIG1       -0.2667
     25 N           2.6040   -4.9830    0.0000 N.am    1  LIG1       -0.0837
     26 C           1.7210   -2.4960    0.0000 C.ar    1  LIG1        0.0060
     27 C           0.8630   -2.0080    0.0000 C.ar    1  LIG1        0.0167
@<TRIPOS>BOND
     1     1     2   ar
     2     1     6   ar
     3     2     3   ar
     4     3     4   ar
     5     3    18    1
     6     4     5   ar
     7     4    17   ar
     8     5     6   ar
     9     5    14   ar
    10     6     7    1
    11     7     8   ar
    12     7    12   ar
    13     8     9   ar
    14     9    10   ar
    15    10    11   ar
    16    10    13    1
    17    11    12   ar
    18    14    15   ar
    19    15    16   ar
    20    16    17   ar
    21    18    19    1
    22    19    20   ar
    23    19    27   ar
    24    20    21   ar
    25    21    22   ar
    26    22    23    1
    27    22    26   ar
    28    23    24    2
    29    23    25   am
    30    26    27   ar
