@<TRIPOS>MOLECULE
29819_ChemDiv_7706-0633
 24 27 0 0 0
SMALL
GASTEIGER
Energy = 0

@<TRIPOS>ATOM
      1 C          -0.0630   -0.4960    0.0000 C.ar    1  LIG1        0.1945
      2 C          -0.6540    0.3130    0.0000 C.ar    1  LIG1        0.0226
      3 C          -1.6040    0.0000    0.0000 C.ar    1  LIG1        0.0641
      4 C          -1.6040   -0.9920    0.0000 C.ar    1  LIG1        0.1254
      5 O          -0.6540   -1.2960    0.0000 O.2     1  LIG1       -0.4534
      6 C          -2.4670   -1.4830    0.0000 C.3     1  LIG1        0.0650
      7 C          -3.3250   -0.9960    0.0000 C.3     1  LIG1        0.0144
      8 C          -3.3250    0.0000    0.0000 C.3     1  LIG1        0.0696
      9 C          -2.4670    0.5130    0.0000 C.2     1  LIG1        0.1755
     10 O          -2.4670    1.5250    0.0000 O.2     1  LIG1       -0.2913
     11 C          -3.5880   -1.9580    0.0000 C.3     1  LIG1        0.0009
     12 C          -4.3290   -0.9960    0.0000 C.3     1  LIG1        0.0009
     13 C          -0.1540    1.1790    0.0000 C.3     1  LIG1        0.0346
     14 C           0.9330   -0.4960    0.0000 C.2     1  LIG1        0.2871
     15 N           1.4380    0.3630    0.0000 N.am    1  LIG1       -0.2526
     16 C           2.4250    0.4790    0.0000 C.ar    1  LIG1        0.0503
     17 C           2.6380    1.4500    0.0000 C.ar    1  LIG1       -0.0067
     18 C           1.7750    1.9630    0.0000 C.3     1  LIG1        0.0495
     19 C           1.0330    1.2920    0.0000 C.3     1  LIG1        0.1033
     20 C           3.5880    1.7630    0.0000 C.ar    1  LIG1       -0.0030
     21 C           4.3250    1.1000    0.0000 C.ar    1  LIG1       -0.0002
     22 C           4.1210    0.1080    0.0000 C.ar    1  LIG1        0.0013
     23 C           3.1630   -0.1920    0.0000 C.ar    1  LIG1        0.0146
     24 O           1.4330   -1.3710    0.0000 O.2     1  LIG1       -0.2662
@<TRIPOS>BOND
     1     1     2   ar
     2     1     5   ar
     3     1    14    1
     4     2     3   ar
     5     2    13    1
     6     3     4   ar
     7     3     9    1
     8     4     5   ar
     9     4     6    1
    10     6     7    1
    11     7     8    1
    12     7    11    1
    13     7    12    1
    14     8     9    1
    15     9    10    2
    16    14    15   am
    17    14    24    2
    18    15    16    1
    19    15    19    1
    20    16    17   ar
    21    16    23   ar
    22    17    18    1
    23    17    20   ar
    24    18    19    1
    25    20    21   ar
    26    21    22   ar
    27    22    23   ar
