@<TRIPOS>MOLECULE
29813_ChemDiv_3448-9206
 23 26 0 0 0
SMALL
GASTEIGER
Energy = 0

@<TRIPOS>ATOM
      1 C          -1.0750   -0.3330    0.0000 C.ar    1  LIG1        0.0843
      2 C          -0.0880   -0.3330    0.0000 C.2     1  LIG1        0.2714
      3 N           0.4130   -1.2210    0.0000 N.am    1  LIG1       -0.1754
      4 C           1.4040   -1.2420    0.0000 C.ar    1  LIG1        0.0736
      5 C           1.8960   -0.3710    0.0000 C.ar    1  LIG1        0.0154
      6 C           2.8880   -0.3710    0.0000 C.ar    1  LIG1        0.0013
      7 C           3.3880   -1.2500    0.0000 C.ar    1  LIG1        0.0001
      8 C           2.8880   -2.1210    0.0000 C.ar    1  LIG1        0.0013
      9 C           1.8790   -2.1000    0.0000 C.ar    1  LIG1        0.0166
     10 C           3.3880    0.4960    0.0000 C.ar    1  LIG1        0.0000
     11 C           2.8880    1.3500    0.0000 C.ar    1  LIG1        0.0000
     12 C           1.8960    1.3500    0.0000 C.ar    1  LIG1        0.0000
     13 C           1.4000    0.4960    0.0000 C.ar    1  LIG1        0.0013
     14 O           0.3630    0.5460    0.0000 O.2     1  LIG1       -0.2679
     15 C          -1.6420   -1.1290    0.0000 C.ar    1  LIG1        0.1269
     16 O          -2.6130   -0.8460    0.0000 O.2     1  LIG1       -0.4622
     17 C          -2.6540    0.1460    0.0000 C.ar    1  LIG1        0.1185
     18 C          -1.6750    0.4750    0.0000 C.ar    1  LIG1        0.0152
     19 C          -1.4790    1.4500    0.0000 C.3     1  LIG1        0.0294
     20 C          -2.2420    2.1250    0.0000 C.3     1  LIG1        0.0052
     21 C          -3.2210    1.7920    0.0000 C.3     1  LIG1        0.0083
     22 C          -3.3920    0.8000    0.0000 C.3     1  LIG1        0.0642
     23 C          -1.2880   -2.0500    0.0000 C.3     1  LIG1        0.0726
@<TRIPOS>BOND
     1     1     2    1
     2     1    15   ar
     3     1    18   ar
     4     2     3   am
     5     2    14    2
     6     3     4    1
     7     4     5   ar
     8     4     9   ar
     9     5     6   ar
    10     5    13   ar
    11     6     7   ar
    12     6    10   ar
    13     7     8   ar
    14     8     9   ar
    15    10    11   ar
    16    11    12   ar
    17    12    13   ar
    18    15    16   ar
    19    15    23    1
    20    16    17   ar
    21    17    18   ar
    22    17    22    1
    23    18    19    1
    24    19    20    1
    25    20    21    1
    26    21    22    1
