@<TRIPOS>MOLECULE
29812_ChemDiv_5140-0352
 18 19 0 0 0
SMALL
GASTEIGER
Energy = 0

@<TRIPOS>ATOM
      1 C           0.2080    0.0080    0.0000 C.3     1  LIG1        0.0299
      2 C          -0.2830   -0.8420    0.0000 C.3     1  LIG1        0.0316
      3 C          -1.2710   -0.8420    0.0000 C.3     1  LIG1        0.0931
      4 O          -1.7630    0.0080    0.0000 O.3     1  LIG1       -0.3585
      5 C          -1.2710    0.8460    0.0000 C.3     1  LIG1        0.1423
      6 C          -0.2830    0.8460    0.0000 C.3     1  LIG1        0.0364
      7 C          -0.7790   -1.7580    0.0000 C.3     1  LIG1        0.0272
      8 C          -1.2710   -2.6040    0.0000 C.3     1  LIG1        0.0025
      9 C          -2.2580   -0.8420    0.0000 C.3     1  LIG1        0.0296
     10 C           0.7040    0.8460    0.0000 C.ar    1  LIG1       -0.0224
     11 C           0.2080    1.7630    0.0000 C.ar    1  LIG1       -0.0043
     12 C           0.7040    2.6080    0.0000 C.ar    1  LIG1       -0.0003
     13 C           1.6880    2.6080    0.0000 C.ar    1  LIG1       -0.0000
     14 C           2.2540    1.7630    0.0000 C.ar    1  LIG1       -0.0003
     15 C           1.6880    0.8460    0.0000 C.ar    1  LIG1       -0.0043
     16 C           0.7040   -0.8420    0.0000 C.3     1  LIG1        0.0848
     17 C           1.6880   -0.8420    0.0000 C.3     1  LIG1        0.3156
     18 N           2.2540   -1.7580    0.0000 N.4     1  LIG1        0.5972
@<TRIPOS>BOND
     1     1     2    1
     2     1     6    1
     3     1    10    1
     4     1    16    1
     5     2     3    1
     6     3     4    1
     7     3     7    1
     8     3     9    1
     9     4     5    1
    10     5     6    1
    11     7     8    1
    12    10    11   ar
    13    10    15   ar
    14    11    12   ar
    15    12    13   ar
    16    13    14   ar
    17    14    15   ar
    18    16    17    1
    19    17    18    1
