@<TRIPOS>MOLECULE
29810_ChemDiv_5140-0341
 30 32 0 0 0
SMALL
GASTEIGER
Energy = 0

@<TRIPOS>ATOM
      1 N           0.7380   -1.7210    0.0000 N.am    1  LIG1       -0.2754
      2 C           0.2460   -2.5670    0.0000 C.2     1  LIG1        0.2264
      3 O          -0.7420   -2.5670    0.0000 O.2     1  LIG1       -0.2748
      4 C           0.7380   -3.4830    0.0000 C.3     1  LIG1        0.0948
      5 C           1.7920   -1.7210    0.0000 C.3     1  LIG1        0.1201
      6 C           2.2880   -0.8710    0.0000 C.ar    1  LIG1       -0.0021
      7 C           3.2710   -0.8710    0.0000 C.ar    1  LIG1        0.0005
      8 C           3.7670   -0.0330    0.0000 C.ar    1  LIG1        0.0366
      9 C           3.2710    0.8830    0.0000 C.ar    1  LIG1        0.1387
     10 C           2.2880    0.8830    0.0000 C.ar    1  LIG1        0.0366
     11 C           1.7920   -0.0330    0.0000 C.ar    1  LIG1        0.0005
     12 O           3.7670    1.7250    0.0000 O.3     1  LIG1       -0.4714
     13 C           3.2710    2.5710    0.0000 C.3     1  LIG1        0.2525
     14 C           0.2460   -0.8710    0.0000 C.3     1  LIG1        0.0937
     15 C          -0.7420   -0.8710    0.0000 C.3     1  LIG1        0.0220
     16 C          -1.2330   -0.0330    0.0000 C.3     1  LIG1        0.0104
     17 C          -1.7250   -0.8710    0.0000 C.3     1  LIG1        0.0277
     18 C          -2.7130   -0.8710    0.0000 C.3     1  LIG1        0.0929
     19 O          -3.2040   -0.0330    0.0000 O.3     1  LIG1       -0.3585
     20 C          -2.7130    0.8830    0.0000 C.3     1  LIG1        0.1420
     21 C          -1.7250    0.8830    0.0000 C.3     1  LIG1        0.0325
     22 C          -2.2250   -1.7210    0.0000 C.3     1  LIG1        0.0296
     23 C          -3.7710   -0.8710    0.0000 C.3     1  LIG1        0.0296
     24 C          -0.7420    0.8830    0.0000 C.3     1  LIG1        0.0265
     25 C          -1.2330    1.7250    0.0000 C.ar    1  LIG1       -0.0222
     26 C          -2.2250    1.7250    0.0000 C.ar    1  LIG1       -0.0043
     27 C          -2.7130    2.5710    0.0000 C.ar    1  LIG1       -0.0003
     28 C          -2.2250    3.4880    0.0000 C.ar    1  LIG1       -0.0000
     29 C          -1.2330    3.4880    0.0000 C.ar    1  LIG1       -0.0003
     30 C          -0.7420    2.5710    0.0000 C.ar    1  LIG1       -0.0043
@<TRIPOS>BOND
     1     1     2   am
     2     1     5    1
     3     1    14    1
     4     2     3    2
     5     2     4    1
     6     5     6    1
     7     6     7   ar
     8     6    11   ar
     9     7     8   ar
    10     8     9   ar
    11     9    10   ar
    12     9    12    1
    13    10    11   ar
    14    12    13    1
    15    14    15    1
    16    15    16    1
    17    16    17    1
    18    16    21    1
    19    16    24    1
    20    17    18    1
    21    18    19    1
    22    18    22    1
    23    18    23    1
    24    19    20    1
    25    20    21    1
    26    24    25    1
    27    25    26   ar
    28    25    30   ar
    29    26    27   ar
    30    27    28   ar
    31    28    29   ar
    32    29    30   ar
