@<TRIPOS>MOLECULE
29814_ChemDiv_8016-0582
 28 30 0 0 0
SMALL
GASTEIGER
Energy = 0

@<TRIPOS>ATOM
      1 C          -2.0040    0.4330    0.0000 C.3     1  LIG1        0.0253
      2 C          -1.5040    1.3040    0.0000 C.ar    1  LIG1       -0.0226
      3 C          -2.0040    2.1670    0.0000 C.ar    1  LIG1       -0.0046
      4 C          -1.5040    3.0380    0.0000 C.ar    1  LIG1       -0.0046
      5 C          -0.5040    3.0380    0.0000 C.ar    1  LIG1       -0.0219
      6 C           0.0040    2.1670    0.0000 C.ar    1  LIG1       -0.0046
      7 C          -0.5040    1.3040    0.0000 C.ar    1  LIG1       -0.0046
      8 C           0.0040    3.8960    0.0000 C.3     1  LIG1        0.0310
      9 C          -2.5040   -0.4290    0.0000 C.3     1  LIG1        0.0314
     10 C          -3.5040   -0.4290    0.0000 C.3     1  LIG1        0.0932
     11 O          -4.0040    0.4330    0.0000 O.3     1  LIG1       -0.3585
     12 C          -3.5040    1.3040    0.0000 C.3     1  LIG1        0.1423
     13 C          -2.5040    1.3040    0.0000 C.3     1  LIG1        0.0362
     14 C          -4.5040   -0.4290    0.0000 C.3     1  LIG1        0.0296
     15 C          -3.0040   -1.2920    0.0000 C.3     1  LIG1        0.0296
     16 C          -1.5040   -0.4290    0.0000 C.3     1  LIG1        0.0276
     17 C          -0.5040   -0.4290    0.0000 C.3     1  LIG1        0.1158
     18 N           0.0040   -1.2920    0.0000 N.am    1  LIG1       -0.2017
     19 C           1.0000   -1.2920    0.0000 C.2     1  LIG1        0.2649
     20 C           1.5000   -2.1630    0.0000 C.ar    1  LIG1        0.0581
     21 C           2.5000   -2.1630    0.0000 C.ar    1  LIG1        0.0415
     22 C           2.9920   -3.0290    0.0000 C.ar    1  LIG1        0.1389
     23 O           4.0000   -3.0290    0.0000 O.3     1  LIG1       -0.4714
     24 C           4.5000   -2.1670    0.0000 C.3     1  LIG1        0.2525
     25 C           2.5000   -3.8920    0.0000 C.ar    1  LIG1        0.0369
     26 C           1.5000   -3.8920    0.0000 C.ar    1  LIG1        0.0033
     27 C           1.0000   -3.0290    0.0000 C.ar    1  LIG1        0.0048
     28 O           1.4920   -0.4290    0.0000 O.2     1  LIG1       -0.2684
@<TRIPOS>BOND
     1     1     2    1
     2     1     9    1
     3     1    13    1
     4     1    16    1
     5     2     3   ar
     6     2     7   ar
     7     3     4   ar
     8     4     5   ar
     9     5     6   ar
    10     5     8    1
    11     6     7   ar
    12     9    10    1
    13    10    11    1
    14    10    14    1
    15    10    15    1
    16    11    12    1
    17    12    13    1
    18    16    17    1
    19    17    18    1
    20    18    19   am
    21    19    20    1
    22    19    28    2
    23    20    21   ar
    24    20    27   ar
    25    21    22   ar
    26    22    23    1
    27    22    25   ar
    28    23    24    1
    29    25    26   ar
    30    26    27   ar
