@<TRIPOS>MOLECULE
29817_ChemDiv_5586-2559
 16 17 0 0 0
SMALL
GASTEIGER
Energy = 0

@<TRIPOS>ATOM
      1 C          -0.7000   -0.3830    0.0000 C.ar    1  LIG1        0.0642
      2 C           0.2580   -0.0540    0.0000 C.ar    1  LIG1        0.0246
      3 C           0.8540   -0.8710    0.0000 C.ar    1  LIG1        0.2161
      4 O           0.2580   -1.6830    0.0000 O.2     1  LIG1       -0.4514
      5 C          -0.7000   -1.3790    0.0000 C.ar    1  LIG1        0.1255
      6 C          -1.5790   -1.8670    0.0000 C.3     1  LIG1        0.0651
      7 C          -2.4250   -1.3790    0.0000 C.3     1  LIG1        0.0161
      8 C          -2.4250   -0.3830    0.0000 C.3     1  LIG1        0.0697
      9 C          -1.5790    0.1250    0.0000 C.2     1  LIG1        0.1755
     10 O          -1.5790    1.1210    0.0000 O.2     1  LIG1       -0.2913
     11 C           1.8500   -0.7790    0.0000 C.2     1  LIG1        0.3760
     12 O           2.4210   -1.5790    0.0000 O.2     1  LIG1       -0.2414
     13 O           2.2500    0.1420    0.0000 O.3     1  LIG1       -0.4433
     14 C           1.6710    0.9460    0.0000 C.3     1  LIG1        0.2090
     15 C           2.0670    1.8710    0.0000 C.3     1  LIG1        0.0513
     16 C           0.6750    0.8580    0.0000 C.3     1  LIG1        0.0346
@<TRIPOS>BOND
     1     1     2   ar
     2     1     5   ar
     3     1     9    1
     4     2     3   ar
     5     2    16    1
     6     3     4   ar
     7     3    11    1
     8     4     5   ar
     9     5     6    1
    10     6     7    1
    11     7     8    1
    12     8     9    1
    13     9    10    2
    14    11    12    2
    15    11    13    1
    16    13    14    1
    17    14    15    1
