@<TRIPOS>MOLECULE
29815_ChemDiv_4466-2841
 15 16 0 0 0
SMALL
GASTEIGER
Energy = 0

@<TRIPOS>ATOM
      1 C           0.2420   -0.0920    0.0000 C.ar    1  LIG1        0.0691
      2 C           1.1960    0.2250    0.0000 C.ar    1  LIG1        0.0569
      3 C           1.7750   -0.5830    0.0000 C.ar    1  LIG1        0.1802
      4 O           1.1960   -1.3880    0.0000 O.2     1  LIG1       -0.4545
      5 C           0.2420   -1.1040    0.0000 C.ar    1  LIG1        0.1257
      6 C          -0.6290   -1.5880    0.0000 C.3     1  LIG1        0.0650
      7 C          -1.4960   -1.1040    0.0000 C.3     1  LIG1        0.0144
      8 C          -1.4960   -0.0920    0.0000 C.3     1  LIG1        0.0697
      9 C          -0.6290    0.3960    0.0000 C.2     1  LIG1        0.1758
     10 O          -0.6290    1.4170    0.0000 O.2     1  LIG1       -0.2912
     11 C          -2.4960   -0.9920    0.0000 C.3     1  LIG1        0.0009
     12 C          -2.0750   -1.9210    0.0000 C.3     1  LIG1        0.0009
     13 C           1.5290    1.1630    0.0000 C.2     1  LIG1        0.0761
     14 O           0.8880    1.9250    0.0000 O.co2   1  LIG1       -0.5445
     15 O           2.4920    1.3920    0.0000 O.co2   1  LIG1       -0.5445
@<TRIPOS>BOND
     1     1     2   ar
     2     1     5   ar
     3     1     9    1
     4     2     3   ar
     5     2    13    1
     6     3     4   ar
     7     4     5   ar
     8     5     6    1
     9     6     7    1
    10     7     8    1
    11     7    11    1
    12     7    12    1
    13     8     9    1
    14     9    10    2
    15    13    14   ar
    16    13    15   ar
