@<TRIPOS>MOLECULE
29823_ChemDiv_7706-0635
 22 24 0 0 0
SMALL
GASTEIGER
Energy = 0

@<TRIPOS>ATOM
      1 C          -1.6540    0.2250    0.0000 C.ar    1  LIG1        0.0641
      2 C          -0.7040    0.5380    0.0000 C.ar    1  LIG1        0.0227
      3 C          -0.1170   -0.2750    0.0000 C.ar    1  LIG1        0.1959
      4 O          -0.7040   -1.0830    0.0000 O.2     1  LIG1       -0.4533
      5 C          -1.6540   -0.7750    0.0000 C.ar    1  LIG1        0.1254
      6 C          -2.5170   -1.2630    0.0000 C.3     1  LIG1        0.0650
      7 C          -3.3790   -0.7830    0.0000 C.3     1  LIG1        0.0144
      8 C          -3.3790    0.2250    0.0000 C.3     1  LIG1        0.0696
      9 C          -2.5170    0.7380    0.0000 C.2     1  LIG1        0.1755
     10 O          -2.5170    1.7500    0.0000 O.2     1  LIG1       -0.2913
     11 C          -4.3830   -0.7830    0.0000 C.3     1  LIG1        0.0009
     12 C          -3.6420   -1.7460    0.0000 C.3     1  LIG1        0.0009
     13 C           0.8830   -0.2830    0.0000 C.2     1  LIG1        0.3033
     14 N           1.3960    0.5880    0.0000 N.am    1  LIG1       -0.1724
     15 C           2.3960    0.5880    0.0000 C.ar    1  LIG1        0.0865
     16 C           2.8830   -0.2830    0.0000 C.ar    1  LIG1        0.0996
     17 C           3.8830   -0.2830    0.0000 C.ar    1  LIG1        0.3672
     18 N           4.3790    0.5790    0.0000 N.ar    1  LIG1        0.0892
     19 C           3.8830    1.4500    0.0000 C.ar    1  LIG1        0.3672
     20 C           2.8830    1.4500    0.0000 C.ar    1  LIG1        0.0996
     21 O           1.3830   -1.1500    0.0000 O.2     1  LIG1       -0.2647
     22 C          -0.2040    1.4000    0.0000 C.3     1  LIG1        0.0346
@<TRIPOS>BOND
     1     1     2   ar
     2     1     5   ar
     3     1     9    1
     4     2     3   ar
     5     2    22    1
     6     3     4   ar
     7     3    13    1
     8     4     5   ar
     9     5     6    1
    10     6     7    1
    11     7     8    1
    12     7    11    1
    13     7    12    1
    14     8     9    1
    15     9    10    2
    16    13    14   am
    17    13    21    2
    18    14    15    1
    19    15    16   ar
    20    15    20   ar
    21    16    17   ar
    22    17    18   ar
    23    18    19   ar
    24    19    20   ar
