@<TRIPOS>MOLECULE
29827_ChemDiv_8013-1807
 34 37 0 0 0
SMALL
GASTEIGER
Energy = 0

@<TRIPOS>ATOM
      1 C          -0.5290   -0.7380    0.0000 C.3     1  LIG1        0.1484
      2 C          -0.8130    0.2790    0.0000 C.3     1  LIG1        0.1531
      3 C           0.0790    0.8380    0.0000 C.2     1  LIG1        0.2416
      4 N           0.9040    0.2170    0.0000 N.am    1  LIG1       -0.2078
      5 C           0.5330   -0.7380    0.0000 C.2     1  LIG1        0.2414
      6 O           1.1540   -1.6210    0.0000 O.2     1  LIG1       -0.2739
      7 C           1.8920    0.4460    0.0000 C.ar    1  LIG1        0.0608
      8 C           2.2040    1.4130    0.0000 C.ar    1  LIG1        0.0184
      9 C           3.2040    1.6250    0.0000 C.ar    1  LIG1        0.0382
     10 C           3.9330    0.8750    0.0000 C.ar    1  LIG1        0.1388
     11 C           3.6210   -0.1290    0.0000 C.ar    1  LIG1        0.0382
     12 C           2.5630   -0.3420    0.0000 C.ar    1  LIG1        0.0184
     13 O           4.9580    1.1250    0.0000 O.3     1  LIG1       -0.4714
     14 C           5.6670    0.3750    0.0000 C.3     1  LIG1        0.2525
     15 O           0.1130    1.8880    0.0000 O.2     1  LIG1       -0.2739
     16 C          -1.8170    0.2790    0.0000 C.3     1  LIG1        0.1789
     17 N          -2.1750   -0.6670    0.0000 N.4     1  LIG1        0.4426
     18 C          -1.3750   -1.3000    0.0000 C.3     1  LIG1        0.1394
     19 C          -1.3630   -2.3460    0.0000 C.2     1  LIG1        0.1017
     20 O          -0.4580   -2.8380    0.0000 O.co2   1  LIG1       -0.5437
     21 O          -2.2710   -2.8710    0.0000 O.co2   1  LIG1       -0.5437
     22 C          -1.7580   -1.7630    0.0000 C.3     1  LIG1        0.0746
     23 C          -2.4630   -1.6290    0.0000 C.3     1  LIG1        0.0639
     24 S          -2.9960   -2.1460    0.0000 S.3     1  LIG1       -0.1391
     25 C          -3.6630   -1.7710    0.0000 C.3     1  LIG1        0.0692
     26 C          -2.4250    1.0880    0.0000 C.ar    1  LIG1        0.0763
     27 C          -3.4750    0.9790    0.0000 C.ar    1  LIG1        0.2308
     28 C          -4.1040    1.8170    0.0000 C.ar    1  LIG1        0.1772
     29 O          -5.0960    1.7290    0.0000 O.3     1  LIG1       -0.4682
     30 C          -5.6710    2.5420    0.0000 C.3     1  LIG1        0.2526
     31 C          -3.7080    2.7420    0.0000 C.ar    1  LIG1        0.0402
     32 C          -2.6630    2.8750    0.0000 C.ar    1  LIG1        0.0032
     33 C          -2.0460    2.0420    0.0000 C.ar    1  LIG1        0.0048
     34 O          -3.8920    0.0040    0.0000 O.3     1  LIG1       -0.2835
@<TRIPOS>BOND
     1     1     2    1
     2     1     5    1
     3     1    18    1
     4     2     3    1
     5     2    16    1
     6     3     4   am
     7     3    15    2
     8     4     5   am
     9     4     7    1
    10     5     6    2
    11     7     8   ar
    12     7    12   ar
    13     8     9   ar
    14     9    10   ar
    15    10    11   ar
    16    10    13    1
    17    11    12   ar
    18    13    14    1
    19    16    17    1
    20    16    26    1
    21    17    18    1
    22    18    19    1
    23    18    22    1
    24    19    20   ar
    25    19    21   ar
    26    22    23    1
    27    23    24    1
    28    24    25    1
    29    26    27   ar
    30    26    33   ar
    31    27    28   ar
    32    27    34    1
    33    28    29    1
    34    28    31   ar
    35    29    30    1
    36    31    32   ar
    37    32    33   ar
