@<TRIPOS>MOLECULE
29822_ChemDiv_3461-2084
 30 35 0 0 0
SMALL
GASTEIGER
Energy = 0

@<TRIPOS>ATOM
      1 S          -0.9420   -0.9580    0.0000 S.O2    1  LIG1       -0.0578
      2 C          -1.4380   -0.1460    0.0000 C.ar    1  LIG1        0.0893
      3 C          -2.4130   -0.1670    0.0000 C.ar    1  LIG1        0.0173
      4 C          -2.9380    0.7130    0.0000 C.ar    1  LIG1        0.0236
      5 C          -2.4130    1.5420    0.0000 C.ar    1  LIG1        0.0847
      6 N          -2.8880    2.3670    0.0000 N.ar    1  LIG1       -0.2079
      7 C          -4.3630    1.4710    0.0000 C.ar    1  LIG1        0.2792
      8 C          -3.8880    0.6540    0.0000 C.ar    1  LIG1        0.0593
      9 C          -4.3960   -0.1670    0.0000 C.ar    1  LIG1        0.0048
     10 C          -3.8880   -1.0330    0.0000 C.ar    1  LIG1        0.0002
     11 C          -2.8880   -1.0000    0.0000 C.ar    1  LIG1        0.0013
     12 O          -5.3380    1.4380    0.0000 O.2     1  LIG1       -0.2652
     13 C          -1.4460    1.5830    0.0000 C.ar    1  LIG1        0.0205
     14 C          -0.9710    0.7250    0.0000 C.ar    1  LIG1        0.0184
     15 N          -0.0920   -0.4630    0.0000 N.pl3   1  LIG1       -0.5358
     16 C           0.7710   -0.9290    0.0000 C.ar    1  LIG1       -0.1121
     17 C           1.6170   -0.4290    0.0000 C.ar    1  LIG1       -0.0210
     18 C           2.4500   -0.9290    0.0000 C.ar    1  LIG1        0.0314
     19 C           3.3580   -0.6210    0.0000 C.ar    1  LIG1        0.0110
     20 C           3.9000   -1.3790    0.0000 C.ar    1  LIG1        0.1188
     21 O           3.3580   -2.1710    0.0000 O.2     1  LIG1       -0.4581
     22 C           2.4500   -1.8790    0.0000 C.ar    1  LIG1        0.1444
     23 C           1.6170   -2.3630    0.0000 C.ar    1  LIG1        0.0356
     24 C           0.7710   -1.8790    0.0000 C.ar    1  LIG1       -0.0207
     25 C           4.9040   -1.2830    0.0000 C.3     1  LIG1        0.0642
     26 C           5.3330   -0.3170    0.0000 C.3     1  LIG1        0.0083
     27 C           4.6920    0.4880    0.0000 C.3     1  LIG1        0.0052
     28 C           3.7170    0.3460    0.0000 C.3     1  LIG1        0.0292
     29 O          -0.4040   -1.7920    0.0000 O.2     1  LIG1       -0.1842
     30 O          -1.7710   -1.5000    0.0000 O.2     1  LIG1       -0.1842
@<TRIPOS>BOND
     1     1     2    1
     2     1    15    1
     3     1    29    2
     4     1    30    2
     5     2     3   ar
     6     2    14   ar
     7     3     4   ar
     8     3    11   ar
     9     4     5   ar
    10     4     8   ar
    11     5     6   ar
    12     5    13   ar
    13     6     7   ar
    14     7     8   ar
    15     7    12    2
    16     8     9   ar
    17     9    10   ar
    18    10    11   ar
    19    13    14   ar
    20    15    16    1
    21    16    17   ar
    22    16    24   ar
    23    17    18   ar
    24    18    19   ar
    25    18    22   ar
    26    19    20   ar
    27    19    28    1
    28    20    21   ar
    29    20    25    1
    30    21    22   ar
    31    22    23   ar
    32    23    24   ar
    33    25    26    1
    34    26    27    1
    35    27    28    1
