@<TRIPOS>MOLECULE
29826_ChemDiv_5233-2454
 30 33 0 0 0
SMALL
GASTEIGER
Energy = 0

@<TRIPOS>ATOM
      1 N          -0.8580    0.0080    0.0000 N.ar    1  LIG1       -0.1467
      2 N          -0.8580   -0.9960    0.0000 N.ar    1  LIG1       -0.1311
      3 C          -1.7250   -1.4960    0.0000 C.ar    1  LIG1        0.1734
      4 C          -2.5960   -0.9960    0.0000 C.ar    1  LIG1        0.0366
      5 C          -2.5960    0.0080    0.0000 C.ar    1  LIG1        0.0222
      6 C          -1.7330    0.5000    0.0000 C.ar    1  LIG1        0.1029
      7 C          -1.7330    1.5080    0.0000 C.ar    1  LIG1        0.0196
      8 C          -0.8580    2.0080    0.0000 C.ar    1  LIG1        0.0048
      9 C          -0.8580    3.0000    0.0000 C.ar    1  LIG1        0.0421
     10 C          -1.7250    3.5000    0.0000 C.ar    1  LIG1        0.1957
     11 C          -2.5960    3.0000    0.0000 C.ar    1  LIG1        0.0421
     12 C          -2.5960    2.0080    0.0000 C.ar    1  LIG1        0.0048
     13 O          -1.7330    4.4960    0.0000 O.3     1  LIG1       -0.2866
     14 C          -3.4580    0.5000    0.0000 C.ar    1  LIG1        0.0016
     15 C          -4.3290   -0.0080    0.0000 C.ar    1  LIG1        0.0001
     16 C          -4.3290   -0.9960    0.0000 C.ar    1  LIG1        0.0001
     17 C          -3.4580   -1.4960    0.0000 C.ar    1  LIG1        0.0029
     18 N          -1.7330   -2.4960    0.0000 N.pl3   1  LIG1       -0.1927
     19 C          -0.8580   -2.9960    0.0000 C.ar    1  LIG1        0.0724
     20 C           0.0080   -2.4920    0.0000 C.ar    1  LIG1        0.0197
     21 C           0.8710   -2.9960    0.0000 C.ar    1  LIG1        0.0383
     22 C           0.8710   -4.0040    0.0000 C.ar    1  LIG1        0.1394
     23 O           1.7290   -4.4920    0.0000 O.3     1  LIG1       -0.4656
     24 C           2.5960   -3.9920    0.0000 C.3     1  LIG1        0.2911
     25 C           2.5960   -2.9960    0.0000 C.2     1  LIG1        0.2859
     26 O           1.7290   -2.4920    0.0000 O.2     1  LIG1       -0.2693
     27 N           3.4630   -2.4920    0.0000 N.am    1  LIG1       -0.2004
     28 C           4.3250   -2.9790    0.0000 C.3     1  LIG1        0.1386
     29 C          -0.0080   -4.4960    0.0000 C.ar    1  LIG1        0.0383
     30 C          -0.8580   -4.0040    0.0000 C.ar    1  LIG1        0.0197
@<TRIPOS>BOND
     1     1     2   ar
     2     1     6   ar
     3     2     3   ar
     4     3     4   ar
     5     3    18    1
     6     4     5   ar
     7     4    17   ar
     8     5     6   ar
     9     5    14   ar
    10     6     7    1
    11     7     8   ar
    12     7    12   ar
    13     8     9   ar
    14     9    10   ar
    15    10    11   ar
    16    10    13    1
    17    11    12   ar
    18    14    15   ar
    19    15    16   ar
    20    16    17   ar
    21    18    19    1
    22    19    20   ar
    23    19    30   ar
    24    20    21   ar
    25    21    22   ar
    26    22    23    1
    27    22    29   ar
    28    23    24    1
    29    24    25    1
    30    25    26    2
    31    25    27   am
    32    27    28    1
    33    29    30   ar
