@<TRIPOS>MOLECULE
29828_ChemDiv_5233-2477
 29 32 0 0 0
SMALL
GASTEIGER
Energy = 0

@<TRIPOS>ATOM
      1 N          -0.0040    0.5130    0.0000 N.ar    1  LIG1       -0.1467
      2 N          -0.0040   -0.4960    0.0000 N.ar    1  LIG1       -0.1311
      3 C          -0.8750   -0.9830    0.0000 C.ar    1  LIG1        0.1734
      4 C          -1.7380   -0.4960    0.0000 C.ar    1  LIG1        0.0366
      5 C          -1.7380    0.5130    0.0000 C.ar    1  LIG1        0.0222
      6 C          -0.8750    1.0130    0.0000 C.ar    1  LIG1        0.1029
      7 C          -0.8750    2.0080    0.0000 C.ar    1  LIG1        0.0196
      8 C          -0.0040    2.5080    0.0000 C.ar    1  LIG1        0.0047
      9 C          -0.0040    3.5130    0.0000 C.ar    1  LIG1        0.0369
     10 C          -0.8750    4.0170    0.0000 C.ar    1  LIG1        0.1387
     11 C          -1.7380    3.5130    0.0000 C.ar    1  LIG1        0.0369
     12 C          -1.7380    2.5080    0.0000 C.ar    1  LIG1        0.0047
     13 O          -0.8750    5.0000    0.0000 O.3     1  LIG1       -0.4714
     14 C          -1.7380    5.4880    0.0000 C.3     1  LIG1        0.2525
     15 C          -2.5880    1.0130    0.0000 C.ar    1  LIG1        0.0016
     16 C          -3.4630    0.5130    0.0000 C.ar    1  LIG1        0.0001
     17 C          -3.4630   -0.4960    0.0000 C.ar    1  LIG1        0.0001
     18 C          -2.5880   -0.9830    0.0000 C.ar    1  LIG1        0.0029
     19 N          -0.8750   -1.9920    0.0000 N.pl3   1  LIG1       -0.1927
     20 C          -0.0040   -2.4920    0.0000 C.ar    1  LIG1        0.0722
     21 C          -0.0130   -3.4920    0.0000 C.ar    1  LIG1        0.0162
     22 C           0.8580   -3.9880    0.0000 C.ar    1  LIG1       -0.0024
     23 C           1.7250   -3.4790    0.0000 C.ar    1  LIG1       -0.0129
     24 C           2.5960   -3.9880    0.0000 C.3     1  LIG1        0.1148
     25 C           2.5960   -4.9750    0.0000 C.2     1  LIG1        0.2652
     26 O           3.4580   -5.4880    0.0000 O.2     1  LIG1       -0.2713
     27 N           1.7250   -5.4880    0.0000 N.am    1  LIG1       -0.0875
     28 C           1.7250   -2.4920    0.0000 C.ar    1  LIG1       -0.0024
     29 C           0.8580   -1.9790    0.0000 C.ar    1  LIG1        0.0162
@<TRIPOS>BOND
     1     1     2   ar
     2     1     6   ar
     3     2     3   ar
     4     3     4   ar
     5     3    19    1
     6     4     5   ar
     7     4    18   ar
     8     5     6   ar
     9     5    15   ar
    10     6     7    1
    11     7     8   ar
    12     7    12   ar
    13     8     9   ar
    14     9    10   ar
    15    10    11   ar
    16    10    13    1
    17    11    12   ar
    18    13    14    1
    19    15    16   ar
    20    16    17   ar
    21    17    18   ar
    22    19    20    1
    23    20    21   ar
    24    20    29   ar
    25    21    22   ar
    26    22    23   ar
    27    23    24    1
    28    23    28   ar
    29    24    25    1
    30    25    26    2
    31    25    27   am
    32    28    29   ar
