@<TRIPOS>MOLECULE
29821_ChemDiv_7706-0634
 22 24 0 0 0
SMALL
GASTEIGER
Energy = 0

@<TRIPOS>ATOM
      1 C           0.6210   -0.9960    0.0000 C.ar    1  LIG1        0.1941
      2 C           0.0330   -0.1830    0.0000 C.ar    1  LIG1        0.0226
      3 C          -0.9250   -0.4960    0.0000 C.ar    1  LIG1        0.0641
      4 C          -0.9250   -1.4920    0.0000 C.ar    1  LIG1        0.1254
      5 O           0.0330   -1.7960    0.0000 O.2     1  LIG1       -0.4534
      6 C          -1.7830   -1.9790    0.0000 C.3     1  LIG1        0.0650
      7 C          -2.6460   -1.4960    0.0000 C.3     1  LIG1        0.0144
      8 C          -2.6460   -0.4960    0.0000 C.3     1  LIG1        0.0696
      9 C          -1.7830    0.0210    0.0000 C.2     1  LIG1        0.1755
     10 O          -1.7830    1.0330    0.0000 O.2     1  LIG1       -0.2913
     11 C          -3.6460   -1.4960    0.0000 C.3     1  LIG1        0.0009
     12 C          -2.9080   -2.4580    0.0000 C.3     1  LIG1        0.0009
     13 C           0.5290    0.6830    0.0000 C.3     1  LIG1        0.0346
     14 C           1.6170   -0.9960    0.0000 C.2     1  LIG1        0.2838
     15 N           2.1210   -0.1330    0.0000 N.am    1  LIG1       -0.2620
     16 C           3.1210   -0.1330    0.0000 C.3     1  LIG1        0.1568
     17 C           3.6210    0.7250    0.0000 C.3     1  LIG1        0.1608
     18 N           3.1330    1.6000    0.0000 N.4     1  LIG1        0.3847
     19 C           2.1290    1.6080    0.0000 C.3     1  LIG1        0.1608
     20 C           1.6170    0.7420    0.0000 C.3     1  LIG1        0.1568
     21 C           3.6420    2.4630    0.0000 C.3     1  LIG1        0.2024
     22 O           2.1170   -1.8710    0.0000 O.2     1  LIG1       -0.2666
@<TRIPOS>BOND
     1     1     2   ar
     2     1     5   ar
     3     1    14    1
     4     2     3   ar
     5     2    13    1
     6     3     4   ar
     7     3     9    1
     8     4     5   ar
     9     4     6    1
    10     6     7    1
    11     7     8    1
    12     7    11    1
    13     7    12    1
    14     8     9    1
    15     9    10    2
    16    14    15   am
    17    14    22    2
    18    15    16    1
    19    15    20    1
    20    16    17    1
    21    17    18    1
    22    18    19    1
    23    18    21    1
    24    19    20    1
