@<TRIPOS>MOLECULE
29830_ChemDiv_5754-3009
 37 40 0 0 0
SMALL
GASTEIGER
Energy = 0

@<TRIPOS>ATOM
      1 C           1.7830   -4.3290    0.0000 C.ar    1  LIG1        0.0918
      2 C           2.6460   -3.8580    0.0000 C.2     1  LIG1        0.2872
      3 O           2.6460   -2.9130    0.0000 O.2     1  LIG1       -0.2666
      4 N           3.4630   -4.3790    0.0000 N.am    1  LIG1       -0.0836
      5 C           0.8960   -3.8210    0.0000 C.ar    1  LIG1        0.0242
      6 C           0.0170   -4.3290    0.0000 C.ar    1  LIG1        0.0725
      7 N          -0.8460   -3.8210    0.0000 N.pl3   1  LIG1       -0.1927
      8 C          -0.8460   -2.8210    0.0000 C.ar    1  LIG1        0.1734
      9 N           0.0170   -2.2960    0.0000 N.ar    1  LIG1       -0.1311
     10 N           0.0170   -1.3290    0.0000 N.ar    1  LIG1       -0.1467
     11 C          -0.8460   -0.8040    0.0000 C.ar    1  LIG1        0.1029
     12 C          -1.7040   -1.2960    0.0000 C.ar    1  LIG1        0.0222
     13 C          -1.7040   -2.3040    0.0000 C.ar    1  LIG1        0.0366
     14 C          -2.5960   -2.8210    0.0000 C.ar    1  LIG1        0.0029
     15 C          -3.4670   -2.2960    0.0000 C.ar    1  LIG1        0.0001
     16 C          -3.4670   -1.3290    0.0000 C.ar    1  LIG1        0.0001
     17 C          -2.5960   -0.8040    0.0000 C.ar    1  LIG1        0.0016
     18 C          -0.8460    0.2500    0.0000 C.ar    1  LIG1        0.0196
     19 C           0.0170    0.7330    0.0000 C.ar    1  LIG1        0.0047
     20 C           0.0170    1.7330    0.0000 C.ar    1  LIG1        0.0370
     21 C          -0.8460    2.2500    0.0000 C.ar    1  LIG1        0.1393
     22 O          -0.8460    3.2500    0.0000 O.3     1  LIG1       -0.4656
     23 C           0.0080    3.7540    0.0000 C.3     1  LIG1        0.2896
     24 C           0.0080    4.7500    0.0000 C.2     1  LIG1        0.2702
     25 N           0.8960    5.2580    0.0000 N.am    1  LIG1       -0.2765
     26 C           0.8960    6.2830    0.0000 C.3     1  LIG1        0.0936
     27 C           1.7580    6.8040    0.0000 C.3     1  LIG1        0.0233
     28 C           1.7960    4.8040    0.0000 C.3     1  LIG1        0.0936
     29 C           2.6460    5.2960    0.0000 C.3     1  LIG1        0.0233
     30 O          -0.8710    5.2210    0.0000 O.2     1  LIG1       -0.2708
     31 C          -1.7040    1.7330    0.0000 C.ar    1  LIG1        0.0370
     32 C          -1.7040    0.7330    0.0000 C.ar    1  LIG1        0.0047
     33 C           0.0170   -5.3290    0.0000 C.ar    1  LIG1        0.0197
     34 C           0.8960   -5.8040    0.0000 C.ar    1  LIG1        0.0384
     35 C           1.7830   -5.3290    0.0000 C.ar    1  LIG1        0.1432
     36 O           2.6290   -5.8210    0.0000 O.3     1  LIG1       -0.4713
     37 C           2.6000   -6.8040    0.0000 C.3     1  LIG1        0.2525
@<TRIPOS>BOND
     1     1     2    1
     2     1     5   ar
     3     1    35   ar
     4     2     3    2
     5     2     4   am
     6     5     6   ar
     7     6     7    1
     8     6    33   ar
     9     7     8    1
    10     8     9   ar
    11     8    13   ar
    12     9    10   ar
    13    10    11   ar
    14    11    12   ar
    15    11    18    1
    16    12    13   ar
    17    12    17   ar
    18    13    14   ar
    19    14    15   ar
    20    15    16   ar
    21    16    17   ar
    22    18    19   ar
    23    18    32   ar
    24    19    20   ar
    25    20    21   ar
    26    21    22    1
    27    21    31   ar
    28    22    23    1
    29    23    24    1
    30    24    25   am
    31    24    30    2
    32    25    26    1
    33    25    28    1
    34    26    27    1
    35    28    29    1
    36    31    32   ar
    37    33    34   ar
    38    34    35   ar
    39    35    36    1
    40    36    37    1
