@<TRIPOS>MOLECULE
29833_ChemDiv_8014-1931
 27 29 0 0 0
SMALL
GASTEIGER
Energy = 0

@<TRIPOS>ATOM
      1 C           0.7880    0.0170    0.0000 C.3     1  LIG1        0.1480
      2 C          -0.8830    0.0170    0.0000 C.3     1  LIG1        0.1528
      3 C          -0.8830    0.9750    0.0000 C.2     1  LIG1        0.2377
      4 N          -0.0250    1.4580    0.0000 N.am    1  LIG1       -0.2312
      5 C           0.7880    0.9750    0.0000 C.2     1  LIG1        0.2375
      6 O           1.6330    1.4580    0.0000 O.2     1  LIG1       -0.2742
      7 C          -0.0250    2.4170    0.0000 C.3     1  LIG1        0.0825
      8 C          -0.8540    2.8830    0.0000 C.3     1  LIG1        0.0220
      9 C           0.8080    2.8830    0.0000 C.3     1  LIG1        0.0220
     10 O          -1.7210    1.4580    0.0000 O.2     1  LIG1       -0.2742
     11 C          -0.8830   -0.9540    0.0000 C.3     1  LIG1        0.1788
     12 N          -0.0500   -1.4210    0.0000 N.4     1  LIG1        0.4426
     13 C           0.7880   -0.9540    0.0000 C.3     1  LIG1        0.1385
     14 C           0.8080   -1.9830    0.0000 C.2     1  LIG1        0.1017
     15 O          -0.0960   -2.4920    0.0000 O.co2   1  LIG1       -0.5437
     16 O           1.7040   -2.4920    0.0000 O.co2   1  LIG1       -0.5437
     17 C           1.6750   -0.4830    0.0000 C.3     1  LIG1        0.0630
     18 C           2.5040   -1.0420    0.0000 C.3     1  LIG1        0.0061
     19 C           2.5040   -2.0420    0.0000 C.3     1  LIG1        0.0002
     20 C           3.3790   -0.5420    0.0000 C.3     1  LIG1        0.0002
     21 C          -1.7080   -1.4210    0.0000 C.ar    1  LIG1        0.0732
     22 C          -1.7080   -2.4000    0.0000 C.ar    1  LIG1        0.1972
     23 O          -0.8830   -2.8790    0.0000 O.3     1  LIG1       -0.2867
     24 C          -2.5380   -2.8790    0.0000 C.ar    1  LIG1        0.0419
     25 C          -3.3830   -2.4000    0.0000 C.ar    1  LIG1        0.0033
     26 C          -3.3830   -1.4210    0.0000 C.ar    1  LIG1        0.0001
     27 C          -2.5380   -0.9540    0.0000 C.ar    1  LIG1        0.0046
@<TRIPOS>BOND
     1     1     2    1
     2     1     5    1
     3     1    13    1
     4     2     3    1
     5     2    11    1
     6     3     4   am
     7     3    10    2
     8     4     5   am
     9     4     7    1
    10     5     6    2
    11     7     8    1
    12     7     9    1
    13    11    12    1
    14    11    21    1
    15    12    13    1
    16    13    14    1
    17    13    17    1
    18    14    15   ar
    19    14    16   ar
    20    17    18    1
    21    18    19    1
    22    18    20    1
    23    21    22   ar
    24    21    27   ar
    25    22    23    1
    26    22    24   ar
    27    24    25   ar
    28    25    26   ar
    29    26    27   ar
