@<TRIPOS>MOLECULE
29834_ChemDiv_3554-0539
 33 35 0 0 0
SMALL
GASTEIGER
Energy = 0

@<TRIPOS>ATOM
      1 N           0.9830    2.1170    0.0000 N.am    1  LIG1       -0.2008
      2 C           0.4000    1.3080    0.0000 C.3     1  LIG1        0.1262
      3 C          -0.6210    1.3080    0.0000 C.3     1  LIG1        0.1270
      4 N          -1.1710    2.1290    0.0000 N.am    1  LIG1       -0.2007
      5 C          -2.1710    2.0500    0.0000 C.2     1  LIG1        0.2648
      6 O          -2.5500    1.1460    0.0000 O.2     1  LIG1       -0.2684
      7 C          -2.7380    2.8330    0.0000 C.ar    1  LIG1        0.0550
      8 C          -2.3670    3.7750    0.0000 C.ar    1  LIG1        0.0046
      9 C          -2.9420    4.5750    0.0000 C.ar    1  LIG1        0.0001
     10 C          -3.9380    4.4790    0.0000 C.ar    1  LIG1        0.0000
     11 C          -4.3290    3.5580    0.0000 C.ar    1  LIG1        0.0001
     12 C          -3.7250    2.7540    0.0000 C.ar    1  LIG1        0.0046
     13 C          -0.9130    0.3420    0.0000 C.3     1  LIG1        0.0810
     14 S          -0.0960   -0.2580    0.0000 S.3     1  LIG1       -0.1374
     15 C           0.6960    0.3420    0.0000 C.3     1  LIG1        0.0694
     16 C           1.6540    0.0290    0.0000 C.3     1  LIG1        0.0126
     17 C           1.8460   -0.9460    0.0000 C.3     1  LIG1        0.0015
     18 C           1.0880   -1.6000    0.0000 C.3     1  LIG1        0.0117
     19 C           1.2960   -2.5960    0.0000 C.3     1  LIG1        0.1096
     20 C           2.2250   -2.8960    0.0000 C.2     1  LIG1        0.3170
     21 O           2.9710   -2.2210    0.0000 O.2     1  LIG1       -0.2501
     22 O           2.3630   -3.8750    0.0000 O.3     1  LIG1       -0.4485
     23 C           3.2790   -4.2420    0.0000 C.3     1  LIG1        0.2084
     24 C           3.4170   -5.2130    0.0000 C.3     1  LIG1        0.0474
     25 C           4.3250   -5.5750    0.0000 C.3     1  LIG1        0.0040
     26 C           0.5920    3.0290    0.0000 C.2     1  LIG1        0.2648
     27 O          -0.4040    3.1080    0.0000 O.2     1  LIG1       -0.2684
     28 C           1.1670    3.8750    0.0000 C.ar    1  LIG1        0.0550
     29 C           0.7920    4.7580    0.0000 C.ar    1  LIG1        0.0046
     30 C           1.3750    5.5750    0.0000 C.ar    1  LIG1        0.0001
     31 C           2.3830    5.5380    0.0000 C.ar    1  LIG1        0.0000
     32 C           2.7750    4.5750    0.0000 C.ar    1  LIG1        0.0001
     33 C           2.1880    3.7420    0.0000 C.ar    1  LIG1        0.0046
@<TRIPOS>BOND
     1     1     2    1
     2     1    26   am
     3     2     3    1
     4     2    15    1
     5     3     4    1
     6     3    13    1
     7     4     5   am
     8     5     6    2
     9     5     7    1
    10     7     8   ar
    11     7    12   ar
    12     8     9   ar
    13     9    10   ar
    14    10    11   ar
    15    11    12   ar
    16    13    14    1
    17    14    15    1
    18    15    16    1
    19    16    17    1
    20    17    18    1
    21    18    19    1
    22    19    20    1
    23    20    21    2
    24    20    22    1
    25    22    23    1
    26    23    24    1
    27    24    25    1
    28    26    27    2
    29    26    28    1
    30    28    29   ar
    31    28    33   ar
    32    29    30   ar
    33    30    31   ar
    34    31    32   ar
    35    32    33   ar
