@<TRIPOS>MOLECULE
29832_ChemDiv_5754-3010
 38 41 0 0 0
SMALL
GASTEIGER
Energy = 0

@<TRIPOS>ATOM
      1 C           1.3460   -4.3330    0.0000 C.ar    1  LIG1        0.0902
      2 C           2.2080   -3.8630    0.0000 C.2     1  LIG1        0.2678
      3 O           2.2080   -2.9170    0.0000 O.2     1  LIG1       -0.2683
      4 N           3.0210   -4.3790    0.0000 N.am    1  LIG1       -0.1997
      5 C           3.9040   -3.9330    0.0000 C.3     1  LIG1        0.1388
      6 C           0.4580   -3.8250    0.0000 C.ar    1  LIG1        0.0242
      7 C          -0.4250   -4.3330    0.0000 C.ar    1  LIG1        0.0725
      8 N          -1.2830   -3.8250    0.0000 N.pl3   1  LIG1       -0.1927
      9 C          -1.2830   -2.8250    0.0000 C.ar    1  LIG1        0.1734
     10 N          -0.4250   -2.2960    0.0000 N.ar    1  LIG1       -0.1311
     11 N          -0.4250   -1.3330    0.0000 N.ar    1  LIG1       -0.1467
     12 C          -1.2830   -0.8040    0.0000 C.ar    1  LIG1        0.1029
     13 C          -2.1460   -1.2960    0.0000 C.ar    1  LIG1        0.0222
     14 C          -2.1460   -2.3040    0.0000 C.ar    1  LIG1        0.0366
     15 C          -3.0380   -2.8250    0.0000 C.ar    1  LIG1        0.0029
     16 C          -3.9080   -2.2960    0.0000 C.ar    1  LIG1        0.0001
     17 C          -3.9080   -1.3330    0.0000 C.ar    1  LIG1        0.0001
     18 C          -3.0380   -0.8040    0.0000 C.ar    1  LIG1        0.0016
     19 C          -1.2830    0.2500    0.0000 C.ar    1  LIG1        0.0196
     20 C          -2.1460    0.7330    0.0000 C.ar    1  LIG1        0.0047
     21 C          -2.1460    1.7330    0.0000 C.ar    1  LIG1        0.0370
     22 C          -1.2830    2.2540    0.0000 C.ar    1  LIG1        0.1393
     23 O          -1.2830    3.2540    0.0000 O.3     1  LIG1       -0.4656
     24 C          -0.4330    3.7540    0.0000 C.3     1  LIG1        0.2896
     25 C          -0.4330    4.7500    0.0000 C.2     1  LIG1        0.2702
     26 N           0.4580    5.2580    0.0000 N.am    1  LIG1       -0.2765
     27 C           0.4580    6.2880    0.0000 C.3     1  LIG1        0.0936
     28 C           1.3170    6.8040    0.0000 C.3     1  LIG1        0.0233
     29 C           1.3540    4.8040    0.0000 C.3     1  LIG1        0.0936
     30 C           2.2080    5.2960    0.0000 C.3     1  LIG1        0.0233
     31 O          -1.3130    5.2210    0.0000 O.2     1  LIG1       -0.2708
     32 C          -0.4250    1.7330    0.0000 C.ar    1  LIG1        0.0370
     33 C          -0.4250    0.7330    0.0000 C.ar    1  LIG1        0.0047
     34 C          -0.4250   -5.3330    0.0000 C.ar    1  LIG1        0.0197
     35 C           0.4580   -5.8040    0.0000 C.ar    1  LIG1        0.0384
     36 C           1.3460   -5.3330    0.0000 C.ar    1  LIG1        0.1432
     37 O           2.1880   -5.8250    0.0000 O.3     1  LIG1       -0.4713
     38 C           2.1630   -6.8040    0.0000 C.3     1  LIG1        0.2525
@<TRIPOS>BOND
     1     1     2    1
     2     1     6   ar
     3     1    36   ar
     4     2     3    2
     5     2     4   am
     6     4     5    1
     7     6     7   ar
     8     7     8    1
     9     7    34   ar
    10     8     9    1
    11     9    10   ar
    12     9    14   ar
    13    10    11   ar
    14    11    12   ar
    15    12    13   ar
    16    12    19    1
    17    13    14   ar
    18    13    18   ar
    19    14    15   ar
    20    15    16   ar
    21    16    17   ar
    22    17    18   ar
    23    19    20   ar
    24    19    33   ar
    25    20    21   ar
    26    21    22   ar
    27    22    23    1
    28    22    32   ar
    29    23    24    1
    30    24    25    1
    31    25    26   am
    32    25    31    2
    33    26    27    1
    34    26    29    1
    35    27    28    1
    36    29    30    1
    37    32    33   ar
    38    34    35   ar
    39    35    36   ar
    40    36    37    1
    41    37    38    1
