@<TRIPOS>MOLECULE
29839_ChemDiv_8015-3047
 24 26 0 0 0
SMALL
GASTEIGER
Energy = 0

@<TRIPOS>ATOM
      1 C           1.6250    0.0040    0.0000 C.3     1  LIG1        0.1480
      2 C          -0.0420    0.0040    0.0000 C.3     1  LIG1        0.1528
      3 C          -0.0420    0.9670    0.0000 C.2     1  LIG1        0.2377
      4 N           0.8040    1.4580    0.0000 N.am    1  LIG1       -0.2312
      5 C           1.6250    0.9670    0.0000 C.2     1  LIG1        0.2375
      6 O           2.4580    1.4580    0.0000 O.2     1  LIG1       -0.2742
      7 C           0.8040    2.4130    0.0000 C.3     1  LIG1        0.0825
      8 C          -0.0210    2.8880    0.0000 C.3     1  LIG1        0.0220
      9 C           1.6250    2.8880    0.0000 C.3     1  LIG1        0.0220
     10 O          -0.8920    1.4580    0.0000 O.2     1  LIG1       -0.2742
     11 C          -0.0420   -0.9500    0.0000 C.3     1  LIG1        0.1788
     12 N           0.7750   -1.4380    0.0000 N.4     1  LIG1        0.4426
     13 C           1.6250   -0.9500    0.0000 C.3     1  LIG1        0.1387
     14 C           1.6380   -1.9960    0.0000 C.2     1  LIG1        0.1017
     15 O           0.7380   -2.5130    0.0000 O.co2   1  LIG1       -0.5437
     16 O           2.5420   -2.5130    0.0000 O.co2   1  LIG1       -0.5437
     17 C           2.5130   -0.4880    0.0000 C.3     1  LIG1        0.0693
     18 C          -0.8790   -1.4380    0.0000 C.ar    1  LIG1        0.0732
     19 C          -0.8790   -2.3920    0.0000 C.ar    1  LIG1        0.1972
     20 O          -0.0420   -2.8830    0.0000 O.3     1  LIG1       -0.2867
     21 C          -1.7130   -2.8830    0.0000 C.ar    1  LIG1        0.0419
     22 C          -2.5460   -2.3920    0.0000 C.ar    1  LIG1        0.0033
     23 C          -2.5460   -1.4380    0.0000 C.ar    1  LIG1        0.0001
     24 C          -1.7130   -0.9500    0.0000 C.ar    1  LIG1        0.0046
@<TRIPOS>BOND
     1     1     2    1
     2     1     5    1
     3     1    13    1
     4     2     3    1
     5     2    11    1
     6     3     4   am
     7     3    10    2
     8     4     5   am
     9     4     7    1
    10     5     6    2
    11     7     8    1
    12     7     9    1
    13    11    12    1
    14    11    18    1
    15    12    13    1
    16    13    14    1
    17    13    17    1
    18    14    15   ar
    19    14    16   ar
    20    18    19   ar
    21    18    24   ar
    22    19    20    1
    23    19    21   ar
    24    21    22   ar
    25    22    23   ar
    26    23    24   ar
