@<TRIPOS>MOLECULE
29848_ChemDiv_4456-3285
 33 36 0 0 0
SMALL
GASTEIGER
Energy = 0

@<TRIPOS>ATOM
      1 S          -2.6630   -0.0250    0.0000 S.O2    1  LIG1        0.0823
      2 N          -1.8000    0.4580    0.0000 N.am    1  LIG1       -0.1376
      3 C          -0.9420   -0.0710    0.0000 C.ar    1  LIG1        0.0767
      4 C          -0.0830    0.4580    0.0000 C.ar    1  LIG1        0.0200
      5 C           0.7750   -0.0710    0.0000 C.ar    1  LIG1        0.0451
      6 C           1.7170    0.2460    0.0000 C.ar    1  LIG1        0.1130
      7 C           2.2790   -0.5790    0.0000 C.ar    1  LIG1        0.1515
      8 O           1.7170   -1.3580    0.0000 O.2     1  LIG1       -0.4533
      9 C           0.7750   -1.0460    0.0000 C.ar    1  LIG1        0.1456
     10 C          -0.0830   -1.5750    0.0000 C.ar    1  LIG1        0.0388
     11 C          -0.9420   -1.0460    0.0000 C.ar    1  LIG1        0.0198
     12 C           3.2670   -0.5000    0.0000 C.ar    1  LIG1        0.0348
     13 C           3.8290   -1.3580    0.0000 C.ar    1  LIG1        0.0030
     14 C           4.8040   -1.3130    0.0000 C.ar    1  LIG1        0.0001
     15 C           5.2880   -0.4000    0.0000 C.ar    1  LIG1        0.0000
     16 C           4.7250    0.4580    0.0000 C.ar    1  LIG1        0.0001
     17 C           3.7290    0.4040    0.0000 C.ar    1  LIG1        0.0030
     18 C           2.0130    1.2210    0.0000 C.2     1  LIG1        0.3443
     19 O           1.3670    1.9630    0.0000 O.2     1  LIG1       -0.2448
     20 O           3.0040    1.4000    0.0000 O.3     1  LIG1       -0.4454
     21 C           3.6500    0.6210    0.0000 C.3     1  LIG1        0.2089
     22 C           4.6420    0.7920    0.0000 C.3     1  LIG1        0.0513
     23 C          -1.8000    1.4500    0.0000 C.2     1  LIG1        0.2485
     24 O          -0.9420    1.9630    0.0000 O.2     1  LIG1       -0.2729
     25 C          -2.6630    1.9630    0.0000 C.3     1  LIG1        0.0968
     26 O          -2.1880   -0.8830    0.0000 O.2     1  LIG1       -0.1493
     27 O          -3.1460    0.8880    0.0000 O.2     1  LIG1       -0.1493
     28 C          -3.5750   -0.5000    0.0000 C.ar    1  LIG1        0.1258
     29 C          -4.3790    0.0290    0.0000 C.ar    1  LIG1        0.0202
     30 C          -5.2920   -0.4540    0.0000 C.ar    1  LIG1        0.0014
     31 C          -5.2920   -1.4380    0.0000 C.ar    1  LIG1        0.0001
     32 C          -4.4330   -1.9580    0.0000 C.ar    1  LIG1        0.0014
     33 C          -3.5750   -1.4750    0.0000 C.ar    1  LIG1        0.0202
@<TRIPOS>BOND
     1     1     2    1
     2     1    26    2
     3     1    27    2
     4     1    28    1
     5     2     3    1
     6     2    23   am
     7     3     4   ar
     8     3    11   ar
     9     4     5   ar
    10     5     6   ar
    11     5     9   ar
    12     6     7   ar
    13     6    18    1
    14     7     8   ar
    15     7    12    1
    16     8     9   ar
    17     9    10   ar
    18    10    11   ar
    19    12    13   ar
    20    12    17   ar
    21    13    14   ar
    22    14    15   ar
    23    15    16   ar
    24    16    17   ar
    25    18    19    2
    26    18    20    1
    27    20    21    1
    28    21    22    1
    29    23    24    2
    30    23    25    1
    31    28    29   ar
    32    28    33   ar
    33    29    30   ar
    34    30    31   ar
    35    31    32   ar
    36    32    33   ar
