@<TRIPOS>MOLECULE
29849_ChemDiv_8012-6205
 22 24 0 0 0
SMALL
GASTEIGER
Energy = 0

@<TRIPOS>ATOM
      1 C          -1.8790    0.0330    0.0000 C.ar    1  LIG1        0.0839
      2 C          -1.9500   -0.9540    0.0000 C.ar    1  LIG1        0.1268
      3 O          -2.9380   -1.1880    0.0000 O.2     1  LIG1       -0.4622
      4 C          -3.4830   -0.3250    0.0000 C.ar    1  LIG1        0.1185
      5 C          -2.8040    0.4210    0.0000 C.ar    1  LIG1        0.0152
      6 C          -3.1040    1.3710    0.0000 C.3     1  LIG1        0.0294
      7 C          -4.0920    1.5750    0.0000 C.3     1  LIG1        0.0052
      8 C          -4.7670    0.8330    0.0000 C.3     1  LIG1        0.0083
      9 C          -4.4580   -0.1170    0.0000 C.3     1  LIG1        0.0642
     10 C          -1.1750   -1.5750    0.0000 C.3     1  LIG1        0.0726
     11 C          -1.0040    0.5250    0.0000 C.2     1  LIG1        0.2676
     12 N          -0.1330    0.0420    0.0000 N.am    1  LIG1       -0.1933
     13 C           0.7290    0.5380    0.0000 C.3     1  LIG1        0.1794
     14 C           1.5830    0.0420    0.0000 C.ar    1  LIG1        0.1449
     15 C           2.4540    0.5380    0.0000 C.ar    1  LIG1        0.0390
     16 C           3.1960   -0.1290    0.0000 C.ar    1  LIG1        0.0543
     17 C           2.8040   -1.0250    0.0000 C.ar    1  LIG1        0.1802
     18 O           1.8000   -0.9380    0.0000 O.2     1  LIG1       -0.4529
     19 C           4.1790    0.0710    0.0000 C.2     1  LIG1        0.0760
     20 O           4.5000    1.0330    0.0000 O.co2   1  LIG1       -0.5445
     21 O           4.7630   -0.7000    0.0000 O.co2   1  LIG1       -0.5445
     22 O          -1.0040    1.5420    0.0000 O.2     1  LIG1       -0.2683
@<TRIPOS>BOND
     1     1     2   ar
     2     1     5   ar
     3     1    11    1
     4     2     3   ar
     5     2    10    1
     6     3     4   ar
     7     4     5   ar
     8     4     9    1
     9     5     6    1
    10     6     7    1
    11     7     8    1
    12     8     9    1
    13    11    12   am
    14    11    22    2
    15    12    13    1
    16    13    14    1
    17    14    15   ar
    18    14    18   ar
    19    15    16   ar
    20    16    17   ar
    21    16    19    1
    22    17    18   ar
    23    19    20   ar
    24    19    21   ar
