@<TRIPOS>MOLECULE
29841_ChemDiv_8010-8425
 21 23 0 0 0
SMALL
GASTEIGER
Energy = 0

@<TRIPOS>ATOM
      1 C          -1.4420   -0.2710    0.0000 C.ar    1  LIG1        0.0843
      2 C          -0.5830    0.2170    0.0000 C.2     1  LIG1        0.2714
      3 N           0.3170   -0.3420    0.0000 N.am    1  LIG1       -0.1754
      4 C           1.1960    0.1580    0.0000 C.ar    1  LIG1        0.0739
      5 C           2.0670   -0.3580    0.0000 C.ar    1  LIG1        0.0197
      6 C           2.9500    0.1580    0.0000 C.ar    1  LIG1        0.0382
      7 C           2.9500    1.1460    0.0000 C.ar    1  LIG1        0.1388
      8 C           2.0670    1.6710    0.0000 C.ar    1  LIG1        0.0382
      9 C           1.1960    1.1460    0.0000 C.ar    1  LIG1        0.0197
     10 O           3.8290    1.6040    0.0000 O.3     1  LIG1       -0.4714
     11 C           4.6670    1.0710    0.0000 C.3     1  LIG1        0.2525
     12 O          -0.5830    1.2130    0.0000 O.2     1  LIG1       -0.2679
     13 C          -1.4420   -1.1880    0.0000 C.ar    1  LIG1        0.1269
     14 O          -2.2380   -1.6380    0.0000 O.2     1  LIG1       -0.4622
     15 C          -3.0540   -1.1880    0.0000 C.ar    1  LIG1        0.1185
     16 C          -3.0540   -0.2710    0.0000 C.ar    1  LIG1        0.0152
     17 C          -3.8630    0.1920    0.0000 C.3     1  LIG1        0.0294
     18 C          -4.6710   -0.2710    0.0000 C.3     1  LIG1        0.0052
     19 C          -4.6710   -1.1880    0.0000 C.3     1  LIG1        0.0083
     20 C          -3.8630   -1.6380    0.0000 C.3     1  LIG1        0.0642
     21 C          -0.5750   -1.6670    0.0000 C.3     1  LIG1        0.0726
@<TRIPOS>BOND
     1     1     2    1
     2     1    13   ar
     3     1    16   ar
     4     2     3   am
     5     2    12    2
     6     3     4    1
     7     4     5   ar
     8     4     9   ar
     9     5     6   ar
    10     6     7   ar
    11     7     8   ar
    12     7    10    1
    13     8     9   ar
    14    10    11    1
    15    13    14   ar
    16    13    21    1
    17    14    15   ar
    18    15    16   ar
    19    15    20    1
    20    16    17    1
    21    17    18    1
    22    18    19    1
    23    19    20    1
