@<TRIPOS>MOLECULE
29844_ChemDiv_3461-2994
 34 37 0 0 0
SMALL
GASTEIGER
Energy = 0

@<TRIPOS>ATOM
      1 S          -1.9000   -0.7500    0.0000 S.O2    1  LIG1        0.0825
      2 N          -1.0380   -0.2830    0.0000 N.am    1  LIG1       -0.1341
      3 C          -1.0380    0.7000    0.0000 C.2     1  LIG1        0.2715
      4 O          -0.1790    1.2210    0.0000 O.2     1  LIG1       -0.2680
      5 C          -1.9000    1.2210    0.0000 C.ar    1  LIG1        0.0585
      6 C          -2.7630    0.7000    0.0000 C.ar    1  LIG1        0.0253
      7 C          -3.6210    1.2210    0.0000 C.ar    1  LIG1        0.0990
      8 N          -3.6210    2.2080    0.0000 N.ar    1  LIG1       -0.2423
      9 C          -2.7630    2.7460    0.0000 C.ar    1  LIG1        0.0990
     10 C          -1.9000    2.2080    0.0000 C.ar    1  LIG1        0.0253
     11 C          -0.1790   -0.8040    0.0000 C.ar    1  LIG1        0.0770
     12 C           0.6830   -0.2830    0.0000 C.ar    1  LIG1        0.0200
     13 C           1.5460   -0.8040    0.0000 C.ar    1  LIG1        0.0447
     14 C           2.4880   -0.4830    0.0000 C.ar    1  LIG1        0.1088
     15 C           3.0540   -1.3170    0.0000 C.ar    1  LIG1        0.1295
     16 O           2.4880   -2.0960    0.0000 O.2     1  LIG1       -0.4575
     17 C           1.5460   -1.7920    0.0000 C.ar    1  LIG1        0.1451
     18 C           0.6830   -2.3130    0.0000 C.ar    1  LIG1        0.0388
     19 C          -0.1790   -1.7920    0.0000 C.ar    1  LIG1        0.0198
     20 C           4.0920   -1.3170    0.0000 C.3     1  LIG1        0.0727
     21 C           2.8000    0.4880    0.0000 C.2     1  LIG1        0.3440
     22 O           2.1540    1.2210    0.0000 O.2     1  LIG1       -0.2448
     23 O           3.7790    0.6580    0.0000 O.3     1  LIG1       -0.4454
     24 C           4.4250   -0.1040    0.0000 C.3     1  LIG1        0.2089
     25 C           5.4210    0.0540    0.0000 C.3     1  LIG1        0.0513
     26 C          -2.7960   -1.2380    0.0000 C.ar    1  LIG1        0.1259
     27 C          -3.6580   -0.7170    0.0000 C.ar    1  LIG1        0.0207
     28 C          -4.5210   -1.2380    0.0000 C.ar    1  LIG1        0.0081
     29 C          -4.5210   -2.2210    0.0000 C.ar    1  LIG1        0.0346
     30 C          -3.6580   -2.6880    0.0000 C.ar    1  LIG1        0.0081
     31 C          -2.7960   -2.2210    0.0000 C.ar    1  LIG1        0.0207
     32 BR         -5.4250   -2.7420    0.0000 Br      1  LIG1       -0.0490
     33 O          -1.4250   -1.6130    0.0000 O.2     1  LIG1       -0.1493
     34 O          -2.3670    0.1460    0.0000 O.2     1  LIG1       -0.1493
@<TRIPOS>BOND
     1     1     2    1
     2     1    26    1
     3     1    33    2
     4     1    34    2
     5     2     3   am
     6     2    11    1
     7     3     4    2
     8     3     5    1
     9     5     6   ar
    10     5    10   ar
    11     6     7   ar
    12     7     8   ar
    13     8     9   ar
    14     9    10   ar
    15    11    12   ar
    16    11    19   ar
    17    12    13   ar
    18    13    14   ar
    19    13    17   ar
    20    14    15   ar
    21    14    21    1
    22    15    16   ar
    23    15    20    1
    24    16    17   ar
    25    17    18   ar
    26    18    19   ar
    27    21    22    2
    28    21    23    1
    29    23    24    1
    30    24    25    1
    31    26    27   ar
    32    26    31   ar
    33    27    28   ar
    34    28    29   ar
    35    29    30   ar
    36    29    32    1
    37    30    31   ar
