@<TRIPOS>MOLECULE
29843_ChemDiv_8011-5686
 21 22 0 0 0
SMALL
GASTEIGER
Energy = 0

@<TRIPOS>ATOM
      1 C1         -1.2420   -0.8460    0.0000 C.ar    1  <1>         0.0839
      2 C2         -0.6420   -0.0250    0.0000 C.2     1  <1>         0.2675
      3 N1          0.3670   -0.1500    0.0000 N.am    1  <1>        -0.1976
      4 C3          0.9750    0.6670    0.0000 C.3     1  <1>         0.1325
      5 C4          0.5750    1.5790    0.0000 C.2     1  <1>         0.0702
      6 O1         -0.4250    1.7040    0.0000 O.co2   1  <1>        -0.5474
      7 O2          1.1710    2.3830    0.0000 O.co2   1  <1>        -0.5474
      8 C5          1.9500    0.5380    0.0000 C.3     1  <1>         0.0390
      9 C6          2.5540    1.3290    0.0000 C.3     1  <1>         0.0597
     10 S1          3.5540    1.2170    0.0000 S.3     1  <1>        -0.1393
     11 C7          4.1540    2.0130    0.0000 C.3     1  <1>         0.0692
     12 O3         -1.0500    0.9000    0.0000 O.2     1  <1>        -0.2683
     13 C8         -0.9250   -1.7790    0.0000 C.ar    1  <1>         0.1268
     14 O4         -1.7250   -2.3790    0.0000 O.2     1  <1>        -0.4622
     15 C9         -2.5420   -1.7920    0.0000 C.ar    1  <1>         0.1185
     16 C10        -2.2250   -0.8460    0.0000 C.ar    1  <1>         0.0152
     17 C11        -2.8920   -0.0960    0.0000 C.3     1  <1>         0.0294
     18 C12        -3.8750   -0.3170    0.0000 C.3     1  <1>         0.0052
     19 C13        -4.1580   -1.2630    0.0000 C.3     1  <1>         0.0083
     20 C14        -3.5130   -2.0000    0.0000 C.3     1  <1>         0.0642
     21 C15         0.0380   -2.0670    0.0000 C.3     1  <1>         0.0726
@<TRIPOS>BOND
     1     1     2    1
     2     1    13   ar
     3     1    16   ar
     4     2     3   am
     5     2    12    2
     6     3     4    1
     7     4     5    1
     8     4     8    1
     9     5     6   ar
    10     5     7   ar
    11     8     9    1
    12     9    10    1
    13    10    11    1
    14    13    14   ar
    15    13    21    1
    16    14    15   ar
    17    15    16   ar
    18    15    20    1
    19    16    17    1
    20    17    18    1
    21    18    19    1
    22    19    20    1
