@<TRIPOS>MOLECULE
29847_ChemDiv_8012-5061
 28 30 0 0 0
SMALL
GASTEIGER
Energy = 0

@<TRIPOS>ATOM
      1 C          -1.4750   -0.5960    0.0000 C.ar    1  LIG1        0.0839
      2 C          -1.1710   -1.5380    0.0000 C.ar    1  LIG1        0.1268
      3 O          -1.9920   -2.1540    0.0000 O.2     1  LIG1       -0.4622
      4 C          -2.8000   -1.5380    0.0000 C.ar    1  LIG1        0.1185
      5 C          -2.4790   -0.5960    0.0000 C.ar    1  LIG1        0.0152
      6 C          -3.1330    0.1710    0.0000 C.3     1  LIG1        0.0294
      7 C          -4.1250   -0.0290    0.0000 C.3     1  LIG1        0.0052
      8 C          -4.4670   -0.9790    0.0000 C.3     1  LIG1        0.0083
      9 C          -3.7880   -1.7330    0.0000 C.3     1  LIG1        0.0642
     10 C          -0.2040   -1.8380    0.0000 C.3     1  LIG1        0.0726
     11 C          -0.8630    0.1920    0.0000 C.2     1  LIG1        0.2676
     12 N           0.1130    0.0960    0.0000 N.am    1  LIG1       -0.1933
     13 C           0.5170   -0.7960    0.0000 C.3     1  LIG1        0.1796
     14 C           1.5080   -0.8920    0.0000 C.ar    1  LIG1        0.1504
     15 C           2.1830   -0.1540    0.0000 C.ar    1  LIG1        0.1103
     16 C           3.1000   -0.5710    0.0000 C.ar    1  LIG1        0.0421
     17 C           2.9960   -1.5580    0.0000 C.ar    1  LIG1        0.1218
     18 O           2.0040   -1.7630    0.0000 O.2     1  LIG1       -0.4601
     19 C           3.7330   -2.2170    0.0000 C.3     1  LIG1        0.0512
     20 C           4.4630   -2.8710    0.0000 C.3     1  LIG1        0.0075
     21 C           4.3960   -1.4670    0.0000 C.3     1  LIG1        0.0075
     22 C           3.0710   -2.9630    0.0000 C.3     1  LIG1        0.0075
     23 C           1.9830    0.8170    0.0000 C.2     1  LIG1        0.3440
     24 O           1.0080    1.1290    0.0000 O.2     1  LIG1       -0.2448
     25 O           2.7630    1.3920    0.0000 O.3     1  LIG1       -0.4454
     26 C           2.6580    2.3830    0.0000 C.3     1  LIG1        0.2089
     27 C           3.4460    2.9630    0.0000 C.3     1  LIG1        0.0513
     28 O          -1.2790    1.1170    0.0000 O.2     1  LIG1       -0.2683
@<TRIPOS>BOND
     1     1     2   ar
     2     1     5   ar
     3     1    11    1
     4     2     3   ar
     5     2    10    1
     6     3     4   ar
     7     4     5   ar
     8     4     9    1
     9     5     6    1
    10     6     7    1
    11     7     8    1
    12     8     9    1
    13    11    12   am
    14    11    28    2
    15    12    13    1
    16    13    14    1
    17    14    15   ar
    18    14    18   ar
    19    15    16   ar
    20    15    23    1
    21    16    17   ar
    22    17    18   ar
    23    17    19    1
    24    19    20    1
    25    19    21    1
    26    19    22    1
    27    23    24    2
    28    23    25    1
    29    25    26    1
    30    26    27    1
