@<TRIPOS>MOLECULE
29845_ChemDiv_8011-5687
 19 20 0 0 0
SMALL
GASTEIGER
Energy = 0

@<TRIPOS>ATOM
      1 C          -1.0330    0.2540    0.0000 C.ar    1  LIG1        0.0839
      2 C          -0.7330   -0.6920    0.0000 C.ar    1  LIG1        0.1268
      3 O          -1.5250   -1.2710    0.0000 O.2     1  LIG1       -0.4622
      4 C          -2.3420   -0.6920    0.0000 C.ar    1  LIG1        0.1185
      5 C          -2.0330    0.2540    0.0000 C.ar    1  LIG1        0.0152
      6 C          -2.7000    1.0040    0.0000 C.3     1  LIG1        0.0294
      7 C          -3.6630    0.7790    0.0000 C.3     1  LIG1        0.0052
      8 C          -3.9710   -0.1670    0.0000 C.3     1  LIG1        0.0083
      9 C          -3.3080   -0.9170    0.0000 C.3     1  LIG1        0.0642
     10 C           0.2130   -1.0170    0.0000 C.3     1  LIG1        0.0726
     11 C          -0.4250    1.0880    0.0000 C.2     1  LIG1        0.2672
     12 O          -0.8380    2.0000    0.0000 O.2     1  LIG1       -0.2683
     13 N           0.5540    0.9670    0.0000 N.am    1  LIG1       -0.2016
     14 C           0.9790    0.0540    0.0000 C.3     1  LIG1        0.1159
     15 C           1.9630   -0.0460    0.0000 C.3     1  LIG1        0.0293
     16 C           2.3750   -0.9790    0.0000 C.3     1  LIG1        0.0435
     17 C           3.3750   -1.0830    0.0000 C.2     1  LIG1        0.0504
     18 O           3.9670   -0.2710    0.0000 O.co2   1  LIG1       -0.5492
     19 O           3.7750   -1.9960    0.0000 O.co2   1  LIG1       -0.5492
@<TRIPOS>BOND
     1     1     2   ar
     2     1     5   ar
     3     1    11    1
     4     2     3   ar
     5     2    10    1
     6     3     4   ar
     7     4     5   ar
     8     4     9    1
     9     5     6    1
    10     6     7    1
    11     7     8    1
    12     8     9    1
    13    11    12    2
    14    11    13   am
    15    13    14    1
    16    14    15    1
    17    15    16    1
    18    16    17    1
    19    17    18   ar
    20    17    19   ar
