@<TRIPOS>MOLECULE
29853_ChemDiv_8016-5450
 18 20 0 0 0
SMALL
GASTEIGER
Energy = 0

@<TRIPOS>ATOM
      1 C          -1.1460   -0.3000    0.0000 C.ar    1  LIG1        0.0252
      2 C          -0.1960    0.0000    0.0000 C.ar    1  LIG1        0.0194
      3 C           0.3960   -0.8000    0.0000 C.ar    1  LIG1        0.2157
      4 O          -0.1960   -1.6040    0.0000 O.2     1  LIG1       -0.4518
      5 C          -1.1460   -1.3040    0.0000 C.ar    1  LIG1        0.1203
      6 C          -2.0080   -1.8040    0.0000 C.3     1  LIG1        0.0643
      7 C          -2.8710   -1.3040    0.0000 C.3     1  LIG1        0.0100
      8 C          -2.8710   -0.3000    0.0000 C.3     1  LIG1        0.0248
      9 C          -2.0080    0.2080    0.0000 C.3     1  LIG1        0.0990
     10 S          -1.3040    0.9210    0.0000 S.3     1  LIG1       -0.1266
     11 C          -1.7630    1.8080    0.0000 C.3     1  LIG1        0.0703
     12 C          -2.7500    1.6580    0.0000 C.3     1  LIG1        0.0703
     13 S          -2.9000    0.6580    0.0000 S.3     1  LIG1       -0.1266
     14 C           1.3960   -0.8130    0.0000 C.2     1  LIG1        0.3761
     15 O           1.8920   -1.6790    0.0000 O.2     1  LIG1       -0.2414
     16 O           1.8960    0.0580    0.0000 O.3     1  LIG1       -0.4392
     17 C           2.8960    0.0580    0.0000 C.3     1  LIG1        0.2561
     18 C           0.1210    0.9580    0.0000 C.3     1  LIG1        0.0343
@<TRIPOS>BOND
     1     1     2   ar
     2     1     5   ar
     3     1     9    1
     4     2     3   ar
     5     2    18    1
     6     3     4   ar
     7     3    14    1
     8     4     5   ar
     9     5     6    1
    10     6     7    1
    11     7     8    1
    12     8     9    1
    13     9    10    1
    14     9    13    1
    15    10    11    1
    16    11    12    1
    17    12    13    1
    18    14    15    2
    19    14    16    1
    20    16    17    1
