@<TRIPOS>MOLECULE
29850_ChemDiv_4456-3467
 30 33 0 0 0
SMALL
GASTEIGER
Energy = 0

@<TRIPOS>ATOM
      1 C           1.7420    0.0000    0.0000 C.ar    1  LIG1        0.1129
      2 C           2.2880   -0.7920    0.0000 C.ar    1  LIG1        0.1515
      3 O           1.7420   -1.5880    0.0000 O.2     1  LIG1       -0.4533
      4 C           0.8130   -1.3080    0.0000 C.ar    1  LIG1        0.1454
      5 C           0.8130   -0.3000    0.0000 C.ar    1  LIG1        0.0420
      6 C          -0.0670    0.2170    0.0000 C.ar    1  LIG1       -0.0205
      7 C          -0.9170   -0.3000    0.0000 C.ar    1  LIG1       -0.1121
      8 N          -1.8170    0.2460    0.0000 N.pl3   1  LIG1       -0.5358
      9 S          -2.6790   -0.2380    0.0000 S.O2    1  LIG1       -0.0578
     10 O          -2.1630   -1.1380    0.0000 O.2     1  LIG1       -0.1842
     11 O          -3.1630    0.6290    0.0000 O.2     1  LIG1       -0.1842
     12 C          -3.5460   -0.7540    0.0000 C.ar    1  LIG1        0.0893
     13 C          -3.5460   -1.7630    0.0000 C.ar    1  LIG1        0.0169
     14 C          -4.4080   -2.2460    0.0000 C.ar    1  LIG1        0.0013
     15 C          -5.2710   -1.7250    0.0000 C.ar    1  LIG1        0.0001
     16 C          -5.2710   -0.7250    0.0000 C.ar    1  LIG1        0.0013
     17 C          -4.4080   -0.2380    0.0000 C.ar    1  LIG1        0.0169
     18 C          -0.9170   -1.3080    0.0000 C.ar    1  LIG1       -0.0207
     19 C          -0.0670   -1.7920    0.0000 C.ar    1  LIG1        0.0356
     20 C           3.2580   -0.6170    0.0000 C.ar    1  LIG1        0.0348
     21 C           3.6040    0.3130    0.0000 C.ar    1  LIG1        0.0030
     22 C           4.5790    0.4830    0.0000 C.ar    1  LIG1        0.0001
     23 C           5.2670   -0.2710    0.0000 C.ar    1  LIG1        0.0000
     24 C           4.8790   -1.2080    0.0000 C.ar    1  LIG1        0.0001
     25 C           3.9210   -1.3790    0.0000 C.ar    1  LIG1        0.0030
     26 C           2.1170    0.9750    0.0000 C.2     1  LIG1        0.3443
     27 O           1.4670    1.7290    0.0000 O.2     1  LIG1       -0.2448
     28 O           3.0880    1.1460    0.0000 O.3     1  LIG1       -0.4454
     29 C           3.4330    2.0750    0.0000 C.3     1  LIG1        0.2089
     30 C           4.4420    2.2500    0.0000 C.3     1  LIG1        0.0513
@<TRIPOS>BOND
     1     1     2   ar
     2     1     5   ar
     3     1    26    1
     4     2     3   ar
     5     2    20    1
     6     3     4   ar
     7     4     5   ar
     8     4    19   ar
     9     5     6   ar
    10     6     7   ar
    11     7     8    1
    12     7    18   ar
    13     8     9    1
    14     9    10    2
    15     9    11    2
    16     9    12    1
    17    12    13   ar
    18    12    17   ar
    19    13    14   ar
    20    14    15   ar
    21    15    16   ar
    22    16    17   ar
    23    18    19   ar
    24    20    21   ar
    25    20    25   ar
    26    21    22   ar
    27    22    23   ar
    28    23    24   ar
    29    24    25   ar
    30    26    27    2
    31    26    28    1
    32    28    29    1
    33    29    30    1
