@<TRIPOS>MOLECULE
29856_ChemDiv_4456-3474
 31 34 0 0 0
SMALL
GASTEIGER
Energy = 0

@<TRIPOS>ATOM
      1 C           0.4790   -1.6960    0.0000 C.ar    1  LIG1        0.1129
      2 C           1.0380   -2.5500    0.0000 C.ar    1  LIG1        0.1515
      3 O           0.4790   -3.3290    0.0000 O.2     1  LIG1       -0.4533
      4 C          -0.4460   -3.0290    0.0000 C.ar    1  LIG1        0.1454
      5 C          -0.4460   -2.0330    0.0000 C.ar    1  LIG1        0.0420
      6 C          -1.2880   -1.5080    0.0000 C.ar    1  LIG1       -0.0205
      7 C          -2.1830   -1.9960    0.0000 C.ar    1  LIG1       -0.1121
      8 N          -3.0380   -1.4790    0.0000 N.pl3   1  LIG1       -0.5358
      9 S          -2.9920   -0.4710    0.0000 S.O2    1  LIG1       -0.0578
     10 C          -2.9920    0.5250    0.0000 C.ar    1  LIG1        0.0894
     11 C          -3.8500    1.0130    0.0000 C.ar    1  LIG1        0.0192
     12 C          -3.8960    1.9790    0.0000 C.ar    1  LIG1        0.0309
     13 C          -2.9920    2.5250    0.0000 C.ar    1  LIG1        0.1402
     14 C          -2.1420    2.0080    0.0000 C.ar    1  LIG1        0.0309
     15 C          -2.1420    1.0130    0.0000 C.ar    1  LIG1        0.0192
     16 F          -2.9920    3.5210    0.0000 F       1  LIG1       -0.2042
     17 O          -1.9960   -0.5170    0.0000 O.2     1  LIG1       -0.1842
     18 O          -4.0040   -0.4710    0.0000 O.2     1  LIG1       -0.1842
     19 C          -2.1830   -3.0290    0.0000 C.ar    1  LIG1       -0.0207
     20 C          -1.2880   -3.5170    0.0000 C.ar    1  LIG1        0.0356
     21 C           2.0080   -2.3670    0.0000 C.ar    1  LIG1        0.0348
     22 C           2.3330   -1.3960    0.0000 C.ar    1  LIG1        0.0030
     23 C           3.3420   -1.2080    0.0000 C.ar    1  LIG1        0.0001
     24 C           4.0000   -1.9960    0.0000 C.ar    1  LIG1        0.0000
     25 C           3.6290   -2.9210    0.0000 C.ar    1  LIG1        0.0001
     26 C           2.6710   -3.1080    0.0000 C.ar    1  LIG1        0.0030
     27 C           0.8500   -0.7380    0.0000 C.2     1  LIG1        0.3443
     28 O           1.8210   -0.5540    0.0000 O.2     1  LIG1       -0.2448
     29 O           0.1960    0.0420    0.0000 O.3     1  LIG1       -0.4454
     30 C           0.5250    0.9670    0.0000 C.3     1  LIG1        0.2089
     31 C          -0.1460    1.7080    0.0000 C.3     1  LIG1        0.0513
@<TRIPOS>BOND
     1     1     2   ar
     2     1     5   ar
     3     1    27    1
     4     2     3   ar
     5     2    21    1
     6     3     4   ar
     7     4     5   ar
     8     4    20   ar
     9     5     6   ar
    10     6     7   ar
    11     7     8    1
    12     7    19   ar
    13     8     9    1
    14     9    10    1
    15     9    17    2
    16     9    18    2
    17    10    11   ar
    18    10    15   ar
    19    11    12   ar
    20    12    13   ar
    21    13    14   ar
    22    13    16    1
    23    14    15   ar
    24    19    20   ar
    25    21    22   ar
    26    21    26   ar
    27    22    23   ar
    28    23    24   ar
    29    24    25   ar
    30    25    26   ar
    31    27    28    2
    32    27    29    1
    33    29    30    1
    34    30    31    1
