@<TRIPOS>MOLECULE
29851_ChemDiv_8013-2510
 20 21 0 0 0
SMALL
GASTEIGER
Energy = 0

@<TRIPOS>ATOM
      1 C          -1.3500    0.2330    0.0000 C.ar    1  LIG1        0.1035
      2 C          -0.4750    0.7420    0.0000 C.ar    1  LIG1        0.1996
      3 C           0.4210    0.2330    0.0000 C.ar    1  LIG1        0.0472
      4 C           0.4210   -0.7580    0.0000 C.ar    1  LIG1        0.1213
      5 O          -0.4750   -1.2580    0.0000 O.2     1  LIG1       -0.4620
      6 C          -1.3500   -0.7580    0.0000 C.ar    1  LIG1        0.1281
      7 C          -2.2330   -1.2580    0.0000 C.3     1  LIG1        0.0651
      8 C          -3.1080   -0.7580    0.0000 C.3     1  LIG1        0.0144
      9 C          -3.1080    0.2330    0.0000 C.3     1  LIG1        0.0698
     10 C          -2.2330    0.7420    0.0000 C.2     1  LIG1        0.1788
     11 O          -2.2330    1.7330    0.0000 O.2     1  LIG1       -0.2911
     12 C          -3.9250   -0.2630    0.0000 C.3     1  LIG1        0.0009
     13 C          -3.1080   -1.7290    0.0000 C.3     1  LIG1        0.0009
     14 C           1.2880   -1.2500    0.0000 C.3     1  LIG1        0.0643
     15 C           2.1460   -0.7540    0.0000 C.3     1  LIG1        0.0079
     16 C           3.0500   -1.2380    0.0000 C.3     1  LIG1        0.0005
     17 C           3.9210   -0.7710    0.0000 C.3     1  LIG1        0.0000
     18 C           1.2880    0.7040    0.0000 C.3     1  LIG1        0.0324
     19 C           2.1330    0.1830    0.0000 C.3     1  LIG1        0.0052
     20 O          -0.4750    1.7330    0.0000 O.2     1  LIG1       -0.2866
@<TRIPOS>BOND
     1     1     2   ar
     2     1     6   ar
     3     1    10    1
     4     2     3   ar
     5     2    20    2
     6     3     4   ar
     7     3    18    1
     8     4     5   ar
     9     4    14    1
    10     5     6   ar
    11     6     7    1
    12     7     8    1
    13     8     9    1
    14     8    12    1
    15     8    13    1
    16     9    10    1
    17    10    11    2
    18    14    15    1
    19    15    16    1
    20    16    17    1
    21    18    19    1
