@<TRIPOS>MOLECULE
29854_ChemDiv_4456-3469
 33 36 0 0 0
SMALL
GASTEIGER
Energy = 0

@<TRIPOS>ATOM
      1 C           0.5080   -2.4380    0.0000 C.ar    1  LIG1        0.1129
      2 C           1.0540   -3.2790    0.0000 C.ar    1  LIG1        0.1515
      3 O           0.5080   -4.0460    0.0000 O.2     1  LIG1       -0.4533
      4 C          -0.4380   -3.7500    0.0000 C.ar    1  LIG1        0.1454
      5 C          -0.4380   -2.7580    0.0000 C.ar    1  LIG1        0.0420
      6 C          -1.3080   -2.2580    0.0000 C.ar    1  LIG1       -0.0205
      7 C          -2.1880   -2.7580    0.0000 C.ar    1  LIG1       -0.1121
      8 N          -3.0540   -2.2250    0.0000 N.pl3   1  LIG1       -0.5358
      9 S          -3.0540   -1.2330    0.0000 S.O2    1  LIG1       -0.0578
     10 C          -3.0540   -0.2250    0.0000 C.ar    1  LIG1        0.0895
     11 C          -3.9380    0.2540    0.0000 C.ar    1  LIG1        0.0200
     12 C          -3.9380    1.2290    0.0000 C.ar    1  LIG1        0.0382
     13 C          -3.0540    1.7460    0.0000 C.ar    1  LIG1        0.1386
     14 C          -2.1880    1.2670    0.0000 C.ar    1  LIG1        0.0382
     15 C          -2.1880    0.2540    0.0000 C.ar    1  LIG1        0.0200
     16 O          -3.0170    2.7670    0.0000 O.3     1  LIG1       -0.4755
     17 C          -2.1880    3.2460    0.0000 C.3     1  LIG1        0.2055
     18 C          -2.1880    4.2580    0.0000 C.3     1  LIG1        0.0512
     19 O          -2.0380   -1.2330    0.0000 O.2     1  LIG1       -0.1842
     20 O          -4.0460   -1.2330    0.0000 O.2     1  LIG1       -0.1842
     21 C          -2.1880   -3.7500    0.0000 C.ar    1  LIG1       -0.0207
     22 C          -1.3080   -4.2580    0.0000 C.ar    1  LIG1        0.0356
     23 C           2.0420   -3.1380    0.0000 C.ar    1  LIG1        0.0348
     24 C           2.4420   -2.1880    0.0000 C.ar    1  LIG1        0.0030
     25 C           3.4210   -2.0750    0.0000 C.ar    1  LIG1        0.0001
     26 C           4.0420   -2.8710    0.0000 C.ar    1  LIG1        0.0000
     27 C           3.6330   -3.7790    0.0000 C.ar    1  LIG1        0.0001
     28 C           2.6540   -3.9330    0.0000 C.ar    1  LIG1        0.0030
     29 C           0.8380   -1.5000    0.0000 C.2     1  LIG1        0.3443
     30 O           1.8130   -1.3170    0.0000 O.2     1  LIG1       -0.2448
     31 O           0.1750   -0.7330    0.0000 O.3     1  LIG1       -0.4454
     32 C           0.5080    0.2210    0.0000 C.3     1  LIG1        0.2089
     33 C          -0.1420    0.9790    0.0000 C.3     1  LIG1        0.0513
@<TRIPOS>BOND
     1     1     2   ar
     2     1     5   ar
     3     1    29    1
     4     2     3   ar
     5     2    23    1
     6     3     4   ar
     7     4     5   ar
     8     4    22   ar
     9     5     6   ar
    10     6     7   ar
    11     7     8    1
    12     7    21   ar
    13     8     9    1
    14     9    10    1
    15     9    19    2
    16     9    20    2
    17    10    11   ar
    18    10    15   ar
    19    11    12   ar
    20    12    13   ar
    21    13    14   ar
    22    13    16    1
    23    14    15   ar
    24    16    17    1
    25    17    18    1
    26    21    22   ar
    27    23    24   ar
    28    23    28   ar
    29    24    25   ar
    30    25    26   ar
    31    26    27   ar
    32    27    28   ar
    33    29    30    2
    34    29    31    1
    35    31    32    1
    36    32    33    1
