@<TRIPOS>MOLECULE
29852_ChemDiv_4456-3468
 32 35 0 0 0
SMALL
GASTEIGER
Energy = 0

@<TRIPOS>ATOM
      1 C           0.4580   -1.9420    0.0000 C.ar    1  LIG1        0.1129
      2 C           1.0290   -2.7670    0.0000 C.ar    1  LIG1        0.1515
      3 O           0.4580   -3.5830    0.0000 O.2     1  LIG1       -0.4533
      4 C          -0.4630   -3.2580    0.0000 C.ar    1  LIG1        0.1454
      5 C          -0.4630   -2.2710    0.0000 C.ar    1  LIG1        0.0420
      6 C          -1.3250   -1.7630    0.0000 C.ar    1  LIG1       -0.0205
      7 C          -2.1790   -2.2710    0.0000 C.ar    1  LIG1       -0.1121
      8 N          -3.0420   -1.6960    0.0000 N.pl3   1  LIG1       -0.5358
      9 S          -3.0420   -0.6920    0.0000 S.O2    1  LIG1       -0.0578
     10 C          -3.0000    0.3130    0.0000 C.ar    1  LIG1        0.0895
     11 C          -3.8670    0.7630    0.0000 C.ar    1  LIG1        0.0200
     12 C          -3.8670    1.7670    0.0000 C.ar    1  LIG1        0.0382
     13 C          -3.0000    2.2750    0.0000 C.ar    1  LIG1        0.1388
     14 C          -2.1500    1.7670    0.0000 C.ar    1  LIG1        0.0382
     15 C          -2.1500    0.8000    0.0000 C.ar    1  LIG1        0.0200
     16 O          -3.0000    3.2630    0.0000 O.3     1  LIG1       -0.4714
     17 C          -2.1500    3.7670    0.0000 C.3     1  LIG1        0.2525
     18 O          -2.0380   -0.7290    0.0000 O.2     1  LIG1       -0.1842
     19 O          -4.0330   -0.6920    0.0000 O.2     1  LIG1       -0.1842
     20 C          -2.1790   -3.3040    0.0000 C.ar    1  LIG1       -0.0207
     21 C          -1.3250   -3.7630    0.0000 C.ar    1  LIG1        0.0356
     22 C           2.0330   -2.6250    0.0000 C.ar    1  LIG1        0.0348
     23 C           2.3920   -1.6540    0.0000 C.ar    1  LIG1        0.0030
     24 C           3.3790   -1.5170    0.0000 C.ar    1  LIG1        0.0001
     25 C           4.0290   -2.3380    0.0000 C.ar    1  LIG1        0.0000
     26 C           3.6420   -3.2580    0.0000 C.ar    1  LIG1        0.0001
     27 C           2.6380   -3.4080    0.0000 C.ar    1  LIG1        0.0030
     28 C           0.8170   -0.9830    0.0000 C.2     1  LIG1        0.3443
     29 O           1.7750   -0.8040    0.0000 O.2     1  LIG1       -0.2448
     30 O           0.1330   -0.2250    0.0000 O.3     1  LIG1       -0.4454
     31 C           0.4960    0.7330    0.0000 C.3     1  LIG1        0.2089
     32 C          -0.1420    1.4790    0.0000 C.3     1  LIG1        0.0513
@<TRIPOS>BOND
     1     1     2   ar
     2     1     5   ar
     3     1    28    1
     4     2     3   ar
     5     2    22    1
     6     3     4   ar
     7     4     5   ar
     8     4    21   ar
     9     5     6   ar
    10     6     7   ar
    11     7     8    1
    12     7    20   ar
    13     8     9    1
    14     9    10    1
    15     9    18    2
    16     9    19    2
    17    10    11   ar
    18    10    15   ar
    19    11    12   ar
    20    12    13   ar
    21    13    14   ar
    22    13    16    1
    23    14    15   ar
    24    16    17    1
    25    20    21   ar
    26    22    23   ar
    27    22    27   ar
    28    23    24   ar
    29    24    25   ar
    30    25    26   ar
    31    26    27   ar
    32    28    29    2
    33    28    30    1
    34    30    31    1
    35    31    32    1
