@<TRIPOS>MOLECULE
29861_ChemDiv_8011-1862
 19 20 0 0 0
SMALL
GASTEIGER
Energy = 0

@<TRIPOS>ATOM
      1 C           0.2460    0.4210    0.0000 C.3     1  LIG1        0.1427
      2 C           0.8290   -0.4290    0.0000 C.2     1  LIG1        0.0916
      3 N           1.7790   -0.1210    0.0000 N.2     1  LIG1       -0.2715
      4 C           1.8130    0.9170    0.0000 C.3     1  LIG1        0.0862
      5 C           0.8500    1.1880    0.0000 C.3     1  LIG1        0.0429
      6 C           2.2170    1.8040    0.0000 C.3     1  LIG1        0.0244
      7 C           2.7710    0.7130    0.0000 C.3     1  LIG1        0.0244
      8 S           0.5420   -1.3670    0.0000 S.3     1  LIG1       -0.0979
      9 C           1.2290   -2.1330    0.0000 C.3     1  LIG1        0.0754
     10 C          -0.2710    1.2960    0.0000 C.2     1  LIG1        0.1311
     11 C          -1.2880    1.2960    0.0000 C.2     1  LIG1        0.0752
     12 C          -1.7790    0.4170    0.0000 C.2     1  LIG1        0.2012
     13 C          -1.2540   -0.4460    0.0000 C.2     1  LIG1        0.0752
     14 C          -0.2710   -0.4460    0.0000 C.2     1  LIG1        0.1311
     15 O           0.1920   -1.3250    0.0000 O.2     1  LIG1       -0.4748
     16 C          -0.3250   -2.1580    0.0000 C.3     1  LIG1        0.2520
     17 O          -2.7750    0.4040    0.0000 O.2     1  LIG1       -0.2864
     18 O           0.2170    2.1630    0.0000 O.2     1  LIG1       -0.4748
     19 C           1.1920    2.1630    0.0000 C.3     1  LIG1        0.2520
@<TRIPOS>BOND
     1     1     2    1
     2     1     5    1
     3     1    10    1
     4     1    14    1
     5     2     3    2
     6     2     8    1
     7     3     4    1
     8     4     5    1
     9     4     6    1
    10     4     7    1
    11     8     9    1
    12    10    11    2
    13    10    18    1
    14    11    12    1
    15    12    13    1
    16    12    17    2
    17    13    14    2
    18    14    15    1
    19    15    16    1
    20    18    19    1
