@<TRIPOS>MOLECULE
29879_ChemDiv_3615-0090
 24 27 0 0 0
SMALL
GASTEIGER
Energy = 0

@<TRIPOS>ATOM
      1 N          -1.7130    0.9750    0.0000 N.ar    1  LIG1       -0.1862
      2 C          -0.7000    1.0290    0.0000 C.ar    1  LIG1        0.2150
      3 N          -0.4880    2.0210    0.0000 N.ar    1  LIG1       -0.1011
      4 N          -1.3380    2.5330    0.0000 N.ar    1  LIG1       -0.0218
      5 N          -2.0960    1.8790    0.0000 N.ar    1  LIG1       -0.0382
      6 S          -0.0630    0.3000    0.0000 S.3     1  LIG1       -0.0691
      7 C          -0.3880   -0.6500    0.0000 C.3     1  LIG1        0.0915
      8 C           0.5500   -0.9710    0.0000 C.ar    1  LIG1       -0.0077
      9 C           1.2960   -0.3210    0.0000 C.ar    1  LIG1        0.0368
     10 C           2.2290   -0.6500    0.0000 C.ar    1  LIG1        0.1761
     11 C           2.4290   -1.6250    0.0000 C.ar    1  LIG1        0.1764
     12 O           3.4290   -1.7500    0.0000 O.3     1  LIG1       -0.4346
     13 C           3.8250   -0.8500    0.0000 C.3     1  LIG1        0.4294
     14 O           3.1000   -0.1710    0.0000 O.3     1  LIG1       -0.4346
     15 C           1.6630   -2.2920    0.0000 C.ar    1  LIG1        0.0399
     16 C           0.7330   -1.9630    0.0000 C.ar    1  LIG1       -0.0001
     17 C          -2.2250    0.1130    0.0000 C.ar    1  LIG1        0.0874
     18 C          -1.7580   -0.7630    0.0000 C.ar    1  LIG1        0.0303
     19 C          -2.2790   -1.6250    0.0000 C.ar    1  LIG1        0.0552
     20 C          -3.2960   -1.5830    0.0000 C.ar    1  LIG1       -0.0112
     21 C          -3.7580   -0.6920    0.0000 C.ar    1  LIG1       -0.0019
     22 C          -3.2630    0.1580    0.0000 C.ar    1  LIG1        0.0190
     23 C          -3.8290   -2.4380    0.0000 C.3     1  LIG1        0.0319
     24 CL         -1.8000   -2.5290    0.0000 Cl      1  LIG1       -0.0825
@<TRIPOS>BOND
     1     1     2   ar
     2     1     5   ar
     3     1    17    1
     4     2     3   ar
     5     2     6    1
     6     3     4   ar
     7     4     5   ar
     8     6     7    1
     9     7     8    1
    10     8     9   ar
    11     8    16   ar
    12     9    10   ar
    13    10    11   ar
    14    10    14    1
    15    11    12    1
    16    11    15   ar
    17    12    13    1
    18    13    14    1
    19    15    16   ar
    20    17    18   ar
    21    17    22   ar
    22    18    19   ar
    23    19    20   ar
    24    19    24    1
    25    20    21   ar
    26    20    23    1
    27    21    22   ar
