@<TRIPOS>MOLECULE
29873_ChemDiv_8014-2480
 29 32 0 0 0
SMALL
GASTEIGER
Energy = 0

@<TRIPOS>ATOM
      1 C           0.5000    1.3000    0.0000 C.2     1  LIG1        0.2489
      2 N          -0.5000    1.3000    0.0000 N.am    1  LIG1       -0.2726
      3 C          -1.0000    2.1670    0.0000 C.3     1  LIG1        0.1151
      4 C          -2.0040    2.1670    0.0000 C.3     1  LIG1        0.1123
      5 N          -2.5000    1.3000    0.0000 N.pl3   1  LIG1       -0.3041
      6 C          -2.0040    0.4330    0.0000 C.3     1  LIG1        0.1123
      7 C          -1.0000    0.4330    0.0000 C.3     1  LIG1        0.1151
      8 C          -3.5000    1.3000    0.0000 C.ar    1  LIG1        0.0479
      9 C          -3.9960    2.1670    0.0000 C.ar    1  LIG1        0.0145
     10 C          -5.0000    2.1630    0.0000 C.ar    1  LIG1        0.0013
     11 C          -5.5040    1.3000    0.0000 C.ar    1  LIG1        0.0001
     12 C          -5.0000    0.4330    0.0000 C.ar    1  LIG1        0.0013
     13 C          -3.9960    0.4330    0.0000 C.ar    1  LIG1        0.0145
     14 C           0.9960    0.4330    0.0000 C.ar    1  LIG1        0.0531
     15 C           2.0000    0.4330    0.0000 C.ar    1  LIG1        0.0255
     16 C           2.4960    1.3000    0.0000 C.3     1  LIG1        0.2321
     17 O           3.5000    1.3000    0.0000 O.3     1  LIG1       -0.4706
     18 C           3.9960    0.4330    0.0000 C.ar    1  LIG1        0.1390
     19 C           4.9960    0.4330    0.0000 C.ar    1  LIG1        0.0366
     20 C           5.4960   -0.4330    0.0000 C.ar    1  LIG1       -0.0011
     21 C           4.9960   -1.2960    0.0000 C.ar    1  LIG1       -0.0217
     22 C           3.9960   -1.2960    0.0000 C.ar    1  LIG1       -0.0011
     23 C           3.5000   -0.4330    0.0000 C.ar    1  LIG1        0.0366
     24 C           5.5000   -2.1630    0.0000 C.3     1  LIG1        0.0310
     25 C           2.4960   -0.4330    0.0000 C.ar    1  LIG1       -0.0005
     26 C           2.0000   -1.3000    0.0000 C.ar    1  LIG1       -0.0002
     27 C           0.9960   -1.3000    0.0000 C.ar    1  LIG1        0.0001
     28 C           0.5000   -0.4330    0.0000 C.ar    1  LIG1        0.0043
     29 O           0.9960    2.1670    0.0000 O.2     1  LIG1       -0.2699
@<TRIPOS>BOND
     1     1     2   am
     2     1    14    1
     3     1    29    2
     4     2     3    1
     5     2     7    1
     6     3     4    1
     7     4     5    1
     8     5     6    1
     9     5     8    1
    10     6     7    1
    11     8     9   ar
    12     8    13   ar
    13     9    10   ar
    14    10    11   ar
    15    11    12   ar
    16    12    13   ar
    17    14    15   ar
    18    14    28   ar
    19    15    16    1
    20    15    25   ar
    21    16    17    1
    22    17    18    1
    23    18    19   ar
    24    18    23   ar
    25    19    20   ar
    26    20    21   ar
    27    21    22   ar
    28    21    24    1
    29    22    23   ar
    30    25    26   ar
    31    26    27   ar
    32    27    28   ar
