@<TRIPOS>MOLECULE
29878_ChemDiv_4086-0586
 29 32 0 0 0
SMALL
GASTEIGER
Energy = 0

@<TRIPOS>ATOM
      1 N           1.5960    0.6920    0.0000 N.ar    1  LIG1       -0.3218
      2 C           1.0920   -0.1790    0.0000 C.ar    1  LIG1        0.0762
      3 C           1.7420   -0.9250    0.0000 C.ar    1  LIG1        0.0194
      4 C           1.5330   -1.9040    0.0000 C.2     1  LIG1        0.0165
      5 C           0.5830   -2.2170    0.0000 C.2     1  LIG1        0.1233
      6 C          -0.1540   -1.5420    0.0000 C.2     1  LIG1        0.2745
      7 N          -1.1040   -1.8540    0.0000 N.am    1  LIG1       -0.1985
      8 C          -1.8460   -1.1790    0.0000 C.3     1  LIG1        0.1449
      9 C          -2.7880   -1.4920    0.0000 C.3     1  LIG1        0.1369
     10 O          -3.5960   -0.9040    0.0000 O.3     1  LIG1       -0.3544
     11 C          -4.4000   -1.4920    0.0000 C.3     1  LIG1        0.1422
     12 C          -4.0960   -2.4460    0.0000 C.3     1  LIG1        0.0346
     13 C          -3.0960   -2.4460    0.0000 C.3     1  LIG1        0.0340
     14 O           0.0500   -0.5750    0.0000 O.2     1  LIG1       -0.2676
     15 C           0.3710   -3.1830    0.0000 C.1     1  LIG1        0.1051
     16 N           0.1130   -4.1210    0.0000 N.1     1  LIG1       -0.1907
     17 C           2.6670   -0.5250    0.0000 C.ar    1  LIG1        0.0173
     18 C           2.5630    0.4790    0.0000 C.ar    1  LIG1        0.0602
     19 C           3.3880    1.0540    0.0000 C.ar    1  LIG1        0.0172
     20 C           4.2920    0.6460    0.0000 C.ar    1  LIG1        0.0015
     21 C           4.3960   -0.3580    0.0000 C.ar    1  LIG1        0.0001
     22 C           3.5710   -0.9380    0.0000 C.ar    1  LIG1        0.0015
     23 C           1.1880    1.5920    0.0000 C.3     1  LIG1        0.1328
     24 C           1.7750    2.4000    0.0000 C.ar    1  LIG1        0.0004
     25 C           1.3790    3.3210    0.0000 C.ar    1  LIG1       -0.0024
     26 C           1.9830    4.1210    0.0000 C.ar    1  LIG1       -0.0003
     27 C           2.9830    4.0170    0.0000 C.ar    1  LIG1       -0.0000
     28 C           3.3880    3.0830    0.0000 C.ar    1  LIG1       -0.0003
     29 C           2.7880    2.2880    0.0000 C.ar    1  LIG1       -0.0024
@<TRIPOS>BOND
     1     1     2   ar
     2     1    18   ar
     3     1    23    1
     4     2     3   ar
     5     3     4    1
     6     3    17   ar
     7     4     5    2
     8     5     6    1
     9     5    15    1
    10     6     7   am
    11     6    14    2
    12     7     8    1
    13     8     9    1
    14     9    10    1
    15     9    13    1
    16    10    11    1
    17    11    12    1
    18    12    13    1
    19    15    16    3
    20    17    18   ar
    21    17    22   ar
    22    18    19   ar
    23    19    20   ar
    24    20    21   ar
    25    21    22   ar
    26    23    24    1
    27    24    25   ar
    28    24    29   ar
    29    25    26   ar
    30    26    27   ar
    31    27    28   ar
    32    28    29   ar
