@<TRIPOS>MOLECULE
29888_ChemDiv_5408-1841
 32 36 0 0 0
SMALL
GASTEIGER
Energy = 0

@<TRIPOS>ATOM
      1 C           1.2080   -1.4920    0.0000 C.ar    1  LIG1        0.1429
      2 C           0.3960   -2.1080    0.0000 C.ar    1  LIG1        0.2953
      3 N           0.7580   -3.0580    0.0000 N.ar    1  LIG1       -0.2134
      4 N           1.7670   -3.0580    0.0000 N.ar    1  LIG1       -0.2646
      5 C           2.0580   -2.0500    0.0000 C.ar    1  LIG1        0.0745
      6 C           2.9670   -1.6880    0.0000 C.3     1  LIG1        0.0532
      7 C           2.3290   -3.8710    0.0000 C.3     1  LIG1        0.1518
      8 C           0.2210   -3.8710    0.0000 C.ar    1  LIG1        0.0841
      9 C           0.6460   -4.7580    0.0000 C.ar    1  LIG1        0.0192
     10 C           0.1210   -5.5540    0.0000 C.ar    1  LIG1        0.0015
     11 C          -0.8830   -5.4920    0.0000 C.ar    1  LIG1        0.0001
     12 C          -1.3000   -4.6000    0.0000 C.ar    1  LIG1        0.0015
     13 C          -0.7630   -3.8170    0.0000 C.ar    1  LIG1        0.0192
     14 O          -0.4750   -1.8380    0.0000 O.2     1  LIG1       -0.2637
     15 N           1.2420   -0.5420    0.0000 N.pl3   1  LIG1       -0.1856
     16 C           0.3170   -0.0040    0.0000 C.ar    1  LIG1        0.1874
     17 N          -0.5710   -0.5040    0.0000 N.ar    1  LIG1       -0.2015
     18 C          -1.4250   -0.0040    0.0000 C.ar    1  LIG1        0.2441
     19 C          -1.4250    1.0460    0.0000 C.ar    1  LIG1        0.2441
     20 N          -0.5710    1.5460    0.0000 N.ar    1  LIG1       -0.2015
     21 C           0.3170    1.0460    0.0000 C.ar    1  LIG1        0.1872
     22 N           1.2080    1.5460    0.0000 N.pl3   1  LIG1       -0.1917
     23 C           1.2080    2.5460    0.0000 C.ar    1  LIG1        0.0723
     24 C           2.0580    3.0460    0.0000 C.ar    1  LIG1        0.0174
     25 C           2.0420    4.0500    0.0000 C.ar    1  LIG1        0.0127
     26 C           1.1710    4.5540    0.0000 C.ar    1  LIG1        0.0578
     27 CL          1.1460    5.5540    0.0000 Cl      1  LIG1       -0.0822
     28 C           0.3420    4.0330    0.0000 C.ar    1  LIG1        0.0127
     29 C           0.3580    3.0330    0.0000 C.ar    1  LIG1        0.0174
     30 N          -2.3880    1.3500    0.0000 N.ar    1  LIG1       -0.0270
     31 O          -2.9710    0.5040    0.0000 O.2     1  LIG1       -0.2385
     32 N          -2.3880   -0.3130    0.0000 N.ar    1  LIG1       -0.0270
@<TRIPOS>BOND
     1     1     2   ar
     2     1     5   ar
     3     1    15    1
     4     2     3   ar
     5     2    14    2
     6     3     4   ar
     7     3     8    1
     8     4     5   ar
     9     4     7    1
    10     5     6    1
    11     8     9   ar
    12     8    13   ar
    13     9    10   ar
    14    10    11   ar
    15    11    12   ar
    16    12    13   ar
    17    15    16    1
    18    16    17   ar
    19    16    21   ar
    20    17    18   ar
    21    18    19   ar
    22    18    32   ar
    23    19    20   ar
    24    19    30   ar
    25    20    21   ar
    26    21    22    1
    27    22    23    1
    28    23    24   ar
    29    23    29   ar
    30    24    25   ar
    31    25    26   ar
    32    26    27    1
    33    26    28   ar
    34    28    29   ar
    35    30    31   ar
    36    31    32   ar
