@<TRIPOS>MOLECULE
29885_ChemDiv_3617-1954
 28 30 0 0 0
SMALL
GASTEIGER
Energy = 0

@<TRIPOS>ATOM
      1 C           2.8040    1.4580    0.0000 C.ar    1  LIG1        0.2004
      2 O           3.7170    1.0420    0.0000 O.2     1  LIG1       -0.4488
      3 C           4.3880    1.7920    0.0000 C.ar    1  LIG1        0.1455
      4 C           3.8880    2.6580    0.0000 C.ar    1  LIG1        0.0377
      5 C           2.9130    2.4420    0.0000 C.ar    1  LIG1        0.0453
      6 C           4.3880    3.5290    0.0000 C.ar    1  LIG1        0.0031
      7 C           5.3920    3.5290    0.0000 C.ar    1  LIG1        0.0002
      8 C           5.8750    2.6580    0.0000 C.ar    1  LIG1        0.0031
      9 C           5.3920    1.7920    0.0000 C.ar    1  LIG1        0.0375
     10 C           1.9330    0.9670    0.0000 C.2     1  LIG1        0.3038
     11 N           1.0670    1.4670    0.0000 N.am    1  LIG1       -0.1698
     12 C           0.2000    0.9750    0.0000 C.ar    1  LIG1        0.1077
     13 C          -0.6710    1.4670    0.0000 C.ar    1  LIG1        0.1552
     14 C          -1.5380    0.9750    0.0000 C.ar    1  LIG1        0.0548
     15 C          -1.5380   -0.0290    0.0000 C.ar    1  LIG1        0.0765
     16 N          -2.4080   -0.5170    0.0000 N.am    1  LIG1       -0.1791
     17 C          -3.2750   -0.0290    0.0000 C.2     1  LIG1        0.2456
     18 O          -3.2750    0.9750    0.0000 O.2     1  LIG1       -0.2730
     19 C          -4.1420   -0.5170    0.0000 C.3     1  LIG1        0.0872
     20 C          -4.1420   -1.5210    0.0000 C.3     1  LIG1        0.0096
     21 C          -5.0130   -2.0330    0.0000 C.3     1  LIG1        0.0005
     22 C          -5.0130   -3.0330    0.0000 C.3     1  LIG1        0.0000
     23 C          -5.8790   -3.5250    0.0000 C.3     1  LIG1        0.0000
     24 C          -0.6710   -0.5170    0.0000 C.ar    1  LIG1        0.0181
     25 C           0.2000   -0.0290    0.0000 C.ar    1  LIG1        0.0210
     26 O          -0.6710    2.4710    0.0000 O.3     1  LIG1       -0.4701
     27 C           0.2000    2.9710    0.0000 C.3     1  LIG1        0.2525
     28 O           1.9330   -0.0330    0.0000 O.2     1  LIG1       -0.2646
@<TRIPOS>BOND
     1     1     2   ar
     2     1     5   ar
     3     1    10    1
     4     2     3   ar
     5     3     4   ar
     6     3     9   ar
     7     4     5   ar
     8     4     6   ar
     9     6     7   ar
    10     7     8   ar
    11     8     9   ar
    12    10    11   am
    13    10    28    2
    14    11    12    1
    15    12    13   ar
    16    12    25   ar
    17    13    14   ar
    18    13    26    1
    19    14    15   ar
    20    15    16    1
    21    15    24   ar
    22    16    17   am
    23    17    18    2
    24    17    19    1
    25    19    20    1
    26    20    21    1
    27    21    22    1
    28    22    23    1
    29    24    25   ar
    30    26    27    1
