@<TRIPOS>MOLECULE
29883_ChemDiv_D012-0077
 18 19 0 0 0
SMALL
GASTEIGER
Energy = 0

@<TRIPOS>ATOM
      1 C          -0.3540    1.0040    0.0000 C.ar    1  LIG1        0.0350
      2 C           0.5130    0.5040    0.0000 C.ar    1  LIG1        0.0905
      3 N           1.3750    1.0130    0.0000 N.ar    1  LIG1       -0.1885
      4 N           2.2830    0.6080    0.0000 N.ar    1  LIG1       -0.0385
      5 N           2.9500    1.3500    0.0000 N.ar    1  LIG1       -0.0222
      6 N           2.4500    2.2250    0.0000 N.ar    1  LIG1       -0.1045
      7 C           1.4750    2.0130    0.0000 C.ar    1  LIG1        0.2258
      8 C           0.5130   -0.5000    0.0000 C.ar    1  LIG1        0.0593
      9 C          -0.3540   -1.0000    0.0000 C.ar    1  LIG1        0.1739
     10 C          -1.2170   -0.5000    0.0000 C.ar    1  LIG1        0.1725
     11 C          -1.2170    0.5040    0.0000 C.ar    1  LIG1        0.0427
     12 O          -2.0920   -1.0000    0.0000 O.3     1  LIG1       -0.4684
     13 C          -2.9540   -0.5000    0.0000 C.3     1  LIG1        0.2526
     14 O          -0.3540   -2.0000    0.0000 O.3     1  LIG1       -0.4683
     15 C          -1.2170   -2.4960    0.0000 C.3     1  LIG1        0.2526
     16 C          -0.3670    2.0040    0.0000 C.2     1  LIG1        0.0744
     17 O           0.5080    2.5000    0.0000 O.co2   1  LIG1       -0.5445
     18 O          -1.2290    2.4960    0.0000 O.co2   1  LIG1       -0.5445
@<TRIPOS>BOND
     1     1     2   ar
     2     1    11   ar
     3     1    16    1
     4     2     3    1
     5     2     8   ar
     6     3     4   ar
     7     3     7   ar
     8     4     5   ar
     9     5     6   ar
    10     6     7   ar
    11     8     9   ar
    12     9    10   ar
    13     9    14    1
    14    10    11   ar
    15    10    12    1
    16    12    13    1
    17    14    15    1
    18    16    17   ar
    19    16    18   ar
