@<TRIPOS>MOLECULE
29893_ChemDiv_3555-0131
 20 22 0 0 0
SMALL
GASTEIGER
Energy = 0

@<TRIPOS>ATOM
      1 C           0.9420   -0.7330    0.0000 C.2     1  LIG1        0.1010
      2 N           1.8130   -0.2380    0.0000 N.2     1  LIG1       -0.2677
      3 C           1.8130    0.7420    0.0000 C.3     1  LIG1        0.0892
      4 C           0.9420    1.2580    0.0000 C.3     1  LIG1        0.0489
      5 C           0.0630    0.7540    0.0000 C.ar    1  LIG1       -0.0152
      6 C           0.0630   -0.2380    0.0000 C.ar    1  LIG1        0.0224
      7 C          -0.8080   -0.7330    0.0000 C.ar    1  LIG1        0.0417
      8 C          -1.6830   -0.2380    0.0000 C.ar    1  LIG1        0.1724
      9 C          -1.6830    0.7540    0.0000 C.ar    1  LIG1        0.1721
     10 C          -0.8080    1.2580    0.0000 C.ar    1  LIG1        0.0359
     11 O          -2.5540    1.2330    0.0000 O.3     1  LIG1       -0.4684
     12 C          -2.5670    2.2290    0.0000 C.3     1  LIG1        0.2526
     13 O          -2.5540   -0.7330    0.0000 O.3     1  LIG1       -0.4684
     14 C          -3.4130   -0.2290    0.0000 C.3     1  LIG1        0.2526
     15 C           1.8130    1.7000    0.0000 C.3     1  LIG1        0.0228
     16 C           2.8670    1.9710    0.0000 C.3     1  LIG1        0.0020
     17 C           3.4080    1.1710    0.0000 C.3     1  LIG1        0.0020
     18 C           2.7290    0.4040    0.0000 C.3     1  LIG1        0.0228
     19 S           0.9500   -1.7250    0.0000 S.3     1  LIG1       -0.0945
     20 C           0.0960   -2.2250    0.0000 C.3     1  LIG1        0.0757
@<TRIPOS>BOND
     1     1     2    2
     2     1     6    1
     3     1    19    1
     4     2     3    1
     5     3     4    1
     6     3    15    1
     7     3    18    1
     8     4     5    1
     9     5     6   ar
    10     5    10   ar
    11     6     7   ar
    12     7     8   ar
    13     8     9   ar
    14     8    13    1
    15     9    10   ar
    16     9    11    1
    17    11    12    1
    18    13    14    1
    19    15    16    1
    20    16    17    1
    21    17    18    1
    22    19    20    1
