@<TRIPOS>MOLECULE
29899_ChemDiv_7174-0047
 24 27 0 0 0
SMALL
GASTEIGER
Energy = 0

@<TRIPOS>ATOM
      1 C           1.2920    1.1330    0.0000 C.2     1  LIG1        0.1013
      2 N           2.1580    1.6380    0.0000 N.2     1  LIG1       -0.2677
      3 C           2.1580    2.6380    0.0000 C.3     1  LIG1        0.0893
      4 C           1.2880    3.1380    0.0000 C.3     1  LIG1        0.0489
      5 C           0.4250    2.6330    0.0000 C.ar    1  LIG1       -0.0152
      6 C           0.4290    1.6330    0.0000 C.ar    1  LIG1        0.0224
      7 C          -0.4380    1.1250    0.0000 C.ar    1  LIG1        0.0417
      8 C          -1.3000    1.6290    0.0000 C.ar    1  LIG1        0.1724
      9 C          -1.3000    2.6290    0.0000 C.ar    1  LIG1        0.1721
     10 C          -0.4380    3.1290    0.0000 C.ar    1  LIG1        0.0359
     11 O          -2.1670    3.1380    0.0000 O.3     1  LIG1       -0.4684
     12 C          -3.0330    2.6290    0.0000 C.3     1  LIG1        0.2526
     13 C          -3.0330    1.6290    0.0000 C.3     1  LIG1        0.2526
     14 O          -2.1670    1.1290    0.0000 O.3     1  LIG1       -0.4684
     15 C           3.0250    2.1380    0.0000 C.3     1  LIG1        0.0247
     16 C           2.8710    3.3540    0.0000 C.3     1  LIG1        0.0247
     17 S           1.2920    0.1420    0.0000 S.3     1  LIG1       -0.0906
     18 C           2.1580   -0.3580    0.0000 C.3     1  LIG1        0.0898
     19 C           2.1580   -1.3580    0.0000 C.ar    1  LIG1       -0.0109
     20 C           1.2920   -1.8540    0.0000 C.ar    1  LIG1       -0.0034
     21 C           1.2920   -2.8500    0.0000 C.ar    1  LIG1       -0.0003
     22 C           2.1580   -3.3500    0.0000 C.ar    1  LIG1       -0.0000
     23 C           3.0290   -2.8420    0.0000 C.ar    1  LIG1       -0.0003
     24 C           3.0250   -1.8500    0.0000 C.ar    1  LIG1       -0.0034
@<TRIPOS>BOND
     1     1     2    2
     2     1     6    1
     3     1    17    1
     4     2     3    1
     5     3     4    1
     6     3    15    1
     7     3    16    1
     8     4     5    1
     9     5     6   ar
    10     5    10   ar
    11     6     7   ar
    12     7     8   ar
    13     8     9   ar
    14     8    14    1
    15     9    10   ar
    16     9    11    1
    17    11    12    1
    18    12    13    1
    19    13    14    1
    20    17    18    1
    21    18    19    1
    22    19    20   ar
    23    19    24   ar
    24    20    21   ar
    25    21    22   ar
    26    22    23   ar
    27    23    24   ar
