@<TRIPOS>MOLECULE
29895_ChemDiv_3555-0197
 18 19 0 0 0
SMALL
GASTEIGER
Energy = 0

@<TRIPOS>ATOM
      1 C           0.4540   -1.0040    0.0000 C.2     1  LIG1        0.1039
      2 C          -0.4040   -0.5130    0.0000 C.ar    1  LIG1        0.0560
      3 C          -0.4040    0.5040    0.0000 C.ar    1  LIG1        0.0185
      4 C           0.4540    1.0040    0.0000 C.3     1  LIG1        0.0520
      5 C           1.3250    0.4920    0.0000 C.3     1  LIG1        0.0894
      6 N           1.3250   -0.4880    0.0000 N.2     1  LIG1       -0.2676
      7 C           1.3250    1.4920    0.0000 C.3     1  LIG1        0.0247
      8 C           2.1580   -0.0960    0.0000 C.3     1  LIG1        0.0247
      9 C          -1.2830    1.0040    0.0000 C.ar    1  LIG1        0.1350
     10 C          -2.1630    0.4920    0.0000 C.ar    1  LIG1        0.0397
     11 C          -2.1630   -0.4880    0.0000 C.ar    1  LIG1        0.0401
     12 C          -1.2830   -1.0040    0.0000 C.ar    1  LIG1        0.1405
     13 O          -1.2830   -1.9960    0.0000 O.3     1  LIG1       -0.4714
     14 C          -2.1330   -2.4920    0.0000 C.3     1  LIG1        0.2525
     15 O          -1.2830    2.0000    0.0000 O.3     1  LIG1       -0.4717
     16 C          -0.4330    2.4960    0.0000 C.3     1  LIG1        0.2525
     17 S           0.4540   -1.9960    0.0000 S.3     1  LIG1       -0.0944
     18 C          -0.4040   -2.4830    0.0000 C.3     1  LIG1        0.0757
@<TRIPOS>BOND
     1     1     2    1
     2     1     6    2
     3     1    17    1
     4     2     3   ar
     5     2    12   ar
     6     3     4    1
     7     3     9   ar
     8     4     5    1
     9     5     6    1
    10     5     7    1
    11     5     8    1
    12     9    10   ar
    13     9    15    1
    14    10    11   ar
    15    11    12   ar
    16    12    13    1
    17    13    14    1
    18    15    16    1
    19    17    18    1
