@<TRIPOS>MOLECULE
29897_ChemDiv_7174-0002
 20 21 0 0 0
SMALL
GASTEIGER
Energy = 0

@<TRIPOS>ATOM
      1 C           0.5040    0.0000    0.0000 C.ar    1  LIG1        0.0564
      2 C           1.3710   -0.5040    0.0000 C.2     1  LIG1        0.1039
      3 N           2.2460   -0.0040    0.0000 N.2     1  LIG1       -0.2676
      4 C           2.2460    1.0040    0.0000 C.3     1  LIG1        0.0893
      5 C           1.3710    1.5130    0.0000 C.3     1  LIG1        0.0490
      6 C           0.5040    1.0080    0.0000 C.ar    1  LIG1       -0.0122
      7 C          -0.3630    1.5000    0.0000 C.ar    1  LIG1        0.0361
      8 C          -1.2250    1.0040    0.0000 C.ar    1  LIG1        0.1751
      9 C          -1.2250    0.0040    0.0000 C.ar    1  LIG1        0.2061
     10 C          -0.3580   -0.4960    0.0000 C.ar    1  LIG1        0.1770
     11 O          -0.3630   -1.4920    0.0000 O.3     1  LIG1       -0.4682
     12 C           0.5040   -1.9920    0.0000 C.3     1  LIG1        0.2526
     13 O          -2.0880   -0.4920    0.0000 O.3     1  LIG1       -0.4654
     14 C          -2.0880   -1.4920    0.0000 C.3     1  LIG1        0.2528
     15 O          -2.0920    1.5080    0.0000 O.3     1  LIG1       -0.4683
     16 C          -2.9540    1.0080    0.0000 C.3     1  LIG1        0.2526
     17 C           2.9500    0.3000    0.0000 C.3     1  LIG1        0.0247
     18 C           2.2380    2.0040    0.0000 C.3     1  LIG1        0.0247
     19 S           1.3670   -1.4960    0.0000 S.3     1  LIG1       -0.0944
     20 C           2.2290   -2.0000    0.0000 C.3     1  LIG1        0.0757
@<TRIPOS>BOND
     1     1     2    1
     2     1     6   ar
     3     1    10   ar
     4     2     3    2
     5     2    19    1
     6     3     4    1
     7     4     5    1
     8     4    17    1
     9     4    18    1
    10     5     6    1
    11     6     7   ar
    12     7     8   ar
    13     8     9   ar
    14     8    15    1
    15     9    10   ar
    16     9    13    1
    17    10    11    1
    18    11    12    1
    19    13    14    1
    20    15    16    1
    21    19    20    1
