@<TRIPOS>MOLECULE
29903_ChemDiv_8011-1860
 17 20 0 0 0
SMALL
GASTEIGER
Energy = 0

@<TRIPOS>ATOM
      1 N           0.9540   -0.3170    0.0000 N.2     1  LIG1       -0.1953
      2 C           0.0790   -0.8210    0.0000 C.2     1  LIG1        0.2477
      3 C          -0.7960   -0.3170    0.0000 C.ar    1  LIG1        0.0658
      4 C          -0.7960    0.6670    0.0000 C.ar    1  LIG1       -0.0095
      5 C           0.0790    1.1670    0.0000 C.3     1  LIG1        0.0970
      6 C           0.9540    0.6670    0.0000 C.3     1  LIG1        0.1939
      7 C           1.8830    0.3080    0.0000 C.3     1  LIG1        0.0709
      8 C           2.5380    1.1130    0.0000 C.3     1  LIG1        0.0069
      9 C           1.9580    1.9040    0.0000 C.3     1  LIG1        0.0069
     10 C           1.0130    1.6710    0.0000 C.3     1  LIG1        0.0709
     11 C          -1.6750    1.1670    0.0000 C.ar    1  LIG1       -0.0038
     12 C          -2.5420    0.6670    0.0000 C.ar    1  LIG1       -0.0003
     13 C          -2.5420   -0.3170    0.0000 C.ar    1  LIG1        0.0002
     14 C          -1.6750   -0.8210    0.0000 C.ar    1  LIG1        0.0061
     15 S           0.3040   -1.8210    0.0000 S.3     1  LIG1       -0.0392
     16 C           1.2630   -1.9000    0.0000 C.3     1  LIG1        0.1524
     17 C           1.6920   -1.0170    0.0000 C.3     1  LIG1        0.3292
@<TRIPOS>BOND
     1     1     2    2
     2     1     6    1
     3     1    17    1
     4     2     3    1
     5     2    15    1
     6     3     4   ar
     7     3    14   ar
     8     4     5    1
     9     4    11   ar
    10     5     6    1
    11     6     7    1
    12     6    10    1
    13     7     8    1
    14     8     9    1
    15     9    10    1
    16    11    12   ar
    17    12    13   ar
    18    13    14   ar
    19    15    16    1
    20    16    17    1
