@<TRIPOS>MOLECULE
29908_ChemDiv_3660-0323
 21 22 0 0 0
SMALL
GASTEIGER
Energy = 0

@<TRIPOS>ATOM
      1 S          -0.4880    0.0920    0.0000 S.O2    1  LIG1        0.0649
      2 C          -1.5040    0.0920    0.0000 C.ar    1  LIG1        0.1446
      3 C          -2.0210    0.9500    0.0000 C.ar    1  LIG1        0.1616
      4 C          -3.0250    0.9330    0.0000 C.ar    1  LIG1        0.1445
      5 N          -3.3420    1.8880    0.0000 N.ar    1  LIG1       -0.0482
      6 O          -2.5540    2.4880    0.0000 O.2     1  LIG1       -0.2415
      7 N          -1.7170    1.9000    0.0000 N.ar    1  LIG1       -0.0469
      8 C          -3.5130    0.0630    0.0000 C.ar    1  LIG1        0.0242
      9 C          -3.0040   -0.7960    0.0000 C.ar    1  LIG1        0.0031
     10 C          -1.9880   -0.7670    0.0000 C.ar    1  LIG1        0.0217
     11 N           0.5080    0.0790    0.0000 N.3     1  LIG1       -0.1555
     12 C           1.0130    0.9380    0.0000 C.3     1  LIG1        0.0958
     13 C           2.0170    0.9330    0.0000 C.3     1  LIG1        0.0191
     14 C           2.5170    0.0630    0.0000 C.3     1  LIG1        0.0015
     15 C           3.5080    0.0630    0.0000 C.3     1  LIG1        0.0000
     16 C           0.9920   -0.7830    0.0000 C.3     1  LIG1        0.0958
     17 C           0.4880   -1.6420    0.0000 C.3     1  LIG1        0.0191
     18 C          -0.5130   -1.6380    0.0000 C.3     1  LIG1        0.0015
     19 C          -1.0080   -2.4830    0.0000 C.3     1  LIG1        0.0000
     20 O          -0.4960    1.1000    0.0000 O.2     1  LIG1       -0.1527
     21 O          -0.4880   -0.9000    0.0000 O.2     1  LIG1       -0.1527
@<TRIPOS>BOND
     1     1     2    1
     2     1    11    1
     3     1    20    2
     4     1    21    2
     5     2     3   ar
     6     2    10   ar
     7     3     4   ar
     8     3     7   ar
     9     4     5   ar
    10     4     8   ar
    11     5     6   ar
    12     6     7   ar
    13     8     9   ar
    14     9    10   ar
    15    11    12    1
    16    11    16    1
    17    12    13    1
    18    13    14    1
    19    14    15    1
    20    16    17    1
    21    17    18    1
    22    18    19    1
