@<TRIPOS>MOLECULE
29909_ChemDiv_3635-1368
 34 38 0 0 0
SMALL
GASTEIGER
Energy = 0

@<TRIPOS>ATOM
      1 S           1.3630   -4.2380    0.0000 S.O2    1  LIG1       -0.0565
      2 N           2.2630   -4.7380    0.0000 N.pl3   1  LIG1       -0.5152
      3 C           3.1040   -4.2130    0.0000 C.ar    1  LIG1        0.0047
      4 N           3.2790   -3.2210    0.0000 N.ar    1  LIG1       -0.2605
      5 C           4.2670   -3.0750    0.0000 C.ar    1  LIG1        0.1042
      6 C           4.7000   -3.9830    0.0000 C.ar    1  LIG1        0.0556
      7 S           3.9750   -4.6710    0.0000 S.2     1  LIG1       -0.0898
      8 C           0.4920   -3.7750    0.0000 C.ar    1  LIG1        0.0894
      9 C          -0.4170   -4.2710    0.0000 C.ar    1  LIG1        0.0182
     10 C          -1.2880   -3.7750    0.0000 C.ar    1  LIG1        0.0178
     11 C          -1.2500   -2.7830    0.0000 C.ar    1  LIG1        0.0723
     12 N          -2.1210   -2.2920    0.0000 N.pl3   1  LIG1       -0.1927
     13 C          -2.1210   -1.2790    0.0000 C.ar    1  LIG1        0.1734
     14 N          -1.2500   -0.7880    0.0000 N.ar    1  LIG1       -0.1311
     15 N          -1.2500    0.2290    0.0000 N.ar    1  LIG1       -0.1467
     16 C          -2.1210    0.7250    0.0000 C.ar    1  LIG1        0.1029
     17 C          -2.9630    0.2290    0.0000 C.ar    1  LIG1        0.0222
     18 C          -2.9630   -0.7880    0.0000 C.ar    1  LIG1        0.0366
     19 C          -3.8330   -1.2790    0.0000 C.ar    1  LIG1        0.0029
     20 C          -4.7040   -0.7880    0.0000 C.ar    1  LIG1        0.0001
     21 C          -4.7040    0.2290    0.0000 C.ar    1  LIG1        0.0001
     22 C          -3.8330    0.7250    0.0000 C.ar    1  LIG1        0.0016
     23 C          -2.1210    1.7170    0.0000 C.ar    1  LIG1        0.0196
     24 C          -1.2500    2.2080    0.0000 C.ar    1  LIG1        0.0047
     25 C          -1.2500    3.1920    0.0000 C.ar    1  LIG1        0.0369
     26 C          -2.1210    3.6960    0.0000 C.ar    1  LIG1        0.1387
     27 C          -2.9920    3.1920    0.0000 C.ar    1  LIG1        0.0369
     28 C          -2.9920    2.2080    0.0000 C.ar    1  LIG1        0.0047
     29 O          -2.1580    4.6710    0.0000 O.3     1  LIG1       -0.4714
     30 C          -3.0130    5.1420    0.0000 C.3     1  LIG1        0.2525
     31 C          -0.3790   -2.2920    0.0000 C.ar    1  LIG1        0.0178
     32 C           0.4920   -2.7830    0.0000 C.ar    1  LIG1        0.0182
     33 O           1.8540   -3.3630    0.0000 O.2     1  LIG1       -0.1841
     34 O           0.8920   -5.1420    0.0000 O.2     1  LIG1       -0.1841
@<TRIPOS>BOND
     1     1     2    1
     2     1     8    1
     3     1    33    2
     4     1    34    2
     5     2     3    1
     6     3     4   ar
     7     3     7   ar
     8     4     5   ar
     9     5     6   ar
    10     6     7   ar
    11     8     9   ar
    12     8    32   ar
    13     9    10   ar
    14    10    11   ar
    15    11    12    1
    16    11    31   ar
    17    12    13    1
    18    13    14   ar
    19    13    18   ar
    20    14    15   ar
    21    15    16   ar
    22    16    17   ar
    23    16    23    1
    24    17    18   ar
    25    17    22   ar
    26    18    19   ar
    27    19    20   ar
    28    20    21   ar
    29    21    22   ar
    30    23    24   ar
    31    23    28   ar
    32    24    25   ar
    33    25    26   ar
    34    26    27   ar
    35    26    29    1
    36    27    28   ar
    37    29    30    1
    38    31    32   ar
