@<TRIPOS>MOLECULE
29901_ChemDiv_7174-0080
 19 20 0 0 0
SMALL
GASTEIGER
Energy = 0

@<TRIPOS>ATOM
      1 C           1.2960    0.0040    0.0000 C.2     1  LIG1        0.1009
      2 N           2.1710    0.5040    0.0000 N.2     1  LIG1       -0.2677
      3 C           2.1710    1.5000    0.0000 C.3     1  LIG1        0.0893
      4 C           1.3040    2.0000    0.0000 C.3     1  LIG1        0.0489
      5 C           0.4380    1.5000    0.0000 C.ar    1  LIG1       -0.0152
      6 C           0.4420    0.5000    0.0000 C.ar    1  LIG1        0.0224
      7 C          -0.4210    0.0000    0.0000 C.ar    1  LIG1        0.0417
      8 C          -1.2920    0.5040    0.0000 C.ar    1  LIG1        0.1724
      9 C          -1.2920    1.5000    0.0000 C.ar    1  LIG1        0.1721
     10 C          -0.4210    1.9960    0.0000 C.ar    1  LIG1        0.0359
     11 O          -2.1630    2.0000    0.0000 O.3     1  LIG1       -0.4684
     12 C          -3.0250    1.4960    0.0000 C.3     1  LIG1        0.2526
     13 O          -2.1630   -0.0080    0.0000 O.3     1  LIG1       -0.4684
     14 C          -3.0380    0.4920    0.0000 C.3     1  LIG1        0.2526
     15 C           2.1630    2.5000    0.0000 C.3     1  LIG1        0.0247
     16 C           3.0330    1.0040    0.0000 C.3     1  LIG1        0.0247
     17 S           1.3000   -0.9960    0.0000 S.3     1  LIG1       -0.0954
     18 C           2.1670   -1.4960    0.0000 C.3     1  LIG1        0.0637
     19 C           2.1670   -2.5000    0.0000 C.3     1  LIG1        0.0130
@<TRIPOS>BOND
     1     1     2    2
     2     1     6    1
     3     1    17    1
     4     2     3    1
     5     3     4    1
     6     3    15    1
     7     3    16    1
     8     4     5    1
     9     5     6   ar
    10     5    10   ar
    11     6     7   ar
    12     7     8   ar
    13     8     9   ar
    14     8    13    1
    15     9    10   ar
    16     9    11    1
    17    11    12    1
    18    13    14    1
    19    17    18    1
    20    18    19    1
