@<TRIPOS>MOLECULE
29906_ChemDiv_D268-0467
 33 37 0 0 0
SMALL
GASTEIGER
Energy = 0

@<TRIPOS>ATOM
      1 C           1.1670   -0.9790    0.0000 C.ar    1  LIG1        0.1429
      2 C           0.3460   -1.5460    0.0000 C.ar    1  LIG1        0.2953
      3 N           0.6420   -2.5040    0.0000 N.ar    1  LIG1       -0.2134
      4 N           1.6420   -2.5210    0.0000 N.ar    1  LIG1       -0.2646
      5 C           1.9710   -1.5790    0.0000 C.ar    1  LIG1        0.0745
      6 C           2.9210   -1.2830    0.0000 C.3     1  LIG1        0.0532
      7 C           2.2210   -3.3420    0.0000 C.3     1  LIG1        0.1518
      8 C           0.0330   -3.2960    0.0000 C.ar    1  LIG1        0.0841
      9 C           0.4290   -4.2170    0.0000 C.ar    1  LIG1        0.0192
     10 C          -0.1540   -5.0080    0.0000 C.ar    1  LIG1        0.0015
     11 C          -1.1630   -4.8960    0.0000 C.ar    1  LIG1        0.0001
     12 C          -1.5500   -3.9710    0.0000 C.ar    1  LIG1        0.0015
     13 C          -0.9500   -3.1710    0.0000 C.ar    1  LIG1        0.0192
     14 O          -0.6000   -1.2210    0.0000 O.2     1  LIG1       -0.2637
     15 N           1.1830    0.0210    0.0000 N.pl3   1  LIG1       -0.1856
     16 C           0.3210    0.5380    0.0000 C.ar    1  LIG1        0.1874
     17 N          -0.5540    0.0380    0.0000 N.ar    1  LIG1       -0.2015
     18 C          -1.4130    0.5500    0.0000 C.ar    1  LIG1        0.2441
     19 C          -1.4000    1.5500    0.0000 C.ar    1  LIG1        0.2441
     20 N          -0.5380    2.0500    0.0000 N.ar    1  LIG1       -0.2015
     21 C           0.3330    1.5380    0.0000 C.ar    1  LIG1        0.1872
     22 N           1.2040    2.0250    0.0000 N.pl3   1  LIG1       -0.1921
     23 C           1.2040    3.0250    0.0000 C.ar    1  LIG1        0.0679
     24 C           2.0670    3.5130    0.0000 C.ar    1  LIG1       -0.0105
     25 C           2.0790    4.5000    0.0000 C.ar    1  LIG1       -0.0245
     26 C           1.2210    5.0080    0.0000 C.ar    1  LIG1       -0.0045
     27 C           0.3460    4.5080    0.0000 C.ar    1  LIG1        0.0010
     28 C           0.3460    3.5170    0.0000 C.ar    1  LIG1        0.0162
     29 C           2.9460    5.0000    0.0000 C.3     1  LIG1        0.0307
     30 C           2.9330    3.0040    0.0000 C.3     1  LIG1        0.0321
     31 N          -2.3540    1.8670    0.0000 N.ar    1  LIG1       -0.0270
     32 O          -2.9500    1.0500    0.0000 O.2     1  LIG1       -0.2385
     33 N          -2.3540    0.2500    0.0000 N.ar    1  LIG1       -0.0270
@<TRIPOS>BOND
     1     1     2   ar
     2     1     5   ar
     3     1    15    1
     4     2     3   ar
     5     2    14    2
     6     3     4   ar
     7     3     8    1
     8     4     5   ar
     9     4     7    1
    10     5     6    1
    11     8     9   ar
    12     8    13   ar
    13     9    10   ar
    14    10    11   ar
    15    11    12   ar
    16    12    13   ar
    17    15    16    1
    18    16    17   ar
    19    16    21   ar
    20    17    18   ar
    21    18    19   ar
    22    18    33   ar
    23    19    20   ar
    24    19    31   ar
    25    20    21   ar
    26    21    22    1
    27    22    23    1
    28    23    24   ar
    29    23    28   ar
    30    24    25   ar
    31    24    30    1
    32    25    26   ar
    33    25    29    1
    34    26    27   ar
    35    27    28   ar
    36    31    32   ar
    37    32    33   ar
