@<TRIPOS>MOLECULE
29913_ChemDiv_3635-1434
 31 34 0 0 0
SMALL
GASTEIGER
Energy = 0

@<TRIPOS>ATOM
      1 S           0.9080    4.0000    0.0000 S.O2    1  LIG1        0.0932
      2 C           0.0420    3.5170    0.0000 C.ar    1  LIG1        0.1211
      3 C           0.0420    2.5290    0.0000 C.ar    1  LIG1        0.0212
      4 C          -0.8290    2.0420    0.0000 C.ar    1  LIG1        0.0207
      5 C          -0.8290    1.0460    0.0000 C.ar    1  LIG1        0.1030
      6 N           0.0420    0.5630    0.0000 N.ar    1  LIG1       -0.1467
      7 N           0.0420   -0.4710    0.0000 N.ar    1  LIG1       -0.1311
      8 C          -0.8290   -0.9790    0.0000 C.ar    1  LIG1        0.1734
      9 C          -1.7000   -0.4710    0.0000 C.ar    1  LIG1        0.0366
     10 C          -1.7000    0.5630    0.0000 C.ar    1  LIG1        0.0222
     11 C          -2.5830    1.0460    0.0000 C.ar    1  LIG1        0.0016
     12 C          -3.4500    0.5630    0.0000 C.ar    1  LIG1        0.0001
     13 C          -3.4500   -0.4710    0.0000 C.ar    1  LIG1        0.0001
     14 C          -2.5830   -0.9790    0.0000 C.ar    1  LIG1        0.0029
     15 N          -0.8290   -1.9460    0.0000 N.pl3   1  LIG1       -0.1927
     16 C           0.0290   -2.4380    0.0000 C.ar    1  LIG1        0.0722
     17 C           0.9290   -1.9750    0.0000 C.ar    1  LIG1        0.0167
     18 C           1.7670   -2.4710    0.0000 C.ar    1  LIG1        0.0060
     19 C           1.7670   -3.4880    0.0000 C.ar    1  LIG1        0.0567
     20 C           2.5960   -4.0080    0.0000 C.2     1  LIG1        0.2842
     21 O           3.4460   -3.5420    0.0000 O.2     1  LIG1       -0.2667
     22 N           2.5670   -5.0080    0.0000 N.am    1  LIG1       -0.0837
     23 C           0.8790   -3.9330    0.0000 C.ar    1  LIG1        0.0060
     24 C           0.0420   -3.4250    0.0000 C.ar    1  LIG1        0.0167
     25 C          -1.7000    2.5290    0.0000 C.ar    1  LIG1        0.0013
     26 C          -1.7000    3.5460    0.0000 C.ar    1  LIG1       -0.0029
     27 C          -0.8290    4.0170    0.0000 C.ar    1  LIG1       -0.0031
     28 C          -0.8290    5.0080    0.0000 C.3     1  LIG1        0.0324
     29 O           1.4040    3.1290    0.0000 O.2     1  LIG1       -0.1503
     30 O           0.4250    4.8830    0.0000 O.2     1  LIG1       -0.1503
     31 N           1.8000    4.4710    0.0000 N.3     1  LIG1        0.0392
@<TRIPOS>BOND
     1     1     2    1
     2     1    29    2
     3     1    30    2
     4     1    31    1
     5     2     3   ar
     6     2    27   ar
     7     3     4   ar
     8     4     5    1
     9     4    25   ar
    10     5     6   ar
    11     5    10   ar
    12     6     7   ar
    13     7     8   ar
    14     8     9   ar
    15     8    15    1
    16     9    10   ar
    17     9    14   ar
    18    10    11   ar
    19    11    12   ar
    20    12    13   ar
    21    13    14   ar
    22    15    16    1
    23    16    17   ar
    24    16    24   ar
    25    17    18   ar
    26    18    19   ar
    27    19    20    1
    28    19    23   ar
    29    20    21    2
    30    20    22   am
    31    23    24   ar
    32    25    26   ar
    33    26    27   ar
    34    27    28    1
