@<TRIPOS>MOLECULE
29915_ChemDiv_4109-1919
 37 41 0 0 0
SMALL
GASTEIGER
Energy = 0

@<TRIPOS>ATOM
      1 S           0.8210    3.4380    0.0000 S.O2    1  LIG1        0.0631
      2 C          -0.0380    2.9380    0.0000 C.ar    1  LIG1        0.1183
      3 C          -0.0290    1.9290    0.0000 C.ar    1  LIG1        0.0211
      4 C          -0.8880    1.4290    0.0000 C.ar    1  LIG1        0.0207
      5 C          -0.8710    0.4210    0.0000 C.ar    1  LIG1        0.1030
      6 N           0.0040   -0.0670    0.0000 N.ar    1  LIG1       -0.1467
      7 N           0.0170   -1.0880    0.0000 N.ar    1  LIG1       -0.1311
      8 C          -0.8500   -1.5880    0.0000 C.ar    1  LIG1        0.1734
      9 C          -1.7250   -1.1000    0.0000 C.ar    1  LIG1        0.0366
     10 C          -1.7420   -0.0920    0.0000 C.ar    1  LIG1        0.0222
     11 C          -2.6000    0.4080    0.0000 C.ar    1  LIG1        0.0016
     12 C          -3.4630   -0.0960    0.0000 C.ar    1  LIG1        0.0001
     13 C          -3.4630   -1.1000    0.0000 C.ar    1  LIG1        0.0001
     14 C          -2.6000   -1.6000    0.0000 C.ar    1  LIG1        0.0029
     15 N          -0.8420   -2.5960    0.0000 N.pl3   1  LIG1       -0.1927
     16 C           0.0250   -3.1000    0.0000 C.ar    1  LIG1        0.0723
     17 C           0.0080   -4.0920    0.0000 C.ar    1  LIG1        0.0179
     18 C           0.8670   -4.5920    0.0000 C.ar    1  LIG1        0.0213
     19 C           1.7380   -4.0920    0.0000 C.ar    1  LIG1        0.1251
     20 S           2.5960   -4.5920    0.0000 S.O2    1  LIG1        0.0935
     21 O           3.0880   -3.7290    0.0000 O.2     1  LIG1       -0.1503
     22 O           2.0920   -5.4500    0.0000 O.2     1  LIG1       -0.1503
     23 N           3.4580   -5.0880    0.0000 N.3     1  LIG1        0.0392
     24 C           1.7380   -3.1000    0.0000 C.ar    1  LIG1        0.0213
     25 C           0.8790   -2.6000    0.0000 C.ar    1  LIG1        0.0179
     26 C          -1.7580    1.9000    0.0000 C.ar    1  LIG1        0.0013
     27 C          -1.7790    2.9040    0.0000 C.ar    1  LIG1       -0.0029
     28 C          -0.9130    3.4210    0.0000 C.ar    1  LIG1       -0.0032
     29 C          -0.9290    4.4170    0.0000 C.3     1  LIG1        0.0324
     30 N           1.6830    3.9460    0.0000 N.3     1  LIG1       -0.1504
     31 C           1.6670    4.9420    0.0000 C.3     1  LIG1        0.1279
     32 C           2.5420    5.4500    0.0000 C.3     1  LIG1        0.1613
     33 O           3.4040    4.9540    0.0000 O.3     1  LIG1       -0.3507
     34 C           3.4040    3.9630    0.0000 C.3     1  LIG1        0.1613
     35 C           2.5580    3.4500    0.0000 C.3     1  LIG1        0.1279
     36 O           0.3080    4.3040    0.0000 O.2     1  LIG1       -0.1528
     37 O           1.3170    2.5750    0.0000 O.2     1  LIG1       -0.1528
@<TRIPOS>BOND
     1     1     2    1
     2     1    30    1
     3     1    36    2
     4     1    37    2
     5     2     3   ar
     6     2    28   ar
     7     3     4   ar
     8     4     5    1
     9     4    26   ar
    10     5     6   ar
    11     5    10   ar
    12     6     7   ar
    13     7     8   ar
    14     8     9   ar
    15     8    15    1
    16     9    10   ar
    17     9    14   ar
    18    10    11   ar
    19    11    12   ar
    20    12    13   ar
    21    13    14   ar
    22    15    16    1
    23    16    17   ar
    24    16    25   ar
    25    17    18   ar
    26    18    19   ar
    27    19    20    1
    28    19    24   ar
    29    20    21    2
    30    20    22    2
    31    20    23    1
    32    24    25   ar
    33    26    27   ar
    34    27    28   ar
    35    28    29    1
    36    30    31    1
    37    30    35    1
    38    31    32    1
    39    32    33    1
    40    33    34    1
    41    34    35    1
