@<TRIPOS>MOLECULE
29919_ChemDiv_4109-1945
 34 37 0 0 0
SMALL
GASTEIGER
Energy = 0

@<TRIPOS>ATOM
      1 S           0.4080    4.0210    0.0000 S.O2    1  LIG1        0.0766
      2 C          -0.4540    3.5130    0.0000 C.ar    1  LIG1        0.1196
      3 C          -0.4380    2.5130    0.0000 C.ar    1  LIG1        0.0212
      4 C          -1.2960    2.0130    0.0000 C.ar    1  LIG1        0.0207
      5 C          -1.2830    1.0080    0.0000 C.ar    1  LIG1        0.1030
      6 N          -0.4080    0.5080    0.0000 N.ar    1  LIG1       -0.1467
      7 N          -0.3920   -0.5040    0.0000 N.ar    1  LIG1       -0.1311
      8 C          -1.2580   -1.0040    0.0000 C.ar    1  LIG1        0.1734
      9 C          -2.1330   -0.5210    0.0000 C.ar    1  LIG1        0.0366
     10 C          -2.1420    0.4920    0.0000 C.ar    1  LIG1        0.0222
     11 C          -3.0080    0.9920    0.0000 C.ar    1  LIG1        0.0016
     12 C          -3.8790    0.4790    0.0000 C.ar    1  LIG1        0.0001
     13 C          -3.8790   -0.5210    0.0000 C.ar    1  LIG1        0.0001
     14 C          -3.0080   -1.0130    0.0000 C.ar    1  LIG1        0.0029
     15 N          -1.2500   -2.0080    0.0000 N.pl3   1  LIG1       -0.1927
     16 C          -0.3920   -2.5130    0.0000 C.ar    1  LIG1        0.0722
     17 C           0.4670   -2.0170    0.0000 C.ar    1  LIG1        0.0167
     18 C           1.3250   -2.5130    0.0000 C.ar    1  LIG1        0.0060
     19 C           1.3130   -3.5080    0.0000 C.ar    1  LIG1        0.0567
     20 C           2.1750   -4.0080    0.0000 C.2     1  LIG1        0.2842
     21 O           2.1750   -5.0040    0.0000 O.2     1  LIG1       -0.2667
     22 N           3.0330   -3.5080    0.0000 N.am    1  LIG1       -0.0837
     23 C           0.4540   -4.0080    0.0000 C.ar    1  LIG1        0.0060
     24 C          -0.3960   -3.5040    0.0000 C.ar    1  LIG1        0.0167
     25 C          -2.1630    2.4830    0.0000 C.ar    1  LIG1        0.0013
     26 C          -2.1880    3.4830    0.0000 C.ar    1  LIG1       -0.0029
     27 C          -1.3290    4.0040    0.0000 C.ar    1  LIG1       -0.0032
     28 C          -1.3420    5.0040    0.0000 C.3     1  LIG1        0.0324
     29 O           0.9040    3.1630    0.0000 O.2     1  LIG1       -0.1516
     30 O          -0.0920    4.8920    0.0000 O.2     1  LIG1       -0.1516
     31 N           1.2790    4.5290    0.0000 N.3     1  LIG1       -0.0750
     32 C           2.1420    4.0330    0.0000 C.3     1  LIG1        0.1509
     33 C           3.0040    4.5380    0.0000 C.3     1  LIG1        0.2028
     34 O           3.8750    4.0370    0.0000 O.3     1  LIG1       -0.2187
@<TRIPOS>BOND
     1     1     2    1
     2     1    29    2
     3     1    30    2
     4     1    31    1
     5     2     3   ar
     6     2    27   ar
     7     3     4   ar
     8     4     5    1
     9     4    25   ar
    10     5     6   ar
    11     5    10   ar
    12     6     7   ar
    13     7     8   ar
    14     8     9   ar
    15     8    15    1
    16     9    10   ar
    17     9    14   ar
    18    10    11   ar
    19    11    12   ar
    20    12    13   ar
    21    13    14   ar
    22    15    16    1
    23    16    17   ar
    24    16    24   ar
    25    17    18   ar
    26    18    19   ar
    27    19    20    1
    28    19    23   ar
    29    20    21    2
    30    20    22   am
    31    23    24   ar
    32    25    26   ar
    33    26    27   ar
    34    27    28    1
    35    31    32    1
    36    32    33    1
    37    33    34    1
