@<TRIPOS>MOLECULE
29912_ChemDiv_C259-0556
 32 36 0 0 0
SMALL
GASTEIGER
Energy = 0

@<TRIPOS>ATOM
      1 S          -3.5710    0.6790    0.0000 S.O2    1  LIG1        0.0649
      2 C          -3.5710   -0.3210    0.0000 C.ar    1  LIG1        0.1446
      3 C          -4.4380   -0.8210    0.0000 C.ar    1  LIG1        0.1616
      4 C          -4.4380   -1.8210    0.0000 C.ar    1  LIG1        0.1445
      5 N          -5.3830   -2.1290    0.0000 N.ar    1  LIG1       -0.0482
      6 O          -5.9670   -1.3250    0.0000 O.2     1  LIG1       -0.2415
      7 N          -5.3830   -0.5080    0.0000 N.ar    1  LIG1       -0.0469
      8 C          -3.5710   -2.3210    0.0000 C.ar    1  LIG1        0.0242
      9 C          -2.7040   -1.8210    0.0000 C.ar    1  LIG1        0.0031
     10 C          -2.7040   -0.8210    0.0000 C.ar    1  LIG1        0.0217
     11 N          -2.5710    0.6790    0.0000 N.3     1  LIG1       -0.1555
     12 C          -2.0710   -0.1880    0.0000 C.3     1  LIG1        0.0963
     13 C          -1.0710   -0.1880    0.0000 C.3     1  LIG1        0.0283
     14 C          -0.5710    0.6790    0.0000 C.3     1  LIG1        0.0815
     15 C           0.4290    0.6920    0.0000 C.2     1  LIG1        0.2469
     16 N           0.9210    1.5670    0.0000 N.am    1  LIG1       -0.1543
     17 C           1.9290    1.5750    0.0000 C.ar    1  LIG1        0.1858
     18 N           2.5960    2.3250    0.0000 N.ar    1  LIG1       -0.2225
     19 C           3.5130    1.9080    0.0000 C.ar    1  LIG1        0.0895
     20 C           3.4130    0.9250    0.0000 C.ar    1  LIG1        0.0528
     21 S           2.4290    0.7130    0.0000 S.2     1  LIG1       -0.0496
     22 C           4.2250    0.3420    0.0000 C.ar    1  LIG1        0.0450
     23 C           5.1290    0.7580    0.0000 C.ar    1  LIG1        0.1393
     24 C           5.2330    1.7420    0.0000 C.ar    1  LIG1        0.0385
     25 C           4.4250    2.3250    0.0000 C.ar    1  LIG1        0.0228
     26 O           5.9630    0.1630    0.0000 O.3     1  LIG1       -0.4714
     27 C           5.8670   -0.8380    0.0000 C.3     1  LIG1        0.2525
     28 O           0.9290   -0.1580    0.0000 O.2     1  LIG1       -0.2729
     29 C          -1.0710    1.5420    0.0000 C.3     1  LIG1        0.0283
     30 C          -2.0710    1.5420    0.0000 C.3     1  LIG1        0.0963
     31 O          -3.5710    1.6790    0.0000 O.2     1  LIG1       -0.1527
     32 O          -4.5710    0.6790    0.0000 O.2     1  LIG1       -0.1527
@<TRIPOS>BOND
     1     1     2    1
     2     1    11    1
     3     1    31    2
     4     1    32    2
     5     2     3   ar
     6     2    10   ar
     7     3     4   ar
     8     3     7   ar
     9     4     5   ar
    10     4     8   ar
    11     5     6   ar
    12     6     7   ar
    13     8     9   ar
    14     9    10   ar
    15    11    12    1
    16    11    30    1
    17    12    13    1
    18    13    14    1
    19    14    15    1
    20    14    29    1
    21    15    16   am
    22    15    28    2
    23    16    17    1
    24    17    18   ar
    25    17    21   ar
    26    18    19   ar
    27    19    20   ar
    28    19    25   ar
    29    20    21   ar
    30    20    22   ar
    31    22    23   ar
    32    23    24   ar
    33    23    26    1
    34    24    25   ar
    35    26    27    1
    36    29    30    1
