@<TRIPOS>MOLECULE
29910_ChemDiv_C113-0126
 19 20 0 0 0
SMALL
GASTEIGER
Energy = 0

@<TRIPOS>ATOM
      1 S          -0.3330    0.5040    0.0000 S.O2    1  LIG1        0.0786
      2 C          -0.3330    1.5040    0.0000 C.ar    1  LIG1        0.1459
      3 C           0.5290    2.0040    0.0000 C.ar    1  LIG1        0.1617
      4 C           0.5290    3.0040    0.0000 C.ar    1  LIG1        0.1445
      5 N           1.4790    3.3130    0.0000 N.ar    1  LIG1       -0.0482
      6 O           2.0670    2.5040    0.0000 O.2     1  LIG1       -0.2415
      7 N           1.4790    1.7040    0.0000 N.ar    1  LIG1       -0.0469
      8 C          -0.3330    3.5080    0.0000 C.ar    1  LIG1        0.0242
      9 C          -1.2000    3.0040    0.0000 C.ar    1  LIG1        0.0031
     10 C          -1.2000    2.0040    0.0000 C.ar    1  LIG1        0.0217
     11 N          -0.3330   -0.5000    0.0000 N.3     1  LIG1       -0.0724
     12 C          -1.2000   -0.9960    0.0000 C.3     1  LIG1        0.1765
     13 C          -1.2000   -2.0000    0.0000 C.3     1  LIG1        0.2554
     14 O          -0.3330   -2.5000    0.0000 O.3     1  LIG1       -0.3267
     15 C           0.5380   -2.0000    0.0000 C.3     1  LIG1        0.1769
     16 O          -2.0710   -2.5000    0.0000 O.3     1  LIG1       -0.3267
     17 C          -2.0710   -3.5040    0.0000 C.3     1  LIG1        0.1769
     18 O          -1.3330    0.5040    0.0000 O.2     1  LIG1       -0.1515
     19 O           0.6670    0.5040    0.0000 O.2     1  LIG1       -0.1515
@<TRIPOS>BOND
     1     1     2    1
     2     1    11    1
     3     1    18    2
     4     1    19    2
     5     2     3   ar
     6     2    10   ar
     7     3     4   ar
     8     3     7   ar
     9     4     5   ar
    10     4     8   ar
    11     5     6   ar
    12     6     7   ar
    13     8     9   ar
    14     9    10   ar
    15    11    12    1
    16    12    13    1
    17    13    14    1
    18    13    16    1
    19    14    15    1
    20    16    17    1
