@<TRIPOS>MOLECULE
29914_ChemDiv_C259-0563
 27 30 0 0 0
SMALL
GASTEIGER
Energy = 0

@<TRIPOS>ATOM
      1 S          -2.5540    0.6290    0.0000 S.O2    1  LIG1        0.0649
      2 C          -2.5540   -0.3750    0.0000 C.ar    1  LIG1        0.1446
      3 C          -3.4210   -0.8750    0.0000 C.ar    1  LIG1        0.1616
      4 C          -3.4210   -1.8790    0.0000 C.ar    1  LIG1        0.1445
      5 N          -4.3750   -2.1790    0.0000 N.ar    1  LIG1       -0.0482
      6 O          -4.9580   -1.3880    0.0000 O.2     1  LIG1       -0.2415
      7 N          -4.3750   -0.5710    0.0000 N.ar    1  LIG1       -0.0469
      8 C          -2.5540   -2.3790    0.0000 C.ar    1  LIG1        0.0242
      9 C          -1.6880   -1.8790    0.0000 C.ar    1  LIG1        0.0031
     10 C          -1.6880   -0.8750    0.0000 C.ar    1  LIG1        0.0217
     11 N          -1.5540    0.6290    0.0000 N.3     1  LIG1       -0.1555
     12 C          -1.0540   -0.2420    0.0000 C.3     1  LIG1        0.0963
     13 C          -0.0540   -0.2420    0.0000 C.3     1  LIG1        0.0283
     14 C           0.4500    0.6290    0.0000 C.3     1  LIG1        0.0814
     15 C           1.4500    0.6460    0.0000 C.2     1  LIG1        0.2452
     16 N           1.9420    1.5130    0.0000 N.am    1  LIG1       -0.1788
     17 C           2.9500    1.5290    0.0000 C.ar    1  LIG1        0.0861
     18 C           3.4500    0.6630    0.0000 C.ar    1  LIG1        0.0996
     19 C           4.4540    0.6630    0.0000 C.ar    1  LIG1        0.3672
     20 N           4.9540    1.5290    0.0000 N.ar    1  LIG1        0.0892
     21 C           4.4540    2.3830    0.0000 C.ar    1  LIG1        0.3672
     22 C           3.4500    2.3830    0.0000 C.ar    1  LIG1        0.0996
     23 O           1.9500   -0.2210    0.0000 O.2     1  LIG1       -0.2730
     24 C          -0.0540    1.4960    0.0000 C.3     1  LIG1        0.0283
     25 C          -1.0540    1.4960    0.0000 C.3     1  LIG1        0.0963
     26 O          -2.5540    1.6290    0.0000 O.2     1  LIG1       -0.1527
     27 O          -3.5540    0.6290    0.0000 O.2     1  LIG1       -0.1527
@<TRIPOS>BOND
     1     1     2    1
     2     1    11    1
     3     1    26    2
     4     1    27    2
     5     2     3   ar
     6     2    10   ar
     7     3     4   ar
     8     3     7   ar
     9     4     5   ar
    10     4     8   ar
    11     5     6   ar
    12     6     7   ar
    13     8     9   ar
    14     9    10   ar
    15    11    12    1
    16    11    25    1
    17    12    13    1
    18    13    14    1
    19    14    15    1
    20    14    24    1
    21    15    16   am
    22    15    23    2
    23    16    17    1
    24    17    18   ar
    25    17    22   ar
    26    18    19   ar
    27    19    20   ar
    28    20    21   ar
    29    21    22   ar
    30    24    25    1
