@<TRIPOS>MOLECULE
29927_ChemDiv_3555-0178
 23 25 0 0 0
SMALL
GASTEIGER
Energy = 0

@<TRIPOS>ATOM
      1 N           0.4250    0.7880    0.0000 N.2     1  LIG1       -0.2773
      2 C          -0.4460    0.2670    0.0000 C.2     1  LIG1        0.0644
      3 C          -1.3170    0.7630    0.0000 C.ar    1  LIG1        0.0101
      4 C          -1.3170    1.7830    0.0000 C.ar    1  LIG1       -0.0192
      5 C          -0.4460    2.2790    0.0000 C.3     1  LIG1        0.0488
      6 C           0.4250    1.7580    0.0000 C.3     1  LIG1        0.0884
      7 C           1.0710    0.9920    0.0000 C.3     1  LIG1        0.0247
      8 C           0.7790    2.7040    0.0000 C.3     1  LIG1        0.0247
      9 C          -2.1830    2.2790    0.0000 C.ar    1  LIG1       -0.0042
     10 C          -3.0540    1.7580    0.0000 C.ar    1  LIG1       -0.0003
     11 C          -3.0540    0.7880    0.0000 C.ar    1  LIG1        0.0000
     12 C          -2.1830    0.2670    0.0000 C.ar    1  LIG1        0.0009
     13 C          -0.4460   -0.7290    0.0000 C.3     1  LIG1        0.1072
     14 S           0.4250   -1.2250    0.0000 S.3     1  LIG1       -0.1072
     15 C           1.2960   -0.7290    0.0000 C.ar    1  LIG1        0.0267
     16 C           2.1670   -1.2250    0.0000 C.ar    1  LIG1        0.0197
     17 C           2.1670   -2.2210    0.0000 C.2     1  LIG1        0.0733
     18 O           3.0500   -2.7000    0.0000 O.co2   1  LIG1       -0.5446
     19 O           1.2790   -2.6290    0.0000 O.co2   1  LIG1       -0.5446
     20 C           3.0330   -0.7040    0.0000 C.ar    1  LIG1        0.0016
     21 C           3.0330    0.2670    0.0000 C.ar    1  LIG1        0.0001
     22 C           2.1670    0.7630    0.0000 C.ar    1  LIG1        0.0005
     23 C           1.2960    0.2670    0.0000 C.ar    1  LIG1        0.0062
@<TRIPOS>BOND
     1     1     2    2
     2     1     6    1
     3     2     3    1
     4     2    13    1
     5     3     4   ar
     6     3    12   ar
     7     4     5    1
     8     4     9   ar
     9     5     6    1
    10     6     7    1
    11     6     8    1
    12     9    10   ar
    13    10    11   ar
    14    11    12   ar
    15    13    14    1
    16    14    15    1
    17    15    16   ar
    18    15    23   ar
    19    16    17    1
    20    16    20   ar
    21    17    18   ar
    22    17    19   ar
    23    20    21   ar
    24    21    22   ar
    25    22    23   ar
