@<TRIPOS>MOLECULE
29925_ChemDiv_8013-7699
 21 24 0 0 0
SMALL
GASTEIGER
Energy = 0

@<TRIPOS>ATOM
      1 N           1.7250   -0.5170    0.0000 N.2     1  LIG1       -0.2677
      2 C           0.8630   -0.9960    0.0000 C.2     1  LIG1        0.1009
      3 C           0.0000   -0.5170    0.0000 C.ar    1  LIG1        0.0192
      4 C           0.0000    0.4880    0.0000 C.ar    1  LIG1       -0.0187
      5 C           0.8630    1.0170    0.0000 C.3     1  LIG1        0.0430
      6 C           1.7250    0.4880    0.0000 C.3     1  LIG1        0.0889
      7 C           2.5880    0.0080    0.0000 C.3     1  LIG1        0.0247
      8 C           2.5880    1.0170    0.0000 C.3     1  LIG1        0.0228
      9 C           2.5880    2.0250    0.0000 C.3     1  LIG1        0.0019
     10 C           1.7250    2.5040    0.0000 C.3     1  LIG1        0.0005
     11 C           0.8630    2.0250    0.0000 C.3     1  LIG1        0.0062
     12 C          -0.8670    1.0170    0.0000 C.ar    1  LIG1       -0.0039
     13 C          -1.7290    0.4880    0.0000 C.ar    1  LIG1       -0.0003
     14 C          -1.7290   -0.5170    0.0000 C.ar    1  LIG1        0.0000
     15 C          -0.8670   -0.9960    0.0000 C.ar    1  LIG1        0.0017
     16 C          -2.5920    1.0170    0.0000 C.ar    1  LIG1       -0.0000
     17 C          -2.5920    2.0250    0.0000 C.ar    1  LIG1       -0.0000
     18 C          -1.7290    2.5040    0.0000 C.ar    1  LIG1       -0.0000
     19 C          -0.8670    2.0250    0.0000 C.ar    1  LIG1       -0.0003
     20 S           0.8630   -2.0040    0.0000 S.3     1  LIG1       -0.0945
     21 C           1.7250   -2.5000    0.0000 C.3     1  LIG1        0.0757
@<TRIPOS>BOND
     1     1     2    2
     2     1     6    1
     3     2     3    1
     4     2    20    1
     5     3     4   ar
     6     3    15   ar
     7     4     5    1
     8     4    12   ar
     9     5     6    1
    10     5    11    1
    11     6     7    1
    12     6     8    1
    13     8     9    1
    14     9    10    1
    15    10    11    1
    16    12    13   ar
    17    12    19   ar
    18    13    14   ar
    19    13    16   ar
    20    14    15   ar
    21    16    17   ar
    22    17    18   ar
    23    18    19   ar
    24    20    21    1
