@<TRIPOS>MOLECULE
29921_ChemDiv_8013-1480
 17 18 0 0 0
SMALL
GASTEIGER
Energy = 0

@<TRIPOS>ATOM
      1 C           0.8920   -0.7630    0.0000 C.2     1  LIG1        0.1010
      2 N           1.8250   -0.2580    0.0000 N.2     1  LIG1       -0.2677
      3 C           1.8250    0.7540    0.0000 C.3     1  LIG1        0.0893
      4 C           0.8920    1.2540    0.0000 C.3     1  LIG1        0.0489
      5 C           0.0080    0.7540    0.0000 C.ar    1  LIG1       -0.0152
      6 C           0.0080   -0.2580    0.0000 C.ar    1  LIG1        0.0226
      7 C          -0.8750   -0.7630    0.0000 C.ar    1  LIG1        0.0469
      8 C          -1.7670   -0.2580    0.0000 C.ar    1  LIG1        0.2293
      9 C          -1.7670    0.7540    0.0000 C.ar    1  LIG1        0.1771
     10 C          -0.8750    1.2540    0.0000 C.ar    1  LIG1        0.0361
     11 O          -2.6500    1.2540    0.0000 O.3     1  LIG1       -0.4682
     12 C          -2.6500    2.2630    0.0000 C.3     1  LIG1        0.2526
     13 O          -2.6330   -0.7580    0.0000 O.3     1  LIG1       -0.2833
     14 C           1.8250    1.6540    0.0000 C.3     1  LIG1        0.0247
     15 C           2.6460    0.7540    0.0000 C.3     1  LIG1        0.0247
     16 S           0.8920   -1.7580    0.0000 S.3     1  LIG1       -0.0945
     17 C           1.7540   -2.2580    0.0000 C.3     1  LIG1        0.0757
@<TRIPOS>BOND
     1     1     2    2
     2     1     6    1
     3     1    16    1
     4     2     3    1
     5     3     4    1
     6     3    14    1
     7     3    15    1
     8     4     5    1
     9     5     6   ar
    10     5    10   ar
    11     6     7   ar
    12     7     8   ar
    13     8     9   ar
    14     8    13    1
    15     9    10   ar
    16     9    11    1
    17    11    12    1
    18    16    17    1
