@<TRIPOS>MOLECULE
29928_ChemDiv_4312-1371
 26 28 0 0 0
SMALL
GASTEIGER
Energy = 0

@<TRIPOS>ATOM
      1 C          -1.1920    0.5040    0.0000 C.ar    1  LIG1        0.1295
      2 C          -1.1920   -0.5080    0.0000 C.ar    1  LIG1        0.3502
      3 O          -2.0630   -1.0000    0.0000 O.2     1  LIG1       -0.4201
      4 C          -2.9460   -0.4920    0.0000 C.ar    1  LIG1        0.1592
      5 C          -2.9290    0.5040    0.0000 C.ar    1  LIG1        0.0367
      6 C          -2.0630    1.0080    0.0000 C.ar    1  LIG1        0.0141
      7 C          -3.8000    1.0080    0.0000 C.ar    1  LIG1        0.0145
      8 C          -4.6630    0.5040    0.0000 C.ar    1  LIG1        0.0587
      9 C          -4.6630   -0.5080    0.0000 C.ar    1  LIG1        0.0259
     10 C          -3.8000   -1.0000    0.0000 C.ar    1  LIG1        0.0930
     11 CL         -3.8000   -2.0000    0.0000 Cl      1  LIG1       -0.0790
     12 CL         -5.5210    1.0040    0.0000 Cl      1  LIG1       -0.0822
     13 O          -0.3380   -1.0000    0.0000 O.2     1  LIG1       -0.2443
     14 C          -0.3380    1.0040    0.0000 C.2     1  LIG1        0.2554
     15 N           0.5290    0.5040    0.0000 N.am    1  LIG1       -0.2724
     16 C           1.0290   -0.3630    0.0000 C.3     1  LIG1        0.1153
     17 C           2.0250   -0.3630    0.0000 C.3     1  LIG1        0.1182
     18 N           2.5170    0.5040    0.0000 N.am    1  LIG1       -0.2425
     19 C           3.5250    0.4880    0.0000 C.2     1  LIG1        0.4050
     20 O           4.0250    1.3500    0.0000 O.2     1  LIG1       -0.2262
     21 O           4.0250   -0.3880    0.0000 O.3     1  LIG1       -0.4345
     22 C           5.0170   -0.3880    0.0000 C.3     1  LIG1        0.2102
     23 C           5.5170   -1.2580    0.0000 C.3     1  LIG1        0.0513
     24 C           2.0250    1.3670    0.0000 C.3     1  LIG1        0.1182
     25 C           1.0290    1.3670    0.0000 C.3     1  LIG1        0.1153
     26 O          -0.3380    2.0040    0.0000 O.2     1  LIG1       -0.2697
@<TRIPOS>BOND
     1     1     2   ar
     2     1     6   ar
     3     1    14    1
     4     2     3   ar
     5     2    13    2
     6     3     4   ar
     7     4     5   ar
     8     4    10   ar
     9     5     6   ar
    10     5     7   ar
    11     7     8   ar
    12     8     9   ar
    13     8    12    1
    14     9    10   ar
    15    10    11    1
    16    14    15   am
    17    14    26    2
    18    15    16    1
    19    15    25    1
    20    16    17    1
    21    17    18    1
    22    18    19   am
    23    18    24    1
    24    19    20    2
    25    19    21    1
    26    21    22    1
    27    22    23    1
    28    24    25    1
