@<TRIPOS>MOLECULE
29929_ChemDiv_8013-4051
 22 24 0 0 0
SMALL
GASTEIGER
Energy = 0

@<TRIPOS>ATOM
      1 N           1.2880    1.4630    0.0000 N.2     1  LIG1       -0.2773
      2 C           1.2880    0.4580    0.0000 C.2     1  LIG1        0.0645
      3 C           2.1460   -0.0290    0.0000 C.ar    1  LIG1        0.0101
      4 C           3.0040    0.4460    0.0000 C.ar    1  LIG1       -0.0192
      5 C           3.0040    1.4380    0.0000 C.3     1  LIG1        0.0488
      6 C           2.1460    1.9500    0.0000 C.3     1  LIG1        0.0884
      7 C           1.2540    2.5580    0.0000 C.3     1  LIG1        0.0247
      8 C           3.0500    2.5250    0.0000 C.3     1  LIG1        0.0247
      9 C           3.8630   -0.0420    0.0000 C.ar    1  LIG1       -0.0042
     10 C           3.8630   -1.0500    0.0000 C.ar    1  LIG1       -0.0003
     11 C           3.0040   -1.5380    0.0000 C.ar    1  LIG1        0.0000
     12 C           2.1460   -1.0170    0.0000 C.ar    1  LIG1        0.0009
     13 C           0.4290   -0.0540    0.0000 C.3     1  LIG1        0.1102
     14 S          -0.4170    0.4380    0.0000 S.3     1  LIG1       -0.0693
     15 C          -1.2750   -0.0670    0.0000 C.ar    1  LIG1        0.1897
     16 N          -2.1420    0.4080    0.0000 N.ar    1  LIG1       -0.2256
     17 C          -3.0080   -0.0790    0.0000 C.ar    1  LIG1        0.0627
     18 C          -2.9960   -1.0830    0.0000 C.ar    1  LIG1        0.0295
     19 C          -2.1420   -1.5630    0.0000 C.ar    1  LIG1        0.0627
     20 N          -1.2750   -1.0580    0.0000 N.ar    1  LIG1       -0.2256
     21 C          -2.1540   -2.5540    0.0000 C.3     1  LIG1        0.0522
     22 C          -3.8670    0.4250    0.0000 C.3     1  LIG1        0.0522
@<TRIPOS>BOND
     1     1     2    2
     2     1     6    1
     3     2     3    1
     4     2    13    1
     5     3     4   ar
     6     3    12   ar
     7     4     5    1
     8     4     9   ar
     9     5     6    1
    10     6     7    1
    11     6     8    1
    12     9    10   ar
    13    10    11   ar
    14    11    12   ar
    15    13    14    1
    16    14    15    1
    17    15    16   ar
    18    15    20   ar
    19    16    17   ar
    20    17    18   ar
    21    17    22    1
    22    18    19   ar
    23    19    20   ar
    24    19    21    1
