@<TRIPOS>MOLECULE
29923_ChemDiv_8013-7377
 23 26 0 0 0
SMALL
GASTEIGER
Energy = 0

@<TRIPOS>ATOM
      1 C           1.7380   -0.9920    0.0000 C.2     1  LIG1        0.1009
      2 N           2.6000   -0.4790    0.0000 N.2     1  LIG1       -0.2677
      3 C           2.6000    0.5250    0.0000 C.3     1  LIG1        0.0889
      4 C           1.7380    1.0170    0.0000 C.3     1  LIG1        0.0430
      5 C           0.8750    0.5250    0.0000 C.ar    1  LIG1       -0.0188
      6 C           0.8750   -0.4790    0.0000 C.ar    1  LIG1        0.0192
      7 C          -0.0040   -0.9920    0.0000 C.ar    1  LIG1        0.0018
      8 C          -0.8670   -0.4790    0.0000 C.ar    1  LIG1        0.0031
      9 C          -0.8670    0.5250    0.0000 C.ar    1  LIG1       -0.0002
     10 C          -0.0040    1.0170    0.0000 C.ar    1  LIG1       -0.0042
     11 C          -1.7250   -0.9920    0.0000 C.ar    1  LIG1        0.0369
     12 C          -1.7250   -1.9920    0.0000 C.ar    1  LIG1        0.1387
     13 C          -0.8670   -2.4830    0.0000 C.ar    1  LIG1        0.0369
     14 C          -0.0040   -1.9920    0.0000 C.ar    1  LIG1        0.0032
     15 O          -2.5880   -2.5080    0.0000 O.3     1  LIG1       -0.4714
     16 C          -3.4670   -1.9920    0.0000 C.3     1  LIG1        0.2525
     17 C           1.7380    2.0210    0.0000 C.3     1  LIG1        0.0062
     18 C           2.6000    2.5130    0.0000 C.3     1  LIG1        0.0005
     19 C           3.4630    2.0210    0.0000 C.3     1  LIG1        0.0019
     20 C           3.4630    1.0170    0.0000 C.3     1  LIG1        0.0228
     21 C           3.4630    0.0130    0.0000 C.3     1  LIG1        0.0247
     22 S           1.7380   -1.9710    0.0000 S.3     1  LIG1       -0.0945
     23 C           2.6000   -2.4830    0.0000 C.3     1  LIG1        0.0757
@<TRIPOS>BOND
     1     1     2    2
     2     1     6    1
     3     1    22    1
     4     2     3    1
     5     3     4    1
     6     3    20    1
     7     3    21    1
     8     4     5    1
     9     4    17    1
    10     5     6   ar
    11     5    10   ar
    12     6     7   ar
    13     7     8   ar
    14     7    14   ar
    15     8     9   ar
    16     8    11   ar
    17     9    10   ar
    18    11    12   ar
    19    12    13   ar
    20    12    15    1
    21    13    14   ar
    22    15    16    1
    23    17    18    1
    24    18    19    1
    25    19    20    1
    26    22    23    1
