@<TRIPOS>MOLECULE
29937_ChemDiv_4109-1966
 36 39 0 0 0
SMALL
GASTEIGER
Energy = 0

@<TRIPOS>ATOM
      1 S           0.8330    3.9130    0.0000 S.O2    1  LIG1        0.0764
      2 C          -0.0290    3.3920    0.0000 C.ar    1  LIG1        0.1196
      3 C          -0.0210    2.3830    0.0000 C.ar    1  LIG1        0.0212
      4 C          -0.8920    1.8790    0.0000 C.ar    1  LIG1        0.0207
      5 C          -0.8750    0.8710    0.0000 C.ar    1  LIG1        0.1030
      6 N           0.0130    0.3670    0.0000 N.ar    1  LIG1       -0.1467
      7 N           0.0250   -0.6580    0.0000 N.ar    1  LIG1       -0.1311
      8 C          -0.8460   -1.1630    0.0000 C.ar    1  LIG1        0.1734
      9 C          -1.7290   -0.6750    0.0000 C.ar    1  LIG1        0.0366
     10 C          -1.7380    0.3420    0.0000 C.ar    1  LIG1        0.0222
     11 C          -2.6170    0.8540    0.0000 C.ar    1  LIG1        0.0016
     12 C          -3.4790    0.3420    0.0000 C.ar    1  LIG1        0.0001
     13 C          -3.4790   -0.6750    0.0000 C.ar    1  LIG1        0.0001
     14 C          -2.6170   -1.1630    0.0000 C.ar    1  LIG1        0.0029
     15 N          -0.8380   -2.1710    0.0000 N.pl3   1  LIG1       -0.1927
     16 C           0.0290   -2.6750    0.0000 C.ar    1  LIG1        0.0723
     17 C           0.0170   -3.6750    0.0000 C.ar    1  LIG1        0.0179
     18 C           0.8790   -4.1880    0.0000 C.ar    1  LIG1        0.0213
     19 C           1.7500   -3.6880    0.0000 C.ar    1  LIG1        0.1251
     20 S           2.6130   -4.1880    0.0000 S.O2    1  LIG1        0.0935
     21 O           3.3130   -3.4790    0.0000 O.2     1  LIG1       -0.1503
     22 O           1.9000   -4.9000    0.0000 O.2     1  LIG1       -0.1503
     23 N           3.4750   -4.6880    0.0000 N.3     1  LIG1        0.0392
     24 C           1.7540   -2.6880    0.0000 C.ar    1  LIG1        0.0213
     25 C           0.8920   -2.1880    0.0000 C.ar    1  LIG1        0.0179
     26 C          -1.7580    2.3540    0.0000 C.ar    1  LIG1        0.0013
     27 C          -1.7830    3.3630    0.0000 C.ar    1  LIG1       -0.0029
     28 C          -0.9130    3.8920    0.0000 C.ar    1  LIG1       -0.0032
     29 C          -0.9290    4.9000    0.0000 C.3     1  LIG1        0.0324
     30 N           1.7080    4.4170    0.0000 N.3     1  LIG1       -0.0807
     31 C           2.5880    3.9210    0.0000 C.3     1  LIG1        0.0827
     32 C           2.9460    4.8420    0.0000 C.3     1  LIG1        0.0194
     33 C           2.7540    3.0580    0.0000 C.3     1  LIG1        0.0194
     34 C           3.4670    3.8170    0.0000 C.3     1  LIG1        0.0194
     35 O           0.3290    4.7790    0.0000 O.2     1  LIG1       -0.1516
     36 O           1.3330    3.0420    0.0000 O.2     1  LIG1       -0.1516
@<TRIPOS>BOND
     1     1     2    1
     2     1    30    1
     3     1    35    2
     4     1    36    2
     5     2     3   ar
     6     2    28   ar
     7     3     4   ar
     8     4     5    1
     9     4    26   ar
    10     5     6   ar
    11     5    10   ar
    12     6     7   ar
    13     7     8   ar
    14     8     9   ar
    15     8    15    1
    16     9    10   ar
    17     9    14   ar
    18    10    11   ar
    19    11    12   ar
    20    12    13   ar
    21    13    14   ar
    22    15    16    1
    23    16    17   ar
    24    16    25   ar
    25    17    18   ar
    26    18    19   ar
    27    19    20    1
    28    19    24   ar
    29    20    21    2
    30    20    22    2
    31    20    23    1
    32    24    25   ar
    33    26    27   ar
    34    27    28   ar
    35    28    29    1
    36    30    31    1
    37    31    32    1
    38    31    33    1
    39    31    34    1
