@<TRIPOS>MOLECULE
29934_ChemDiv_8013-3803
 25 28 0 0 0
SMALL
GASTEIGER
Energy = 0

@<TRIPOS>ATOM
      1 C           2.0750   -0.7460    0.0000 C.ar    1  LIG1        0.1295
      2 C           2.9460   -1.2380    0.0000 C.ar    1  LIG1        0.3502
      3 O           3.8040   -0.7330    0.0000 O.2     1  LIG1       -0.4209
      4 C           3.7920    0.2670    0.0000 C.ar    1  LIG1        0.1487
      5 C           2.9250    0.7580    0.0000 C.ar    1  LIG1        0.0350
      6 C           2.0580    0.2540    0.0000 C.ar    1  LIG1        0.0141
      7 C           2.9210    1.7500    0.0000 C.ar    1  LIG1        0.0030
      8 C           3.7710    2.2500    0.0000 C.ar    1  LIG1        0.0002
      9 C           4.6420    1.7670    0.0000 C.ar    1  LIG1        0.0031
     10 C           4.6540    0.7710    0.0000 C.ar    1  LIG1        0.0376
     11 O           2.9540   -2.2380    0.0000 O.2     1  LIG1       -0.2443
     12 C           1.2130   -1.2580    0.0000 C.2     1  LIG1        0.2554
     13 N           0.3460   -0.7500    0.0000 N.am    1  LIG1       -0.2724
     14 C          -0.1460   -1.6210    0.0000 C.3     1  LIG1        0.1151
     15 C          -1.1580   -1.6250    0.0000 C.3     1  LIG1        0.1123
     16 N          -1.6630   -0.7540    0.0000 N.pl3   1  LIG1       -0.3041
     17 C          -1.1630    0.1170    0.0000 C.3     1  LIG1        0.1123
     18 C          -0.1630    0.1170    0.0000 C.3     1  LIG1        0.1151
     19 C          -2.6580   -0.7540    0.0000 C.ar    1  LIG1        0.0479
     20 C          -3.1580    0.1130    0.0000 C.ar    1  LIG1        0.0145
     21 C          -4.1580    0.1080    0.0000 C.ar    1  LIG1        0.0013
     22 C          -4.6580   -0.7580    0.0000 C.ar    1  LIG1        0.0001
     23 C          -4.1500   -1.6250    0.0000 C.ar    1  LIG1        0.0013
     24 C          -3.1500   -1.6210    0.0000 C.ar    1  LIG1        0.0145
     25 O           1.0830   -2.2500    0.0000 O.2     1  LIG1       -0.2697
@<TRIPOS>BOND
     1     1     2   ar
     2     1     6   ar
     3     1    12    1
     4     2     3   ar
     5     2    11    2
     6     3     4   ar
     7     4     5   ar
     8     4    10   ar
     9     5     6   ar
    10     5     7   ar
    11     7     8   ar
    12     8     9   ar
    13     9    10   ar
    14    12    13   am
    15    12    25    2
    16    13    14    1
    17    13    18    1
    18    14    15    1
    19    15    16    1
    20    16    17    1
    21    16    19    1
    22    17    18    1
    23    19    20   ar
    24    19    24   ar
    25    20    21   ar
    26    21    22   ar
    27    22    23   ar
    28    23    24   ar
