@<TRIPOS>MOLECULE
29933_ChemDiv_3555-0187
 28 31 0 0 0
SMALL
GASTEIGER
Energy = 0

@<TRIPOS>ATOM
      1 C           0.0290    1.0630    0.0000 C.2     1  LIG1        0.3626
      2 N           0.8790    1.5460    0.0000 N.2     1  LIG1       -0.0704
      3 C           0.8790    2.6000    0.0000 C.3     1  LIG1        0.1792
      4 C           0.0290    3.0630    0.0000 C.3     1  LIG1        0.0756
      5 C          -0.8460    2.5630    0.0000 C.ar    1  LIG1       -0.0075
      6 C          -0.8460    1.5630    0.0000 C.ar    1  LIG1        0.0854
      7 C          -1.7000    1.0630    0.0000 C.ar    1  LIG1        0.0472
      8 C          -2.5750    1.5630    0.0000 C.ar    1  LIG1        0.1726
      9 C          -2.5750    2.5630    0.0000 C.ar    1  LIG1        0.1721
     10 C          -1.7000    3.0630    0.0000 C.ar    1  LIG1        0.0362
     11 O          -3.4380    3.0500    0.0000 O.3     1  LIG1       -0.4684
     12 C          -3.4380    4.0460    0.0000 C.3     1  LIG1        0.2526
     13 O          -3.4380    1.0790    0.0000 O.3     1  LIG1       -0.4684
     14 C          -4.2880    1.5630    0.0000 C.3     1  LIG1        0.2526
     15 C           1.7380    2.1080    0.0000 C.3     1  LIG1        0.0536
     16 C           0.8790    3.6130    0.0000 C.3     1  LIG1        0.0536
     17 N           0.0290    0.0630    0.0000 N.pl3   1  LIG1        0.0213
     18 C           0.8790   -0.4380    0.0000 C.ar    1  LIG1        0.2980
     19 N           1.1080   -1.4380    0.0000 N.ar    1  LIG1       -0.1996
     20 C           2.1080   -1.5420    0.0000 C.ar    1  LIG1        0.0920
     21 C           2.5040   -0.6080    0.0000 C.ar    1  LIG1        0.0596
     22 S           1.7790    0.0630    0.0000 S.2     1  LIG1       -0.0212
     23 C           2.6750   -2.3420    0.0000 C.ar    1  LIG1        0.0183
     24 C           3.6750   -2.2170    0.0000 C.ar    1  LIG1        0.0015
     25 C           4.2830   -3.0420    0.0000 C.ar    1  LIG1        0.0000
     26 C           3.8580   -3.9420    0.0000 C.ar    1  LIG1        0.0000
     27 C           2.8580   -4.0460    0.0000 C.ar    1  LIG1        0.0000
     28 C           2.2790   -3.2380    0.0000 C.ar    1  LIG1        0.0015
@<TRIPOS>BOND
     1     1     2    2
     2     1     6    1
     3     1    17    1
     4     2     3    1
     5     3     4    1
     6     3    15    1
     7     3    16    1
     8     4     5    1
     9     5     6   ar
    10     5    10   ar
    11     6     7   ar
    12     7     8   ar
    13     8     9   ar
    14     8    13    1
    15     9    10   ar
    16     9    11    1
    17    11    12    1
    18    13    14    1
    19    17    18    1
    20    18    19   ar
    21    18    22   ar
    22    19    20   ar
    23    20    21   ar
    24    20    23    1
    25    21    22   ar
    26    23    24   ar
    27    23    28   ar
    28    24    25   ar
    29    25    26   ar
    30    26    27   ar
    31    27    28   ar
