@<TRIPOS>MOLECULE
29936_ChemDiv_8013-3876
 30 33 0 0 0
SMALL
GASTEIGER
Energy = 0

@<TRIPOS>ATOM
      1 C           1.3210   -0.4920    0.0000 C.ar    1  LIG1        0.1295
      2 C           0.4460   -0.9880    0.0000 C.ar    1  LIG1        0.3503
      3 O           0.4460   -1.9830    0.0000 O.2     1  LIG1       -0.4178
      4 C           1.3080   -2.4920    0.0000 C.ar    1  LIG1        0.1823
      5 C           2.1790   -1.9920    0.0000 C.ar    1  LIG1        0.0386
      6 C           2.1790   -0.9880    0.0000 C.ar    1  LIG1        0.0142
      7 C           3.0380   -2.4920    0.0000 C.ar    1  LIG1        0.0099
      8 C           3.0380   -3.4830    0.0000 C.ar    1  LIG1        0.0378
      9 C           2.1710   -3.9960    0.0000 C.ar    1  LIG1        0.0468
     10 C           1.3080   -3.4830    0.0000 C.ar    1  LIG1        0.1736
     11 O           0.4460   -3.9830    0.0000 O.3     1  LIG1       -0.4683
     12 C           0.4380   -4.9920    0.0000 C.3     1  LIG1        0.2526
     13 BR          3.9000   -3.9830    0.0000 Br      1  LIG1       -0.0489
     14 O          -0.4130   -0.4920    0.0000 O.2     1  LIG1       -0.2443
     15 C           1.3210    0.5000    0.0000 C.2     1  LIG1        0.2554
     16 N           0.4380    1.0170    0.0000 N.am    1  LIG1       -0.2724
     17 C           0.4380    2.0040    0.0000 C.3     1  LIG1        0.1151
     18 C          -0.4380    2.5000    0.0000 C.3     1  LIG1        0.1123
     19 N          -1.3130    2.0040    0.0000 N.pl3   1  LIG1       -0.3043
     20 C          -2.1830    2.5000    0.0000 C.ar    1  LIG1        0.0436
     21 C          -3.0290    2.0040    0.0000 C.ar    1  LIG1       -0.0085
     22 C          -3.8920    2.4880    0.0000 C.ar    1  LIG1       -0.0034
     23 C          -3.9040    3.4960    0.0000 C.ar    1  LIG1       -0.0045
     24 C          -3.0290    4.0000    0.0000 C.ar    1  LIG1       -0.0206
     25 C          -2.1830    3.5040    0.0000 C.ar    1  LIG1        0.0099
     26 C          -3.0420    4.9920    0.0000 C.3     1  LIG1        0.0311
     27 C          -3.0170    1.0170    0.0000 C.3     1  LIG1        0.0323
     28 C          -1.3130    1.0000    0.0000 C.3     1  LIG1        0.1123
     29 C          -0.4380    0.4920    0.0000 C.3     1  LIG1        0.1151
     30 O           2.1790    1.0210    0.0000 O.2     1  LIG1       -0.2697
@<TRIPOS>BOND
     1     1     2   ar
     2     1     6   ar
     3     1    15    1
     4     2     3   ar
     5     2    14    2
     6     3     4   ar
     7     4     5   ar
     8     4    10   ar
     9     5     6   ar
    10     5     7   ar
    11     7     8   ar
    12     8     9   ar
    13     8    13    1
    14     9    10   ar
    15    10    11    1
    16    11    12    1
    17    15    16   am
    18    15    30    2
    19    16    17    1
    20    16    29    1
    21    17    18    1
    22    18    19    1
    23    19    20    1
    24    19    28    1
    25    20    21   ar
    26    20    25   ar
    27    21    22   ar
    28    21    27    1
    29    22    23   ar
    30    23    24   ar
    31    24    25   ar
    32    24    26    1
    33    28    29    1
