@<TRIPOS>MOLECULE
29939_ChemDiv_4109-1990
 36 40 0 0 0
SMALL
GASTEIGER
Energy = 0

@<TRIPOS>ATOM
      1 S           0.8000    3.4830    0.0000 S.O2    1  LIG1        0.0630
      2 C          -0.0540    2.9670    0.0000 C.ar    1  LIG1        0.1183
      3 C          -0.0460    1.9670    0.0000 C.ar    1  LIG1        0.0211
      4 C          -0.9130    1.4630    0.0000 C.ar    1  LIG1        0.0207
      5 C          -0.8960    0.4630    0.0000 C.ar    1  LIG1        0.1030
      6 N          -0.0170   -0.0380    0.0000 N.ar    1  LIG1       -0.1467
      7 N           0.0000   -1.0540    0.0000 N.ar    1  LIG1       -0.1311
      8 C          -0.8670   -1.5540    0.0000 C.ar    1  LIG1        0.1734
      9 C          -1.7420   -1.0710    0.0000 C.ar    1  LIG1        0.0366
     10 C          -1.7540   -0.0630    0.0000 C.ar    1  LIG1        0.0222
     11 C          -2.6250    0.4460    0.0000 C.ar    1  LIG1        0.0016
     12 C          -3.4790   -0.0630    0.0000 C.ar    1  LIG1        0.0001
     13 C          -3.4790   -1.0710    0.0000 C.ar    1  LIG1        0.0001
     14 C          -2.6250   -1.5540    0.0000 C.ar    1  LIG1        0.0029
     15 N          -0.8540   -2.5580    0.0000 N.pl3   1  LIG1       -0.1927
     16 C           0.0170   -3.0420    0.0000 C.ar    1  LIG1        0.0722
     17 C           0.8630   -2.5250    0.0000 C.ar    1  LIG1        0.0167
     18 C           1.7330   -3.0080    0.0000 C.ar    1  LIG1        0.0060
     19 C           1.7580   -4.0040    0.0000 C.ar    1  LIG1        0.0567
     20 C           2.6210   -4.4830    0.0000 C.2     1  LIG1        0.2842
     21 O           2.6460   -5.4750    0.0000 O.2     1  LIG1       -0.2667
     22 N           3.4750   -3.9750    0.0000 N.am    1  LIG1       -0.0837
     23 C           0.9000   -4.5250    0.0000 C.ar    1  LIG1        0.0060
     24 C           0.0290   -4.0330    0.0000 C.ar    1  LIG1        0.0167
     25 C          -1.7710    1.9330    0.0000 C.ar    1  LIG1        0.0013
     26 C          -1.7960    2.9380    0.0000 C.ar    1  LIG1       -0.0029
     27 C          -0.9290    3.4630    0.0000 C.ar    1  LIG1       -0.0032
     28 C          -0.9460    4.4670    0.0000 C.3     1  LIG1        0.0324
     29 N           1.6750    3.9880    0.0000 N.3     1  LIG1       -0.1555
     30 C           1.6580    4.9790    0.0000 C.3     1  LIG1        0.0958
     31 C           2.5290    5.4750    0.0000 C.3     1  LIG1        0.0192
     32 C           3.4000    4.9790    0.0000 C.3     1  LIG1        0.0030
     33 C           3.3960    3.9880    0.0000 C.3     1  LIG1        0.0192
     34 C           2.5380    3.4920    0.0000 C.3     1  LIG1        0.0958
     35 O           1.2960    2.6210    0.0000 O.2     1  LIG1       -0.1528
     36 O           0.3000    4.3460    0.0000 O.2     1  LIG1       -0.1528
@<TRIPOS>BOND
     1     1     2    1
     2     1    29    1
     3     1    35    2
     4     1    36    2
     5     2     3   ar
     6     2    27   ar
     7     3     4   ar
     8     4     5    1
     9     4    25   ar
    10     5     6   ar
    11     5    10   ar
    12     6     7   ar
    13     7     8   ar
    14     8     9   ar
    15     8    15    1
    16     9    10   ar
    17     9    14   ar
    18    10    11   ar
    19    11    12   ar
    20    12    13   ar
    21    13    14   ar
    22    15    16    1
    23    16    17   ar
    24    16    24   ar
    25    17    18   ar
    26    18    19   ar
    27    19    20    1
    28    19    23   ar
    29    20    21    2
    30    20    22   am
    31    23    24   ar
    32    25    26   ar
    33    26    27   ar
    34    27    28    1
    35    29    30    1
    36    29    34    1
    37    30    31    1
    38    31    32    1
    39    32    33    1
    40    33    34    1
