@<TRIPOS>MOLECULE
29932_ChemDiv_6049-2944
 26 29 0 0 0
SMALL
GASTEIGER
Energy = 0

@<TRIPOS>ATOM
      1 C           2.9920    0.8670    0.0000 C.ar    1  LIG1        0.1295
      2 C           3.9920    0.8670    0.0000 C.ar    1  LIG1        0.3502
      3 O           4.5000   -0.0040    0.0000 O.2     1  LIG1       -0.4209
      4 C           4.0000   -0.8630    0.0000 C.ar    1  LIG1        0.1487
      5 C           2.9830   -0.8710    0.0000 C.ar    1  LIG1        0.0350
      6 C           2.4960   -0.0040    0.0000 C.ar    1  LIG1        0.0141
      7 C           2.4880   -1.7420    0.0000 C.ar    1  LIG1        0.0030
      8 C           2.9920   -2.6000    0.0000 C.ar    1  LIG1        0.0002
      9 C           3.9920   -2.6000    0.0000 C.ar    1  LIG1        0.0031
     10 C           4.4920   -1.7420    0.0000 C.ar    1  LIG1        0.0376
     11 O           4.4750    1.7380    0.0000 O.2     1  LIG1       -0.2443
     12 C           2.5040    1.7330    0.0000 C.2     1  LIG1        0.2554
     13 N           1.5000    1.7330    0.0000 N.am    1  LIG1       -0.2724
     14 C           0.9920    0.8580    0.0000 C.3     1  LIG1        0.1151
     15 C          -0.0130    0.8500    0.0000 C.3     1  LIG1        0.1123
     16 N          -0.5040    1.7330    0.0000 N.pl3   1  LIG1       -0.3041
     17 C          -1.4960    1.7420    0.0000 C.ar    1  LIG1        0.0480
     18 C          -2.0000    0.9000    0.0000 C.ar    1  LIG1        0.0154
     19 C          -3.0000    0.9000    0.0000 C.ar    1  LIG1        0.0127
     20 C          -3.5080    1.7420    0.0000 C.ar    1  LIG1        0.0578
     21 C          -2.9880    2.6040    0.0000 C.ar    1  LIG1        0.0127
     22 C          -1.9920    2.6040    0.0000 C.ar    1  LIG1        0.0154
     23 CL         -4.5040    1.7330    0.0000 Cl      1  LIG1       -0.0822
     24 C           0.0040    2.6040    0.0000 C.3     1  LIG1        0.1123
     25 C           0.9920    2.6040    0.0000 C.3     1  LIG1        0.1151
     26 O           3.0000    2.6000    0.0000 O.2     1  LIG1       -0.2697
@<TRIPOS>BOND
     1     1     2   ar
     2     1     6   ar
     3     1    12    1
     4     2     3   ar
     5     2    11    2
     6     3     4   ar
     7     4     5   ar
     8     4    10   ar
     9     5     6   ar
    10     5     7   ar
    11     7     8   ar
    12     8     9   ar
    13     9    10   ar
    14    12    13   am
    15    12    26    2
    16    13    14    1
    17    13    25    1
    18    14    15    1
    19    15    16    1
    20    16    17    1
    21    16    24    1
    22    17    18   ar
    23    17    22   ar
    24    18    19   ar
    25    19    20   ar
    26    20    21   ar
    27    20    23    1
    28    21    22   ar
    29    24    25    1
