@<TRIPOS>MOLECULE
29945_ChemDiv_4109-2025
 37 40 0 0 0
SMALL
GASTEIGER
Energy = 0

@<TRIPOS>ATOM
      1 S          -0.0670    3.4790    0.0000 S.O2    1  LIG1        0.0630
      2 C          -0.9210    2.9750    0.0000 C.ar    1  LIG1        0.1183
      3 C          -0.9130    1.9710    0.0000 C.ar    1  LIG1        0.0211
      4 C          -1.7750    1.4670    0.0000 C.ar    1  LIG1        0.0207
      5 C          -1.7580    0.4580    0.0000 C.ar    1  LIG1        0.1030
      6 N          -0.8830   -0.0460    0.0000 N.ar    1  LIG1       -0.1467
      7 N          -0.8670   -1.0580    0.0000 N.ar    1  LIG1       -0.1311
      8 C          -1.7290   -1.5580    0.0000 C.ar    1  LIG1        0.1734
      9 C          -2.6040   -1.0750    0.0000 C.ar    1  LIG1        0.0366
     10 C          -2.6210   -0.0710    0.0000 C.ar    1  LIG1        0.0222
     11 C          -3.4830    0.4420    0.0000 C.ar    1  LIG1        0.0016
     12 C          -4.3460   -0.0710    0.0000 C.ar    1  LIG1        0.0001
     13 C          -4.3460   -1.0750    0.0000 C.ar    1  LIG1        0.0001
     14 C          -3.4830   -1.5670    0.0000 C.ar    1  LIG1        0.0029
     15 N          -1.7210   -2.5630    0.0000 N.pl3   1  LIG1       -0.1927
     16 C          -0.8540   -3.0540    0.0000 C.ar    1  LIG1        0.0724
     17 C          -0.8380   -4.0500    0.0000 C.ar    1  LIG1        0.0197
     18 C           0.0330   -4.5330    0.0000 C.ar    1  LIG1        0.0383
     19 C           0.8960   -4.0210    0.0000 C.ar    1  LIG1        0.1394
     20 O           1.7540   -4.5210    0.0000 O.3     1  LIG1       -0.4655
     21 C           2.6170   -4.0210    0.0000 C.3     1  LIG1        0.2929
     22 C           3.4790   -4.5210    0.0000 C.2     1  LIG1        0.3052
     23 O           4.3420   -4.0170    0.0000 O.2     1  LIG1       -0.2676
     24 N           3.7380   -5.4790    0.0000 N.am    1  LIG1       -0.0845
     25 C           0.8790   -3.0210    0.0000 C.ar    1  LIG1        0.0383
     26 C           0.0080   -2.5380    0.0000 C.ar    1  LIG1        0.0197
     27 C          -2.6420    1.9500    0.0000 C.ar    1  LIG1        0.0013
     28 C          -2.6670    2.9460    0.0000 C.ar    1  LIG1       -0.0029
     29 C          -1.7960    3.4580    0.0000 C.ar    1  LIG1       -0.0032
     30 C          -1.8080    4.4540    0.0000 C.3     1  LIG1        0.0324
     31 N           0.7920    3.9880    0.0000 N.3     1  LIG1       -0.1555
     32 C           1.6540    3.4920    0.0000 C.3     1  LIG1        0.0958
     33 C           2.5170    3.9880    0.0000 C.3     1  LIG1        0.0206
     34 C           0.7920    4.9830    0.0000 C.3     1  LIG1        0.0958
     35 C           1.6540    5.4790    0.0000 C.3     1  LIG1        0.0206
     36 O          -0.5670    4.3460    0.0000 O.2     1  LIG1       -0.1528
     37 O           0.4330    2.6210    0.0000 O.2     1  LIG1       -0.1528
@<TRIPOS>BOND
     1     1     2    1
     2     1    31    1
     3     1    36    2
     4     1    37    2
     5     2     3   ar
     6     2    29   ar
     7     3     4   ar
     8     4     5    1
     9     4    27   ar
    10     5     6   ar
    11     5    10   ar
    12     6     7   ar
    13     7     8   ar
    14     8     9   ar
    15     8    15    1
    16     9    10   ar
    17     9    14   ar
    18    10    11   ar
    19    11    12   ar
    20    12    13   ar
    21    13    14   ar
    22    15    16    1
    23    16    17   ar
    24    16    26   ar
    25    17    18   ar
    26    18    19   ar
    27    19    20    1
    28    19    25   ar
    29    20    21    1
    30    21    22    1
    31    22    23    2
    32    22    24   am
    33    25    26   ar
    34    27    28   ar
    35    28    29   ar
    36    29    30    1
    37    31    32    1
    38    31    34    1
    39    32    33    1
    40    34    35    1
