@<TRIPOS>MOLECULE
29943_ChemDiv_4109-2020
 39 43 0 0 0
SMALL
GASTEIGER
Energy = 0

@<TRIPOS>ATOM
      1 S          -0.0670    3.8290    0.0000 S.O2    1  LIG1        0.0631
      2 C          -0.9210    3.3250    0.0000 C.ar    1  LIG1        0.1183
      3 C          -0.9130    2.3170    0.0000 C.ar    1  LIG1        0.0211
      4 C          -1.7750    1.8130    0.0000 C.ar    1  LIG1        0.0207
      5 C          -1.7580    0.8040    0.0000 C.ar    1  LIG1        0.1030
      6 N          -0.8830    0.3000    0.0000 N.ar    1  LIG1       -0.1467
      7 N          -0.8670   -0.7130    0.0000 N.ar    1  LIG1       -0.1311
      8 C          -1.7290   -1.2080    0.0000 C.ar    1  LIG1        0.1734
      9 C          -2.6040   -0.7250    0.0000 C.ar    1  LIG1        0.0366
     10 C          -2.6210    0.2750    0.0000 C.ar    1  LIG1        0.0222
     11 C          -3.4830    0.7920    0.0000 C.ar    1  LIG1        0.0016
     12 C          -4.3460    0.2750    0.0000 C.ar    1  LIG1        0.0001
     13 C          -4.3460   -0.7250    0.0000 C.ar    1  LIG1        0.0001
     14 C          -3.4830   -1.2210    0.0000 C.ar    1  LIG1        0.0029
     15 N          -1.7210   -2.2170    0.0000 N.pl3   1  LIG1       -0.1927
     16 C          -0.8540   -2.7040    0.0000 C.ar    1  LIG1        0.0724
     17 C           0.0080   -2.1920    0.0000 C.ar    1  LIG1        0.0197
     18 C           0.8790   -2.6750    0.0000 C.ar    1  LIG1        0.0383
     19 C           0.8960   -3.6710    0.0000 C.ar    1  LIG1        0.1394
     20 O           1.7540   -4.1710    0.0000 O.3     1  LIG1       -0.4656
     21 C           2.6170   -3.6710    0.0000 C.3     1  LIG1        0.2911
     22 C           3.4790   -4.1710    0.0000 C.2     1  LIG1        0.2859
     23 O           4.3420   -3.6670    0.0000 O.2     1  LIG1       -0.2693
     24 N           3.7330   -5.1330    0.0000 N.am    1  LIG1       -0.2004
     25 C           3.0250   -5.8330    0.0000 C.3     1  LIG1        0.1386
     26 C           0.0330   -4.1880    0.0000 C.ar    1  LIG1        0.0383
     27 C          -0.8380   -3.7040    0.0000 C.ar    1  LIG1        0.0197
     28 C          -2.6420    2.2960    0.0000 C.ar    1  LIG1        0.0013
     29 C          -2.6670    3.2920    0.0000 C.ar    1  LIG1       -0.0029
     30 C          -1.7960    3.8080    0.0000 C.ar    1  LIG1       -0.0032
     31 C          -1.8080    4.8000    0.0000 C.3     1  LIG1        0.0324
     32 N           0.7920    4.3330    0.0000 N.3     1  LIG1       -0.1504
     33 C           1.6670    3.8420    0.0000 C.3     1  LIG1        0.1279
     34 C           2.5170    4.3460    0.0000 C.3     1  LIG1        0.1613
     35 O           2.5170    5.3460    0.0000 O.3     1  LIG1       -0.3507
     36 C           1.6500    5.8330    0.0000 C.3     1  LIG1        0.1613
     37 C           0.7790    5.3290    0.0000 C.3     1  LIG1        0.1279
     38 O          -0.5670    4.6960    0.0000 O.2     1  LIG1       -0.1528
     39 O           0.4330    2.9670    0.0000 O.2     1  LIG1       -0.1528
@<TRIPOS>BOND
     1     1     2    1
     2     1    32    1
     3     1    38    2
     4     1    39    2
     5     2     3   ar
     6     2    30   ar
     7     3     4   ar
     8     4     5    1
     9     4    28   ar
    10     5     6   ar
    11     5    10   ar
    12     6     7   ar
    13     7     8   ar
    14     8     9   ar
    15     8    15    1
    16     9    10   ar
    17     9    14   ar
    18    10    11   ar
    19    11    12   ar
    20    12    13   ar
    21    13    14   ar
    22    15    16    1
    23    16    17   ar
    24    16    27   ar
    25    17    18   ar
    26    18    19   ar
    27    19    20    1
    28    19    26   ar
    29    20    21    1
    30    21    22    1
    31    22    23    2
    32    22    24   am
    33    24    25    1
    34    26    27   ar
    35    28    29   ar
    36    29    30   ar
    37    30    31    1
    38    32    33    1
    39    32    37    1
    40    33    34    1
    41    34    35    1
    42    35    36    1
    43    36    37    1
