@<TRIPOS>MOLECULE
29949_ChemDiv_4109-2098
 37 40 0 0 0
SMALL
GASTEIGER
Energy = 0

@<TRIPOS>ATOM
      1 S           0.8170    3.5170    0.0000 S.O2    1  LIG1        0.0630
      2 C          -0.0380    3.0130    0.0000 C.ar    1  LIG1        0.1183
      3 C          -0.0330    2.0040    0.0000 C.ar    1  LIG1        0.0211
      4 C          -0.8960    1.5000    0.0000 C.ar    1  LIG1        0.0207
      5 C          -0.8790    0.4920    0.0000 C.ar    1  LIG1        0.1030
      6 N           0.0000   -0.0130    0.0000 N.ar    1  LIG1       -0.1467
      7 N           0.0130   -1.0290    0.0000 N.ar    1  LIG1       -0.1311
      8 C          -0.8500   -1.5250    0.0000 C.ar    1  LIG1        0.1734
      9 C          -1.7250   -1.0420    0.0000 C.ar    1  LIG1        0.0366
     10 C          -1.7420   -0.0380    0.0000 C.ar    1  LIG1        0.0222
     11 C          -2.6040    0.4750    0.0000 C.ar    1  LIG1        0.0016
     12 C          -3.4670   -0.0380    0.0000 C.ar    1  LIG1        0.0001
     13 C          -3.4670   -1.0420    0.0000 C.ar    1  LIG1        0.0001
     14 C          -2.6040   -1.5380    0.0000 C.ar    1  LIG1        0.0029
     15 N          -0.8380   -2.5250    0.0000 N.pl3   1  LIG1       -0.1927
     16 C           0.0250   -3.0250    0.0000 C.ar    1  LIG1        0.0725
     17 C           0.8750   -2.5330    0.0000 C.ar    1  LIG1        0.0242
     18 C           1.7330   -3.0250    0.0000 C.ar    1  LIG1        0.0918
     19 C           2.5960   -2.5210    0.0000 C.2     1  LIG1        0.2872
     20 O           2.5880   -1.5210    0.0000 O.2     1  LIG1       -0.2666
     21 N           3.4630   -3.0080    0.0000 N.am    1  LIG1       -0.0836
     22 C           1.7330   -4.0250    0.0000 C.ar    1  LIG1        0.1432
     23 C           0.8710   -4.5170    0.0000 C.ar    1  LIG1        0.0384
     24 C           0.0130   -4.0170    0.0000 C.ar    1  LIG1        0.0197
     25 O           2.5960   -4.5210    0.0000 O.3     1  LIG1       -0.4713
     26 C           2.5880   -5.5210    0.0000 C.3     1  LIG1        0.2525
     27 C          -1.7630    1.9830    0.0000 C.ar    1  LIG1        0.0013
     28 C          -1.7880    2.9830    0.0000 C.ar    1  LIG1       -0.0029
     29 C          -0.9170    3.4960    0.0000 C.ar    1  LIG1       -0.0032
     30 C          -0.9290    4.4920    0.0000 C.3     1  LIG1        0.0324
     31 N           1.6790    4.0250    0.0000 N.3     1  LIG1       -0.1555
     32 C           2.5500    3.5330    0.0000 C.3     1  LIG1        0.0958
     33 C           3.4040    4.0370    0.0000 C.3     1  LIG1        0.0206
     34 C           1.6710    5.0210    0.0000 C.3     1  LIG1        0.0958
     35 C           2.5330    5.5210    0.0000 C.3     1  LIG1        0.0206
     36 O           0.3170    4.3880    0.0000 O.2     1  LIG1       -0.1528
     37 O           1.3130    2.6540    0.0000 O.2     1  LIG1       -0.1528
@<TRIPOS>BOND
     1     1     2    1
     2     1    31    1
     3     1    36    2
     4     1    37    2
     5     2     3   ar
     6     2    29   ar
     7     3     4   ar
     8     4     5    1
     9     4    27   ar
    10     5     6   ar
    11     5    10   ar
    12     6     7   ar
    13     7     8   ar
    14     8     9   ar
    15     8    15    1
    16     9    10   ar
    17     9    14   ar
    18    10    11   ar
    19    11    12   ar
    20    12    13   ar
    21    13    14   ar
    22    15    16    1
    23    16    17   ar
    24    16    24   ar
    25    17    18   ar
    26    18    19    1
    27    18    22   ar
    28    19    20    2
    29    19    21   am
    30    22    23   ar
    31    22    25    1
    32    23    24   ar
    33    25    26    1
    34    27    28   ar
    35    28    29   ar
    36    29    30    1
    37    31    32    1
    38    31    34    1
    39    32    33    1
    40    34    35    1
