@<TRIPOS>MOLECULE
29952_ChemDiv_K906-0756
 35 38 0 0 0
SMALL
GASTEIGER
Energy = 0

@<TRIPOS>ATOM
      1 S          -4.4630    0.4080    0.0000 S.O2    1  LIG1        0.0649
      2 C          -4.4630   -0.5920    0.0000 C.ar    1  LIG1        0.1446
      3 C          -5.3250   -1.0920    0.0000 C.ar    1  LIG1        0.1616
      4 C          -5.3250   -2.0920    0.0000 C.ar    1  LIG1        0.1445
      5 N          -6.2710   -2.3960    0.0000 N.ar    1  LIG1       -0.0482
      6 O          -6.8630   -1.5920    0.0000 O.2     1  LIG1       -0.2415
      7 N          -6.2710   -0.7830    0.0000 N.ar    1  LIG1       -0.0469
      8 C          -4.4630   -2.5920    0.0000 C.ar    1  LIG1        0.0242
      9 C          -3.5920   -2.0920    0.0000 C.ar    1  LIG1        0.0031
     10 C          -3.5920   -1.0920    0.0000 C.ar    1  LIG1        0.0217
     11 N          -3.4630    0.4080    0.0000 N.3     1  LIG1       -0.1555
     12 C          -2.9630   -0.4540    0.0000 C.3     1  LIG1        0.0963
     13 C          -1.9580   -0.4540    0.0000 C.3     1  LIG1        0.0283
     14 C          -1.4580    0.4080    0.0000 C.3     1  LIG1        0.0811
     15 C          -0.4580    0.4080    0.0000 C.2     1  LIG1        0.2410
     16 O           0.0420   -0.4540    0.0000 O.2     1  LIG1       -0.2734
     17 N           0.0420    1.2790    0.0000 N.am    1  LIG1       -0.2051
     18 C           1.0420    1.2790    0.0000 C.3     1  LIG1        0.1198
     19 C           1.5460    2.1500    0.0000 C.3     1  LIG1        0.0499
     20 C           2.5080    1.8960    0.0000 C.ar    1  LIG1       -0.0172
     21 C           2.7540    0.9250    0.0000 C.ar    1  LIG1        0.0358
     22 C           3.7250    0.6670    0.0000 C.ar    1  LIG1        0.1719
     23 C           4.4330    1.3790    0.0000 C.ar    1  LIG1        0.1722
     24 C           4.1670    2.3500    0.0000 C.ar    1  LIG1        0.0397
     25 C           3.2040    2.5960    0.0000 C.ar    1  LIG1       -0.0009
     26 O           5.2960    0.8790    0.0000 O.3     1  LIG1       -0.4724
     27 C           6.1580    1.3790    0.0000 C.3     1  LIG1        0.2057
     28 C           6.8630    0.6710    0.0000 C.3     1  LIG1        0.0512
     29 O           3.9830   -0.3000    0.0000 O.3     1  LIG1       -0.4724
     30 C           3.2710   -1.0000    0.0000 C.3     1  LIG1        0.2057
     31 C           2.2710   -1.0000    0.0000 C.3     1  LIG1        0.0512
     32 C          -1.9580    1.2790    0.0000 C.3     1  LIG1        0.0283
     33 C          -2.9630    1.2790    0.0000 C.3     1  LIG1        0.0963
     34 O          -4.4630    1.4080    0.0000 O.2     1  LIG1       -0.1527
     35 O          -5.4630    0.4080    0.0000 O.2     1  LIG1       -0.1527
@<TRIPOS>BOND
     1     1     2    1
     2     1    11    1
     3     1    34    2
     4     1    35    2
     5     2     3   ar
     6     2    10   ar
     7     3     4   ar
     8     3     7   ar
     9     4     5   ar
    10     4     8   ar
    11     5     6   ar
    12     6     7   ar
    13     8     9   ar
    14     9    10   ar
    15    11    12    1
    16    11    33    1
    17    12    13    1
    18    13    14    1
    19    14    15    1
    20    14    32    1
    21    15    16    2
    22    15    17   am
    23    17    18    1
    24    18    19    1
    25    19    20    1
    26    20    21   ar
    27    20    25   ar
    28    21    22   ar
    29    22    23   ar
    30    22    29    1
    31    23    24   ar
    32    23    26    1
    33    24    25   ar
    34    26    27    1
    35    27    28    1
    36    29    30    1
    37    30    31    1
    38    32    33    1
