@<TRIPOS>MOLECULE
29954_ChemDiv_8013-3896
 29 32 0 0 0
SMALL
GASTEIGER
Energy = 0

@<TRIPOS>ATOM
      1 C           1.7130    0.1170    0.0000 C.ar    1  LIG1        0.1295
      2 C           1.7130   -0.8880    0.0000 C.ar    1  LIG1        0.3502
      3 O           2.5790   -1.3790    0.0000 O.2     1  LIG1       -0.4209
      4 C           3.4420   -0.8790    0.0000 C.ar    1  LIG1        0.1489
      5 C           3.4420    0.1210    0.0000 C.ar    1  LIG1        0.0380
      6 C           2.5710    0.6210    0.0000 C.ar    1  LIG1        0.0142
      7 C           4.3000    0.6210    0.0000 C.ar    1  LIG1        0.0399
      8 C           5.1630    0.1250    0.0000 C.ar    1  LIG1        0.1389
      9 C           5.1670   -0.8790    0.0000 C.ar    1  LIG1        0.0400
     10 C           4.3000   -1.3750    0.0000 C.ar    1  LIG1        0.0407
     11 O           6.0290    0.6290    0.0000 O.3     1  LIG1       -0.4714
     12 C           6.0250    1.6250    0.0000 C.3     1  LIG1        0.2525
     13 O           0.8460   -1.3920    0.0000 O.2     1  LIG1       -0.2443
     14 C           0.8420    0.6130    0.0000 C.2     1  LIG1        0.2554
     15 N          -0.0210    0.1080    0.0000 N.am    1  LIG1       -0.2724
     16 C          -0.5250    0.9710    0.0000 C.3     1  LIG1        0.1151
     17 C          -1.5250    0.9670    0.0000 C.3     1  LIG1        0.1123
     18 N          -2.0250    0.1080    0.0000 N.pl3   1  LIG1       -0.3041
     19 C          -3.0290    0.1080    0.0000 C.ar    1  LIG1        0.0476
     20 C          -3.5290   -0.7540    0.0000 C.ar    1  LIG1        0.0100
     21 C          -4.5250   -0.7540    0.0000 C.ar    1  LIG1       -0.0246
     22 C          -5.0290    0.1210    0.0000 C.ar    1  LIG1       -0.0257
     23 C          -4.5250    0.9830    0.0000 C.ar    1  LIG1       -0.0033
     24 C          -3.5250    0.9790    0.0000 C.ar    1  LIG1        0.0142
     25 C          -6.0290    0.1210    0.0000 C.3     1  LIG1        0.0307
     26 C          -5.0290   -1.6210    0.0000 C.3     1  LIG1        0.0307
     27 C          -1.5250   -0.7630    0.0000 C.3     1  LIG1        0.1123
     28 C          -0.5170   -0.7630    0.0000 C.3     1  LIG1        0.1151
     29 O           0.8380    1.6080    0.0000 O.2     1  LIG1       -0.2697
@<TRIPOS>BOND
     1     1     2   ar
     2     1     6   ar
     3     1    14    1
     4     2     3   ar
     5     2    13    2
     6     3     4   ar
     7     4     5   ar
     8     4    10   ar
     9     5     6   ar
    10     5     7   ar
    11     7     8   ar
    12     8     9   ar
    13     8    11    1
    14     9    10   ar
    15    11    12    1
    16    14    15   am
    17    14    29    2
    18    15    16    1
    19    15    28    1
    20    16    17    1
    21    17    18    1
    22    18    19    1
    23    18    27    1
    24    19    20   ar
    25    19    24   ar
    26    20    21   ar
    27    21    22   ar
    28    21    26    1
    29    22    23   ar
    30    22    25    1
    31    23    24   ar
    32    27    28    1
