@<TRIPOS>MOLECULE
29966_ChemDiv_8016-0171
 29 32 0 0 0
SMALL
GASTEIGER
Energy = 0

@<TRIPOS>ATOM
      1 C           1.6420    0.7580    0.0000 C.ar    1  LIG1        0.1295
      2 C           1.6420   -0.2540    0.0000 C.ar    1  LIG1        0.3503
      3 O           2.5040   -0.7420    0.0000 O.2     1  LIG1       -0.4178
      4 C           3.3670   -0.2420    0.0000 C.ar    1  LIG1        0.1823
      5 C           3.3670    0.7580    0.0000 C.ar    1  LIG1        0.0381
      6 C           2.5000    1.2580    0.0000 C.ar    1  LIG1        0.0142
      7 C           4.2290    1.2580    0.0000 C.ar    1  LIG1        0.0032
      8 C           5.0920    0.7580    0.0000 C.ar    1  LIG1        0.0033
      9 C           5.0920   -0.2420    0.0000 C.ar    1  LIG1        0.0401
     10 C           4.2290   -0.7420    0.0000 C.ar    1  LIG1        0.1731
     11 O           4.2290   -1.7380    0.0000 O.3     1  LIG1       -0.4683
     12 C           5.1000   -2.2420    0.0000 C.3     1  LIG1        0.2526
     13 O           0.7790   -0.7540    0.0000 O.2     1  LIG1       -0.2443
     14 C           0.7670    1.2500    0.0000 C.2     1  LIG1        0.2554
     15 N          -0.0920    0.7460    0.0000 N.am    1  LIG1       -0.2724
     16 C          -0.5830   -0.1250    0.0000 C.3     1  LIG1        0.1151
     17 C          -1.5920   -0.1290    0.0000 C.3     1  LIG1        0.1123
     18 N          -2.0920    0.7460    0.0000 N.pl3   1  LIG1       -0.3043
     19 C          -3.0960    0.7460    0.0000 C.ar    1  LIG1        0.0436
     20 C          -3.5960   -0.1170    0.0000 C.ar    1  LIG1       -0.0125
     21 C          -4.5960   -0.1170    0.0000 C.ar    1  LIG1       -0.0246
     22 C          -5.1040    0.7580    0.0000 C.ar    1  LIG1       -0.0045
     23 C          -4.5920    1.6210    0.0000 C.ar    1  LIG1        0.0009
     24 C          -3.5920    1.6210    0.0000 C.ar    1  LIG1        0.0142
     25 C          -5.1040   -0.9790    0.0000 C.3     1  LIG1        0.0307
     26 C          -3.0960   -0.9880    0.0000 C.3     1  LIG1        0.0320
     27 C          -1.5960    1.6080    0.0000 C.3     1  LIG1        0.1123
     28 C          -0.5920    1.6080    0.0000 C.3     1  LIG1        0.1151
     29 O           0.7670    2.2460    0.0000 O.2     1  LIG1       -0.2697
@<TRIPOS>BOND
     1     1     2   ar
     2     1     6   ar
     3     1    14    1
     4     2     3   ar
     5     2    13    2
     6     3     4   ar
     7     4     5   ar
     8     4    10   ar
     9     5     6   ar
    10     5     7   ar
    11     7     8   ar
    12     8     9   ar
    13     9    10   ar
    14    10    11    1
    15    11    12    1
    16    14    15   am
    17    14    29    2
    18    15    16    1
    19    15    28    1
    20    16    17    1
    21    17    18    1
    22    18    19    1
    23    18    27    1
    24    19    20   ar
    25    19    24   ar
    26    20    21   ar
    27    20    26    1
    28    21    22   ar
    29    21    25    1
    30    22    23   ar
    31    23    24   ar
    32    27    28    1
