@<TRIPOS>MOLECULE
29969_ChemDiv_4903-2176
 37 42 0 0 0
SMALL
GASTEIGER
Energy = 0

@<TRIPOS>ATOM
      1 S           0.1040    3.3500    0.0000 S.O2    1  LIG1        0.0766
      2 C          -0.8670    2.9000    0.0000 C.ar    1  LIG1        0.1196
      3 C          -0.8960    1.8960    0.0000 C.ar    1  LIG1        0.0212
      4 C          -1.7630    1.4080    0.0000 C.ar    1  LIG1        0.0207
      5 C          -1.7630    0.4130    0.0000 C.ar    1  LIG1        0.1030
      6 N          -0.8960   -0.0710    0.0000 N.ar    1  LIG1       -0.1467
      7 N          -0.8960   -1.1170    0.0000 N.ar    1  LIG1       -0.1311
      8 C          -1.7630   -1.6000    0.0000 C.ar    1  LIG1        0.1734
      9 C          -2.6040   -1.1170    0.0000 C.ar    1  LIG1        0.0366
     10 C          -2.6040   -0.1130    0.0000 C.ar    1  LIG1        0.0222
     11 C          -3.4830    0.4130    0.0000 C.ar    1  LIG1        0.0016
     12 C          -4.3500   -0.0710    0.0000 C.ar    1  LIG1        0.0001
     13 C          -4.3500   -1.1170    0.0000 C.ar    1  LIG1        0.0001
     14 C          -3.4830   -1.6000    0.0000 C.ar    1  LIG1        0.0029
     15 N          -1.7630   -2.6000    0.0000 N.pl3   1  LIG1       -0.1926
     16 C          -0.9080   -3.1040    0.0000 C.ar    1  LIG1        0.0754
     17 C          -0.0670   -2.6170    0.0000 C.ar    1  LIG1        0.0567
     18 C           0.7880   -3.1040    0.0000 C.ar    1  LIG1        0.1777
     19 C           0.8250   -4.0750    0.0000 C.ar    1  LIG1        0.1765
     20 O           1.7920   -4.3500    0.0000 O.3     1  LIG1       -0.4346
     21 C           2.3380   -3.5210    0.0000 C.3     1  LIG1        0.4294
     22 O           1.6790   -2.7330    0.0000 O.3     1  LIG1       -0.4346
     23 C          -0.0580   -4.5710    0.0000 C.ar    1  LIG1        0.0415
     24 C          -0.9080   -4.0880    0.0000 C.ar    1  LIG1        0.0199
     25 C          -2.6040    1.9290    0.0000 C.ar    1  LIG1        0.0013
     26 C          -2.6040    2.9250    0.0000 C.ar    1  LIG1       -0.0029
     27 C          -1.7630    3.4130    0.0000 C.ar    1  LIG1       -0.0032
     28 C          -1.7630    4.4130    0.0000 C.3     1  LIG1        0.0324
     29 N           1.0130    3.7670    0.0000 N.3     1  LIG1       -0.0752
     30 C           1.8540    3.1880    0.0000 C.3     1  LIG1        0.1448
     31 C           2.7630    3.6080    0.0000 C.3     1  LIG1        0.1346
     32 O           3.0540    4.5710    0.0000 O.3     1  LIG1       -0.3547
     33 C           4.0580    4.5710    0.0000 C.3     1  LIG1        0.1422
     34 C           4.3460    3.6460    0.0000 C.3     1  LIG1        0.0346
     35 C           3.5710    3.0630    0.0000 C.3     1  LIG1        0.0337
     36 O           0.5250    2.4130    0.0000 O.2     1  LIG1       -0.1516
     37 O          -0.3420    4.2500    0.0000 O.2     1  LIG1       -0.1516
@<TRIPOS>BOND
     1     1     2    1
     2     1    29    1
     3     1    36    2
     4     1    37    2
     5     2     3   ar
     6     2    27   ar
     7     3     4   ar
     8     4     5    1
     9     4    25   ar
    10     5     6   ar
    11     5    10   ar
    12     6     7   ar
    13     7     8   ar
    14     8     9   ar
    15     8    15    1
    16     9    10   ar
    17     9    14   ar
    18    10    11   ar
    19    11    12   ar
    20    12    13   ar
    21    13    14   ar
    22    15    16    1
    23    16    17   ar
    24    16    24   ar
    25    17    18   ar
    26    18    19   ar
    27    18    22    1
    28    19    20    1
    29    19    23   ar
    30    20    21    1
    31    21    22    1
    32    23    24   ar
    33    25    26   ar
    34    26    27   ar
    35    27    28    1
    36    29    30    1
    37    30    31    1
    38    31    32    1
    39    31    35    1
    40    32    33    1
    41    33    34    1
    42    34    35    1
