@<TRIPOS>MOLECULE
29968_ChemDiv_8016-0304
 31 35 0 0 0
SMALL
GASTEIGER
Energy = 0

@<TRIPOS>ATOM
      1 C          -1.2920    0.5170    0.0000 C.ar    1  LIG1        0.1295
      2 C          -1.2920   -0.4830    0.0000 C.ar    1  LIG1        0.3502
      3 O          -2.1710   -0.9830    0.0000 O.2     1  LIG1       -0.4209
      4 C          -3.0330   -0.4830    0.0000 C.ar    1  LIG1        0.1487
      5 C          -3.0290    0.5170    0.0000 C.ar    1  LIG1        0.0350
      6 C          -2.1580    1.0330    0.0000 C.ar    1  LIG1        0.0141
      7 C          -3.9040    1.0170    0.0000 C.ar    1  LIG1        0.0029
      8 C          -4.7670    0.5170    0.0000 C.ar    1  LIG1        0.0002
      9 C          -4.7670   -0.4830    0.0000 C.ar    1  LIG1        0.0031
     10 C          -3.9040   -0.9830    0.0000 C.ar    1  LIG1        0.0376
     11 C          -5.6290    1.0170    0.0000 C.ar    1  LIG1        0.0000
     12 C          -5.6210    2.0170    0.0000 C.ar    1  LIG1        0.0000
     13 C          -4.7630    2.5130    0.0000 C.ar    1  LIG1        0.0000
     14 C          -3.9040    2.0040    0.0000 C.ar    1  LIG1        0.0001
     15 O          -0.4290   -0.9960    0.0000 O.2     1  LIG1       -0.2443
     16 C          -0.4170    1.0170    0.0000 C.2     1  LIG1        0.2554
     17 N           0.4420    0.5170    0.0000 N.am    1  LIG1       -0.2724
     18 C           0.4170   -0.4830    0.0000 C.3     1  LIG1        0.1151
     19 C           1.2880   -0.9830    0.0000 C.3     1  LIG1        0.1123
     20 N           2.1540   -0.4960    0.0000 N.pl3   1  LIG1       -0.3043
     21 C           3.0170   -1.0080    0.0000 C.ar    1  LIG1        0.0447
     22 C           3.8880   -0.5170    0.0000 C.ar    1  LIG1        0.0256
     23 C           4.7500   -1.0210    0.0000 C.ar    1  LIG1        0.0589
     24 C           4.7380   -2.0210    0.0000 C.ar    1  LIG1        0.0112
     25 C           3.8630   -2.5080    0.0000 C.ar    1  LIG1       -0.0022
     26 C           3.0040   -2.0040    0.0000 C.ar    1  LIG1       -0.0085
     27 C           2.1290   -2.4960    0.0000 C.3     1  LIG1        0.0323
     28 CL          5.6250   -0.5330    0.0000 Cl      1  LIG1       -0.0822
     29 C           2.1670    0.5040    0.0000 C.3     1  LIG1        0.1123
     30 C           1.3040    1.0170    0.0000 C.3     1  LIG1        0.1151
     31 O          -0.4170    2.0170    0.0000 O.2     1  LIG1       -0.2697
@<TRIPOS>BOND
     1     1     2   ar
     2     1     6   ar
     3     1    16    1
     4     2     3   ar
     5     2    15    2
     6     3     4   ar
     7     4     5   ar
     8     4    10   ar
     9     5     6   ar
    10     5     7   ar
    11     7     8   ar
    12     7    14   ar
    13     8     9   ar
    14     8    11   ar
    15     9    10   ar
    16    11    12   ar
    17    12    13   ar
    18    13    14   ar
    19    16    17   am
    20    16    31    2
    21    17    18    1
    22    17    30    1
    23    18    19    1
    24    19    20    1
    25    20    21    1
    26    20    29    1
    27    21    22   ar
    28    21    26   ar
    29    22    23   ar
    30    23    24   ar
    31    23    28    1
    32    24    25   ar
    33    25    26   ar
    34    26    27    1
    35    29    30    1
