@<TRIPOS>MOLECULE
29960_ChemDiv_8015-4841
 29 32 0 0 0
SMALL
GASTEIGER
Energy = 0

@<TRIPOS>ATOM
      1 C          -2.1960    0.6330    0.0000 C.ar    1  LIG1        0.1295
      2 C          -2.4460   -0.3330    0.0000 C.ar    1  LIG1        0.3503
      3 O          -3.4130   -0.5960    0.0000 O.2     1  LIG1       -0.4178
      4 C          -4.1250    0.1080    0.0000 C.ar    1  LIG1        0.1823
      5 C          -3.8710    1.0710    0.0000 C.ar    1  LIG1        0.0381
      6 C          -2.9080    1.3380    0.0000 C.ar    1  LIG1        0.0142
      7 C          -4.5710    1.7750    0.0000 C.ar    1  LIG1        0.0032
      8 C          -5.5330    1.5210    0.0000 C.ar    1  LIG1        0.0033
      9 C          -5.7960    0.5460    0.0000 C.ar    1  LIG1        0.0401
     10 C          -5.0830   -0.1540    0.0000 C.ar    1  LIG1        0.1731
     11 O          -5.3330   -1.1210    0.0000 O.3     1  LIG1       -0.4683
     12 C          -4.6250   -1.8290    0.0000 C.3     1  LIG1        0.2526
     13 O          -1.7330   -1.0420    0.0000 O.2     1  LIG1       -0.2443
     14 C          -1.2380    0.9000    0.0000 C.2     1  LIG1        0.2554
     15 N          -0.2710    0.6460    0.0000 N.am    1  LIG1       -0.2724
     16 C           0.4420    1.3500    0.0000 C.3     1  LIG1        0.1151
     17 C           1.4080    1.0880    0.0000 C.3     1  LIG1        0.1123
     18 N           1.6670    0.1210    0.0000 N.pl3   1  LIG1       -0.3041
     19 C           2.6330   -0.1420    0.0000 C.ar    1  LIG1        0.0479
     20 C           3.3330    0.5630    0.0000 C.ar    1  LIG1        0.0142
     21 C           4.3040    0.3080    0.0000 C.ar    1  LIG1       -0.0030
     22 C           4.5670   -0.6710    0.0000 C.ar    1  LIG1       -0.0221
     23 C           3.8540   -1.3790    0.0000 C.ar    1  LIG1       -0.0030
     24 C           2.8830   -1.1170    0.0000 C.ar    1  LIG1        0.0142
     25 C           5.5330   -0.9330    0.0000 C.3     1  LIG1        0.0264
     26 C           5.7920   -1.8960    0.0000 C.3     1  LIG1        0.0050
     27 C           0.9580   -0.5830    0.0000 C.3     1  LIG1        0.1123
     28 C          -0.0080   -0.3210    0.0000 C.3     1  LIG1        0.1151
     29 O          -1.2460    1.9000    0.0000 O.2     1  LIG1       -0.2697
@<TRIPOS>BOND
     1     1     2   ar
     2     1     6   ar
     3     1    14    1
     4     2     3   ar
     5     2    13    2
     6     3     4   ar
     7     4     5   ar
     8     4    10   ar
     9     5     6   ar
    10     5     7   ar
    11     7     8   ar
    12     8     9   ar
    13     9    10   ar
    14    10    11    1
    15    11    12    1
    16    14    15   am
    17    14    29    2
    18    15    16    1
    19    15    28    1
    20    16    17    1
    21    17    18    1
    22    18    19    1
    23    18    27    1
    24    19    20   ar
    25    19    24   ar
    26    20    21   ar
    27    21    22   ar
    28    22    23   ar
    29    22    25    1
    30    23    24   ar
    31    25    26    1
    32    27    28    1
