@<TRIPOS>MOLECULE
29962_ChemDiv_8015-4842
 30 33 0 0 0
SMALL
GASTEIGER
Energy = 0

@<TRIPOS>ATOM
      1 C          -1.9750    0.4710    0.0000 C.ar    1  LIG1        0.1295
      2 C          -2.2250   -0.4920    0.0000 C.ar    1  LIG1        0.3503
      3 O          -3.1880   -0.7540    0.0000 O.2     1  LIG1       -0.4178
      4 C          -3.9000   -0.0540    0.0000 C.ar    1  LIG1        0.1823
      5 C          -3.6420    0.9080    0.0000 C.ar    1  LIG1        0.0386
      6 C          -2.6880    1.1750    0.0000 C.ar    1  LIG1        0.0142
      7 C          -4.3500    1.6130    0.0000 C.ar    1  LIG1        0.0099
      8 C          -5.3130    1.3580    0.0000 C.ar    1  LIG1        0.0378
      9 C          -5.5750    0.3830    0.0000 C.ar    1  LIG1        0.0468
     10 C          -4.8630   -0.3170    0.0000 C.ar    1  LIG1        0.1736
     11 O          -5.1130   -1.2790    0.0000 O.3     1  LIG1       -0.4683
     12 C          -4.4000   -1.9880    0.0000 C.3     1  LIG1        0.2526
     13 BR         -6.0170    2.0580    0.0000 Br      1  LIG1       -0.0489
     14 O          -1.5040   -1.1920    0.0000 O.2     1  LIG1       -0.2443
     15 C          -1.0130    0.7460    0.0000 C.2     1  LIG1        0.2554
     16 N          -0.0500    0.4830    0.0000 N.am    1  LIG1       -0.2724
     17 C           0.6670    1.1960    0.0000 C.3     1  LIG1        0.1151
     18 C           1.6290    0.9330    0.0000 C.3     1  LIG1        0.1123
     19 N           1.8920   -0.0420    0.0000 N.pl3   1  LIG1       -0.3041
     20 C           2.8540   -0.3040    0.0000 C.ar    1  LIG1        0.0479
     21 C           3.1040   -1.2670    0.0000 C.ar    1  LIG1        0.0142
     22 C           4.0750   -1.5290    0.0000 C.ar    1  LIG1       -0.0030
     23 C           4.7920   -0.8250    0.0000 C.ar    1  LIG1       -0.0221
     24 C           4.5290    0.1460    0.0000 C.ar    1  LIG1       -0.0030
     25 C           3.5540    0.4000    0.0000 C.ar    1  LIG1        0.0142
     26 C           5.7540   -1.0880    0.0000 C.3     1  LIG1        0.0264
     27 C           6.0170   -2.0540    0.0000 C.3     1  LIG1        0.0050
     28 C           1.1790   -0.7420    0.0000 C.3     1  LIG1        0.1123
     29 C           0.2170   -0.4790    0.0000 C.3     1  LIG1        0.1151
     30 O          -1.0170    1.7460    0.0000 O.2     1  LIG1       -0.2697
@<TRIPOS>BOND
     1     1     2   ar
     2     1     6   ar
     3     1    15    1
     4     2     3   ar
     5     2    14    2
     6     3     4   ar
     7     4     5   ar
     8     4    10   ar
     9     5     6   ar
    10     5     7   ar
    11     7     8   ar
    12     8     9   ar
    13     8    13    1
    14     9    10   ar
    15    10    11    1
    16    11    12    1
    17    15    16   am
    18    15    30    2
    19    16    17    1
    20    16    29    1
    21    17    18    1
    22    18    19    1
    23    19    20    1
    24    19    28    1
    25    20    21   ar
    26    20    25   ar
    27    21    22   ar
    28    22    23   ar
    29    23    24   ar
    30    23    26    1
    31    24    25   ar
    32    26    27    1
    33    28    29    1
