@<TRIPOS>MOLECULE
29964_ChemDiv_8015-4843
 28 31 0 0 0
SMALL
GASTEIGER
Energy = 0

@<TRIPOS>ATOM
      1 C          -1.9750    0.4710    0.0000 C.ar    1  LIG1        0.1295
      2 C          -2.2250   -0.4920    0.0000 C.ar    1  LIG1        0.3502
      3 O          -3.1880   -0.7540    0.0000 O.2     1  LIG1       -0.4209
      4 C          -3.9000   -0.0540    0.0000 C.ar    1  LIG1        0.1487
      5 C          -3.6420    0.9080    0.0000 C.ar    1  LIG1        0.0359
      6 C          -2.6880    1.1750    0.0000 C.ar    1  LIG1        0.0141
      7 C          -4.3500    1.6130    0.0000 C.ar    1  LIG1        0.0144
      8 C          -5.3130    1.3580    0.0000 C.ar    1  LIG1        0.0579
      9 C          -5.5670    0.3830    0.0000 C.ar    1  LIG1        0.0145
     10 C          -4.8630   -0.3170    0.0000 C.ar    1  LIG1        0.0385
     11 CL         -6.0170    2.0580    0.0000 Cl      1  LIG1       -0.0822
     12 O          -1.5040   -1.1920    0.0000 O.2     1  LIG1       -0.2443
     13 C          -1.0130    0.7380    0.0000 C.2     1  LIG1        0.2554
     14 N          -0.0500    0.4830    0.0000 N.am    1  LIG1       -0.2724
     15 C           0.6670    1.1960    0.0000 C.3     1  LIG1        0.1151
     16 C           1.6290    0.9330    0.0000 C.3     1  LIG1        0.1123
     17 N           1.8920   -0.0420    0.0000 N.pl3   1  LIG1       -0.3041
     18 C           2.8540   -0.3040    0.0000 C.ar    1  LIG1        0.0479
     19 C           3.1040   -1.2670    0.0000 C.ar    1  LIG1        0.0142
     20 C           4.0750   -1.5290    0.0000 C.ar    1  LIG1       -0.0030
     21 C           4.7920   -0.8250    0.0000 C.ar    1  LIG1       -0.0221
     22 C           4.5250    0.1460    0.0000 C.ar    1  LIG1       -0.0030
     23 C           3.5540    0.4000    0.0000 C.ar    1  LIG1        0.0142
     24 C           5.7540   -1.0880    0.0000 C.3     1  LIG1        0.0264
     25 C           6.0170   -2.0540    0.0000 C.3     1  LIG1        0.0050
     26 C           1.1790   -0.7420    0.0000 C.3     1  LIG1        0.1123
     27 C           0.2170   -0.4790    0.0000 C.3     1  LIG1        0.1151
     28 O          -1.0170    1.7460    0.0000 O.2     1  LIG1       -0.2697
@<TRIPOS>BOND
     1     1     2   ar
     2     1     6   ar
     3     1    13    1
     4     2     3   ar
     5     2    12    2
     6     3     4   ar
     7     4     5   ar
     8     4    10   ar
     9     5     6   ar
    10     5     7   ar
    11     7     8   ar
    12     8     9   ar
    13     8    11    1
    14     9    10   ar
    15    13    14   am
    16    13    28    2
    17    14    15    1
    18    14    27    1
    19    15    16    1
    20    16    17    1
    21    17    18    1
    22    17    26    1
    23    18    19   ar
    24    18    23   ar
    25    19    20   ar
    26    20    21   ar
    27    21    22   ar
    28    21    24    1
    29    22    23   ar
    30    24    25    1
    31    26    27    1
