@<TRIPOS>MOLECULE
29970_ChemDiv_K906-0763
 32 35 0 0 0
SMALL
GASTEIGER
Energy = 0

@<TRIPOS>ATOM
      1 S          -3.3130    0.2040    0.0000 S.O2    1  LIG1        0.0649
      2 C          -3.3130   -0.7960    0.0000 C.ar    1  LIG1        0.1446
      3 C          -4.1750   -1.2960    0.0000 C.ar    1  LIG1        0.1616
      4 C          -4.1750   -2.2960    0.0000 C.ar    1  LIG1        0.1445
      5 N          -5.1290   -2.6130    0.0000 N.ar    1  LIG1       -0.0482
      6 O          -5.7130   -1.8080    0.0000 O.2     1  LIG1       -0.2415
      7 N          -5.1290   -0.9920    0.0000 N.ar    1  LIG1       -0.0469
      8 C          -3.3130   -2.7960    0.0000 C.ar    1  LIG1        0.0242
      9 C          -2.4460   -2.2960    0.0000 C.ar    1  LIG1        0.0031
     10 C          -2.4460   -1.2960    0.0000 C.ar    1  LIG1        0.0217
     11 N          -2.3130    0.2040    0.0000 N.3     1  LIG1       -0.1555
     12 C          -1.8130    1.0670    0.0000 C.3     1  LIG1        0.0963
     13 C          -0.8130    1.0670    0.0000 C.3     1  LIG1        0.0283
     14 C          -0.3080    0.2040    0.0000 C.3     1  LIG1        0.0811
     15 C           0.6920    0.2040    0.0000 C.2     1  LIG1        0.2410
     16 O           1.1920   -0.6580    0.0000 O.2     1  LIG1       -0.2734
     17 N           1.1920    1.0670    0.0000 N.am    1  LIG1       -0.2036
     18 C           2.2000    1.0670    0.0000 C.3     1  LIG1        0.1365
     19 C           2.7000    1.9330    0.0000 C.3     1  LIG1        0.1142
     20 N           3.7080    1.9330    0.0000 N.pl3   1  LIG1       -0.3057
     21 C           4.2080    1.0670    0.0000 C.ar    1  LIG1        0.0479
     22 C           5.2080    1.0670    0.0000 C.ar    1  LIG1        0.0145
     23 C           5.7080    0.2040    0.0000 C.ar    1  LIG1        0.0013
     24 C           5.2080   -0.6580    0.0000 C.ar    1  LIG1        0.0001
     25 C           4.2080   -0.6580    0.0000 C.ar    1  LIG1        0.0013
     26 C           3.7080    0.2040    0.0000 C.ar    1  LIG1        0.0145
     27 C           4.2080    2.8000    0.0000 C.3     1  LIG1        0.0909
     28 C           5.2080    2.8000    0.0000 C.3     1  LIG1        0.0232
     29 C          -0.8130   -0.6580    0.0000 C.3     1  LIG1        0.0283
     30 C          -1.8130   -0.6580    0.0000 C.3     1  LIG1        0.0963
     31 O          -3.3130    1.2040    0.0000 O.2     1  LIG1       -0.1527
     32 O          -4.3130    0.2040    0.0000 O.2     1  LIG1       -0.1527
@<TRIPOS>BOND
     1     1     2    1
     2     1    11    1
     3     1    31    2
     4     1    32    2
     5     2     3   ar
     6     2    10   ar
     7     3     4   ar
     8     3     7   ar
     9     4     5   ar
    10     4     8   ar
    11     5     6   ar
    12     6     7   ar
    13     8     9   ar
    14     9    10   ar
    15    11    12    1
    16    11    30    1
    17    12    13    1
    18    13    14    1
    19    14    15    1
    20    14    29    1
    21    15    16    2
    22    15    17   am
    23    17    18    1
    24    18    19    1
    25    19    20    1
    26    20    21    1
    27    20    27    1
    28    21    22   ar
    29    21    26   ar
    30    22    23   ar
    31    23    24   ar
    32    24    25   ar
    33    25    26   ar
    34    27    28    1
    35    29    30    1
