@<TRIPOS>MOLECULE
29975_ChemDiv_4903-2254
 37 41 0 0 0
SMALL
GASTEIGER
Energy = 0

@<TRIPOS>ATOM
      1 S           1.2170    2.5210    0.0000 S.O2    1  LIG1        0.0771
      2 C           0.2880    2.0000    0.0000 C.ar    1  LIG1        0.1196
      3 C           0.2880    1.0130    0.0000 C.ar    1  LIG1        0.0212
      4 C          -0.5830    0.5130    0.0000 C.ar    1  LIG1        0.0207
      5 C          -0.5830   -0.5080    0.0000 C.ar    1  LIG1        0.1030
      6 N           0.2880   -1.0330    0.0000 N.ar    1  LIG1       -0.1467
      7 N           0.2880   -1.9960    0.0000 N.ar    1  LIG1       -0.1311
      8 C          -0.5830   -2.5170    0.0000 C.ar    1  LIG1        0.1734
      9 C          -1.4380   -2.0210    0.0000 C.ar    1  LIG1        0.0366
     10 C          -1.4380   -0.9960    0.0000 C.ar    1  LIG1        0.0222
     11 C          -2.3080   -0.5080    0.0000 C.ar    1  LIG1        0.0016
     12 C          -3.1710   -1.0330    0.0000 C.ar    1  LIG1        0.0001
     13 C          -3.1710   -1.9960    0.0000 C.ar    1  LIG1        0.0001
     14 C          -2.3080   -2.5170    0.0000 C.ar    1  LIG1        0.0029
     15 N          -0.5830   -3.5080    0.0000 N.pl3   1  LIG1       -0.1926
     16 C          -1.4380   -4.0040    0.0000 C.ar    1  LIG1        0.0754
     17 C          -2.3080   -3.5080    0.0000 C.ar    1  LIG1        0.0567
     18 C          -3.1710   -4.0290    0.0000 C.ar    1  LIG1        0.1777
     19 C          -3.1710   -4.9880    0.0000 C.ar    1  LIG1        0.1765
     20 O          -4.0830   -5.3250    0.0000 O.3     1  LIG1       -0.4346
     21 C          -4.7170   -4.5250    0.0000 C.3     1  LIG1        0.4294
     22 O          -4.1420   -3.7210    0.0000 O.3     1  LIG1       -0.4346
     23 C          -2.3080   -5.5170    0.0000 C.ar    1  LIG1        0.0415
     24 C          -1.4380   -5.0130    0.0000 C.ar    1  LIG1        0.0199
     25 C          -1.4380    1.0130    0.0000 C.ar    1  LIG1        0.0013
     26 C          -1.4380    2.0000    0.0000 C.ar    1  LIG1       -0.0029
     27 C          -0.5830    2.4880    0.0000 C.ar    1  LIG1       -0.0032
     28 C          -0.5830    3.5130    0.0000 C.3     1  LIG1        0.0324
     29 N           2.0830    3.0210    0.0000 N.3     1  LIG1       -0.0657
     30 C           2.1170    4.0040    0.0000 C.3     1  LIG1        0.2243
     31 C           2.9710    4.4920    0.0000 C.2     1  LIG1        0.3369
     32 O           2.9710    5.5170    0.0000 O.2     1  LIG1       -0.2484
     33 O           3.8420    4.0040    0.0000 O.3     1  LIG1       -0.4475
     34 C           3.8420    3.0210    0.0000 C.3     1  LIG1        0.2086
     35 C           4.7130    2.5210    0.0000 C.3     1  LIG1        0.0513
     36 O           0.7250    3.3880    0.0000 O.2     1  LIG1       -0.1516
     37 O           1.7130    1.6290    0.0000 O.2     1  LIG1       -0.1516
@<TRIPOS>BOND
     1     1     2    1
     2     1    29    1
     3     1    36    2
     4     1    37    2
     5     2     3   ar
     6     2    27   ar
     7     3     4   ar
     8     4     5    1
     9     4    25   ar
    10     5     6   ar
    11     5    10   ar
    12     6     7   ar
    13     7     8   ar
    14     8     9   ar
    15     8    15    1
    16     9    10   ar
    17     9    14   ar
    18    10    11   ar
    19    11    12   ar
    20    12    13   ar
    21    13    14   ar
    22    15    16    1
    23    16    17   ar
    24    16    24   ar
    25    17    18   ar
    26    18    19   ar
    27    18    22    1
    28    19    20    1
    29    19    23   ar
    30    20    21    1
    31    21    22    1
    32    23    24   ar
    33    25    26   ar
    34    26    27   ar
    35    27    28    1
    36    29    30    1
    37    30    31    1
    38    31    32    2
    39    31    33    1
    40    33    34    1
    41    34    35    1
