@<TRIPOS>MOLECULE
29979_ChemDiv_5233-2407
 39 43 0 0 0
SMALL
GASTEIGER
Energy = 0

@<TRIPOS>ATOM
      1 S           0.8580    4.2420    0.0000 S.O2    1  LIG1        0.0631
      2 C          -0.0250    3.7290    0.0000 C.ar    1  LIG1        0.1183
      3 C          -0.0250    2.7380    0.0000 C.ar    1  LIG1        0.0211
      4 C          -0.8880    2.2330    0.0000 C.ar    1  LIG1        0.0207
      5 C          -0.8880    1.2250    0.0000 C.ar    1  LIG1        0.1030
      6 N          -0.0210    0.7380    0.0000 N.ar    1  LIG1       -0.1467
      7 N          -0.0210   -0.2580    0.0000 N.ar    1  LIG1       -0.1311
      8 C          -0.8880   -0.7710    0.0000 C.ar    1  LIG1        0.1734
      9 C          -1.7420   -0.2580    0.0000 C.ar    1  LIG1        0.0366
     10 C          -1.7420    0.7380    0.0000 C.ar    1  LIG1        0.0222
     11 C          -2.6210    1.2250    0.0000 C.ar    1  LIG1        0.0016
     12 C          -3.4710    0.7380    0.0000 C.ar    1  LIG1        0.0001
     13 C          -3.4710   -0.2580    0.0000 C.ar    1  LIG1        0.0001
     14 C          -2.6040   -0.7710    0.0000 C.ar    1  LIG1        0.0029
     15 N          -0.8880   -1.7580    0.0000 N.pl3   1  LIG1       -0.1927
     16 C          -0.0250   -2.2540    0.0000 C.ar    1  LIG1        0.0725
     17 C          -0.0250   -3.2540    0.0000 C.ar    1  LIG1        0.0242
     18 C           0.8250   -3.7500    0.0000 C.ar    1  LIG1        0.0902
     19 C           0.8210   -4.7580    0.0000 C.2     1  LIG1        0.2678
     20 O          -0.0420   -5.2500    0.0000 O.2     1  LIG1       -0.2683
     21 N           1.6880   -5.2630    0.0000 N.am    1  LIG1       -0.1997
     22 C           1.6750   -6.2540    0.0000 C.3     1  LIG1        0.1388
     23 C           1.7040   -3.2540    0.0000 C.ar    1  LIG1        0.1432
     24 C           1.7130   -2.2540    0.0000 C.ar    1  LIG1        0.0384
     25 C           0.8420   -1.7580    0.0000 C.ar    1  LIG1        0.0197
     26 O           2.5790   -3.7670    0.0000 O.3     1  LIG1       -0.4713
     27 C           2.5790   -4.7670    0.0000 C.3     1  LIG1        0.2525
     28 C          -1.7420    2.7330    0.0000 C.ar    1  LIG1        0.0013
     29 C          -1.7420    3.7290    0.0000 C.ar    1  LIG1       -0.0029
     30 C          -0.8880    4.2420    0.0000 C.ar    1  LIG1       -0.0032
     31 C          -0.8880    5.2130    0.0000 C.3     1  LIG1        0.0324
     32 N           1.7290    4.7460    0.0000 N.3     1  LIG1       -0.1504
     33 C           2.5960    4.2460    0.0000 C.3     1  LIG1        0.1279
     34 C           3.4670    4.7460    0.0000 C.3     1  LIG1        0.1613
     35 O           3.4580    5.7580    0.0000 O.3     1  LIG1       -0.3507
     36 C           2.5790    6.2540    0.0000 C.3     1  LIG1        0.1613
     37 C           1.7130    5.7540    0.0000 C.3     1  LIG1        0.1279
     38 O           0.3420    5.1080    0.0000 O.2     1  LIG1       -0.1528
     39 O           1.3670    3.3670    0.0000 O.2     1  LIG1       -0.1528
@<TRIPOS>BOND
     1     1     2    1
     2     1    32    1
     3     1    38    2
     4     1    39    2
     5     2     3   ar
     6     2    30   ar
     7     3     4   ar
     8     4     5    1
     9     4    28   ar
    10     5     6   ar
    11     5    10   ar
    12     6     7   ar
    13     7     8   ar
    14     8     9   ar
    15     8    15    1
    16     9    10   ar
    17     9    14   ar
    18    10    11   ar
    19    11    12   ar
    20    12    13   ar
    21    13    14   ar
    22    15    16    1
    23    16    17   ar
    24    16    25   ar
    25    17    18   ar
    26    18    19    1
    27    18    23   ar
    28    19    20    2
    29    19    21   am
    30    21    22    1
    31    23    24   ar
    32    23    26    1
    33    24    25   ar
    34    26    27    1
    35    28    29   ar
    36    29    30   ar
    37    30    31    1
    38    32    33    1
    39    32    37    1
    40    33    34    1
    41    34    35    1
    42    35    36    1
    43    36    37    1
