@<TRIPOS>MOLECULE
29971_ChemDiv_4903-2225
 29 32 0 0 0
SMALL
GASTEIGER
Energy = 0

@<TRIPOS>ATOM
      1 S           2.1670    3.5130    0.0000 S.O2    1  LIG1        0.0932
      2 C           1.3080    3.0210    0.0000 C.ar    1  LIG1        0.1211
      3 C           1.3080    2.0170    0.0000 C.ar    1  LIG1        0.0212
      4 C           0.4540    1.5290    0.0000 C.ar    1  LIG1        0.0207
      5 C           0.4540    0.5130    0.0000 C.ar    1  LIG1        0.1030
      6 N           1.3080    0.0210    0.0000 N.ar    1  LIG1       -0.1467
      7 N           1.3080   -0.9920    0.0000 N.ar    1  LIG1       -0.1311
      8 C           0.4540   -1.5000    0.0000 C.ar    1  LIG1        0.1734
      9 C          -0.4170   -0.9920    0.0000 C.ar    1  LIG1        0.0366
     10 C          -0.4170    0.0210    0.0000 C.ar    1  LIG1        0.0222
     11 C          -1.2880    0.5130    0.0000 C.ar    1  LIG1        0.0016
     12 C          -2.1540    0.0210    0.0000 C.ar    1  LIG1        0.0001
     13 C          -2.1540   -0.9920    0.0000 C.ar    1  LIG1        0.0001
     14 C          -1.2880   -1.5000    0.0000 C.ar    1  LIG1        0.0029
     15 N           0.4540   -2.4960    0.0000 N.pl3   1  LIG1       -0.1927
     16 C          -0.4170   -3.0080    0.0000 C.ar    1  LIG1        0.0723
     17 C          -1.2880   -2.4960    0.0000 C.ar    1  LIG1        0.0189
     18 C          -2.1540   -3.0080    0.0000 C.ar    1  LIG1        0.0310
     19 C          -2.1540   -4.0130    0.0000 C.ar    1  LIG1        0.1402
     20 F          -3.0080   -4.5000    0.0000 F       1  LIG1       -0.2042
     21 C          -1.2880   -4.5210    0.0000 C.ar    1  LIG1        0.0310
     22 C          -0.4170   -4.0130    0.0000 C.ar    1  LIG1        0.0189
     23 C          -0.4170    2.0170    0.0000 C.ar    1  LIG1        0.0013
     24 C          -0.4170    3.0210    0.0000 C.ar    1  LIG1       -0.0029
     25 C           0.4540    3.5380    0.0000 C.ar    1  LIG1       -0.0031
     26 C           0.4540    4.5210    0.0000 C.3     1  LIG1        0.0324
     27 O           2.6580    2.6580    0.0000 O.2     1  LIG1       -0.1503
     28 O           1.6710    4.3750    0.0000 O.2     1  LIG1       -0.1503
     29 N           3.0040    3.9960    0.0000 N.3     1  LIG1        0.0392
@<TRIPOS>BOND
     1     1     2    1
     2     1    27    2
     3     1    28    2
     4     1    29    1
     5     2     3   ar
     6     2    25   ar
     7     3     4   ar
     8     4     5    1
     9     4    23   ar
    10     5     6   ar
    11     5    10   ar
    12     6     7   ar
    13     7     8   ar
    14     8     9   ar
    15     8    15    1
    16     9    10   ar
    17     9    14   ar
    18    10    11   ar
    19    11    12   ar
    20    12    13   ar
    21    13    14   ar
    22    15    16    1
    23    16    17   ar
    24    16    22   ar
    25    17    18   ar
    26    18    19   ar
    27    19    20    1
    28    19    21   ar
    29    21    22   ar
    30    23    24   ar
    31    24    25   ar
    32    25    26    1
