@<TRIPOS>MOLECULE
29972_ChemDiv_K906-0766
 36 40 0 0 0
SMALL
GASTEIGER
Energy = 0

@<TRIPOS>ATOM
      1 S          -4.8080   -0.6750    0.0000 S.O2    1  LIG1        0.0649
      2 C          -4.8080   -1.6750    0.0000 C.ar    1  LIG1        0.1446
      3 C          -5.6710   -2.1750    0.0000 C.ar    1  LIG1        0.1616
      4 C          -5.6710   -3.1750    0.0000 C.ar    1  LIG1        0.1445
      5 N          -6.6210   -3.4880    0.0000 N.ar    1  LIG1       -0.0482
      6 O          -7.2040   -2.6830    0.0000 O.2     1  LIG1       -0.2415
      7 N          -6.6210   -1.8710    0.0000 N.ar    1  LIG1       -0.0469
      8 C          -4.8080   -3.6750    0.0000 C.ar    1  LIG1        0.0242
      9 C          -3.9460   -3.1750    0.0000 C.ar    1  LIG1        0.0031
     10 C          -3.9460   -2.1750    0.0000 C.ar    1  LIG1        0.0217
     11 N          -3.8080   -0.6750    0.0000 N.3     1  LIG1       -0.1555
     12 C          -3.3080    0.1880    0.0000 C.3     1  LIG1        0.0963
     13 C          -2.3080    0.1880    0.0000 C.3     1  LIG1        0.0283
     14 C          -1.8080   -0.6750    0.0000 C.3     1  LIG1        0.0811
     15 C          -0.8080   -0.6750    0.0000 C.2     1  LIG1        0.2412
     16 O          -0.3080   -1.5380    0.0000 O.2     1  LIG1       -0.2734
     17 N          -0.3080    0.1880    0.0000 N.am    1  LIG1       -0.1990
     18 C           0.7000    0.1880    0.0000 C.3     1  LIG1        0.1775
     19 C           1.2000    1.0500    0.0000 C.3     1  LIG1        0.1624
     20 N           2.2040    1.0500    0.0000 N.4     1  LIG1        0.3786
     21 C           2.7040    1.9170    0.0000 C.3     1  LIG1        0.1386
     22 C           3.7040    1.9170    0.0000 C.3     1  LIG1        0.0632
     23 C           4.2040    1.0500    0.0000 C.3     1  LIG1        0.0162
     24 C           5.2040    1.0670    0.0000 C.3     1  LIG1        0.0268
     25 C           5.7040    1.9290    0.0000 C.ar    1  LIG1       -0.0222
     26 C           6.7040    1.9380    0.0000 C.ar    1  LIG1       -0.0043
     27 C           7.2040    2.8000    0.0000 C.ar    1  LIG1       -0.0003
     28 C           6.7000    3.6790    0.0000 C.ar    1  LIG1       -0.0000
     29 C           5.6880    3.6750    0.0000 C.ar    1  LIG1       -0.0003
     30 C           5.2000    2.7960    0.0000 C.ar    1  LIG1       -0.0043
     31 C           3.7040    0.1880    0.0000 C.3     1  LIG1        0.0632
     32 C           2.7040    0.1880    0.0000 C.3     1  LIG1        0.1386
     33 C          -2.3080   -1.5380    0.0000 C.3     1  LIG1        0.0283
     34 C          -3.3080   -1.5380    0.0000 C.3     1  LIG1        0.0963
     35 O          -4.8080    0.3250    0.0000 O.2     1  LIG1       -0.1527
     36 O          -5.8080   -0.6750    0.0000 O.2     1  LIG1       -0.1527
@<TRIPOS>BOND
     1     1     2    1
     2     1    11    1
     3     1    35    2
     4     1    36    2
     5     2     3   ar
     6     2    10   ar
     7     3     4   ar
     8     3     7   ar
     9     4     5   ar
    10     4     8   ar
    11     5     6   ar
    12     6     7   ar
    13     8     9   ar
    14     9    10   ar
    15    11    12    1
    16    11    34    1
    17    12    13    1
    18    13    14    1
    19    14    15    1
    20    14    33    1
    21    15    16    2
    22    15    17   am
    23    17    18    1
    24    18    19    1
    25    19    20    1
    26    20    21    1
    27    20    32    1
    28    21    22    1
    29    22    23    1
    30    23    24    1
    31    23    31    1
    32    24    25    1
    33    25    26   ar
    34    25    30   ar
    35    26    27   ar
    36    27    28   ar
    37    28    29   ar
    38    29    30   ar
    39    31    32    1
    40    33    34    1
