@<TRIPOS>MOLECULE
29986_ChemDiv_8016-2551
 27 30 0 0 0
SMALL
GASTEIGER
Energy = 0

@<TRIPOS>ATOM
      1 C           2.2540    0.4330    0.0000 C.ar    1  LIG1        0.1295
      2 C           1.7500   -0.4380    0.0000 C.ar    1  LIG1        0.3502
      3 O           2.2420   -1.3040    0.0000 O.2     1  LIG1       -0.4209
      4 C           3.2420   -1.3040    0.0000 C.ar    1  LIG1        0.1487
      5 C           3.7500   -0.4500    0.0000 C.ar    1  LIG1        0.0350
      6 C           3.2540    0.4330    0.0000 C.ar    1  LIG1        0.0141
      7 C           4.7380   -0.4500    0.0000 C.ar    1  LIG1        0.0030
      8 C           5.2420   -1.3040    0.0000 C.ar    1  LIG1        0.0002
      9 C           4.7380   -2.1790    0.0000 C.ar    1  LIG1        0.0031
     10 C           3.7420   -2.1670    0.0000 C.ar    1  LIG1        0.0376
     11 O           0.7420   -0.4290    0.0000 O.2     1  LIG1       -0.2443
     12 C           1.7540    1.2960    0.0000 C.2     1  LIG1        0.2554
     13 N           0.7540    1.3000    0.0000 N.am    1  LIG1       -0.2724
     14 C           0.2540    0.4330    0.0000 C.3     1  LIG1        0.1151
     15 C          -0.7460    0.4380    0.0000 C.3     1  LIG1        0.1123
     16 N          -1.2460    1.3080    0.0000 N.pl3   1  LIG1       -0.3043
     17 C          -2.2460    1.3080    0.0000 C.ar    1  LIG1        0.0439
     18 C          -2.7460    0.4380    0.0000 C.ar    1  LIG1       -0.0088
     19 C          -3.7380    0.4380    0.0000 C.ar    1  LIG1       -0.0073
     20 C          -4.2460    1.3080    0.0000 C.ar    1  LIG1       -0.0221
     21 C          -3.7380    2.1830    0.0000 C.ar    1  LIG1       -0.0030
     22 C          -2.7460    2.1750    0.0000 C.ar    1  LIG1        0.0139
     23 C          -5.2460    1.3080    0.0000 C.3     1  LIG1        0.0310
     24 C          -2.2460   -0.4250    0.0000 C.3     1  LIG1        0.0323
     25 C          -0.7460    2.1630    0.0000 C.3     1  LIG1        0.1123
     26 C           0.2630    2.1630    0.0000 C.3     1  LIG1        0.1151
     27 O           2.2540    2.1630    0.0000 O.2     1  LIG1       -0.2697
@<TRIPOS>BOND
     1     1     2   ar
     2     1     6   ar
     3     1    12    1
     4     2     3   ar
     5     2    11    2
     6     3     4   ar
     7     4     5   ar
     8     4    10   ar
     9     5     6   ar
    10     5     7   ar
    11     7     8   ar
    12     8     9   ar
    13     9    10   ar
    14    12    13   am
    15    12    27    2
    16    13    14    1
    17    13    26    1
    18    14    15    1
    19    15    16    1
    20    16    17    1
    21    16    25    1
    22    17    18   ar
    23    17    22   ar
    24    18    19   ar
    25    18    24    1
    26    19    20   ar
    27    20    21   ar
    28    20    23    1
    29    21    22   ar
    30    25    26    1
