@<TRIPOS>MOLECULE
29981_ChemDiv_5498-2792
 38 42 0 0 0
SMALL
GASTEIGER
Energy = 0

@<TRIPOS>ATOM
      1 S           2.5580    5.0420    0.0000 S.O2    1  LIG1        0.0932
      2 C           1.7380    4.5460    0.0000 C.ar    1  LIG1        0.1211
      3 C           1.7380    3.5460    0.0000 C.ar    1  LIG1        0.0212
      4 C           0.9080    3.0380    0.0000 C.ar    1  LIG1        0.0207
      5 C           0.9080    2.0460    0.0000 C.ar    1  LIG1        0.1030
      6 N           1.7540    1.5000    0.0000 N.ar    1  LIG1       -0.1467
      7 N           1.7540    0.4920    0.0000 N.ar    1  LIG1       -0.1311
      8 C           0.9080    0.0000    0.0000 C.ar    1  LIG1        0.1734
      9 C           0.0420    0.4920    0.0000 C.ar    1  LIG1        0.0366
     10 C           0.0420    1.5000    0.0000 C.ar    1  LIG1        0.0222
     11 C          -0.8040    2.0460    0.0000 C.ar    1  LIG1        0.0016
     12 C          -1.6500    1.5000    0.0000 C.ar    1  LIG1        0.0001
     13 C          -1.6500    0.4920    0.0000 C.ar    1  LIG1        0.0001
     14 C          -0.8040    0.0000    0.0000 C.ar    1  LIG1        0.0029
     15 N           0.9080   -1.0080    0.0000 N.pl3   1  LIG1       -0.1927
     16 C           0.0420   -1.5460    0.0000 C.ar    1  LIG1        0.0725
     17 C           0.0420   -2.5250    0.0000 C.ar    1  LIG1        0.0241
     18 C          -0.8040   -3.0540    0.0000 C.ar    1  LIG1        0.0888
     19 C          -0.8040   -4.0420    0.0000 C.2     1  LIG1        0.2520
     20 N           0.0420   -4.5540    0.0000 N.am    1  LIG1       -0.2760
     21 C           0.0420   -5.5710    0.0000 C.3     1  LIG1        0.0937
     22 C           0.9080   -6.0460    0.0000 C.3     1  LIG1        0.0216
     23 C           1.7540   -5.5710    0.0000 C.3     1  LIG1        0.0035
     24 C           1.7540   -4.5540    0.0000 C.3     1  LIG1        0.0216
     25 C           0.9080   -4.0420    0.0000 C.3     1  LIG1        0.0937
     26 O          -1.6500   -4.5540    0.0000 O.2     1  LIG1       -0.2698
     27 C          -1.6500   -2.5250    0.0000 C.ar    1  LIG1        0.1431
     28 C          -1.6500   -1.5460    0.0000 C.ar    1  LIG1        0.0384
     29 C          -0.8040   -1.0080    0.0000 C.ar    1  LIG1        0.0197
     30 O          -2.5500   -3.0540    0.0000 O.3     1  LIG1       -0.4713
     31 C          -3.5580   -2.5960    0.0000 C.3     1  LIG1        0.2525
     32 C           0.0710    3.5460    0.0000 C.ar    1  LIG1        0.0013
     33 C           0.0710    4.5460    0.0000 C.ar    1  LIG1       -0.0029
     34 C           0.9080    5.0420    0.0000 C.ar    1  LIG1       -0.0031
     35 C           0.9080    6.0460    0.0000 C.3     1  LIG1        0.0324
     36 O           2.0830    5.9040    0.0000 O.2     1  LIG1       -0.1503
     37 O           3.0540    4.1920    0.0000 O.2     1  LIG1       -0.1503
     38 N           3.5540    5.4880    0.0000 N.3     1  LIG1        0.0392
@<TRIPOS>BOND
     1     1     2    1
     2     1    36    2
     3     1    37    2
     4     1    38    1
     5     2     3   ar
     6     2    34   ar
     7     3     4   ar
     8     4     5    1
     9     4    32   ar
    10     5     6   ar
    11     5    10   ar
    12     6     7   ar
    13     7     8   ar
    14     8     9   ar
    15     8    15    1
    16     9    10   ar
    17     9    14   ar
    18    10    11   ar
    19    11    12   ar
    20    12    13   ar
    21    13    14   ar
    22    15    16    1
    23    16    17   ar
    24    16    29   ar
    25    17    18   ar
    26    18    19    1
    27    18    27   ar
    28    19    20   am
    29    19    26    2
    30    20    21    1
    31    20    25    1
    32    21    22    1
    33    22    23    1
    34    23    24    1
    35    24    25    1
    36    27    28   ar
    37    27    30    1
    38    28    29   ar
    39    30    31    1
    40    32    33   ar
    41    33    34   ar
    42    34    35    1
