@<TRIPOS>MOLECULE
29990_ChemDiv_C038-0046
 27 30 0 0 0
SMALL
GASTEIGER
Energy = 0

@<TRIPOS>ATOM
      1 C           2.1540    0.7500    0.0000 C.ar    1  LIG1        0.0914
      2 C           2.1540   -0.2500    0.0000 C.2     1  LIG1        0.2522
      3 N           1.2880   -0.7500    0.0000 N.am    1  LIG1       -0.2725
      4 C           1.2880   -1.7500    0.0000 C.3     1  LIG1        0.1151
      5 C           0.4380   -2.2540    0.0000 C.3     1  LIG1        0.1124
      6 N          -0.4380   -1.7500    0.0000 N.pl3   1  LIG1       -0.3017
      7 C          -1.2920   -2.2540    0.0000 C.ar    1  LIG1        0.0824
      8 C          -2.1580   -1.7500    0.0000 C.ar    1  LIG1        0.1519
      9 O          -2.1580   -0.7500    0.0000 O.3     1  LIG1       -0.4702
     10 C          -3.0290   -0.2500    0.0000 C.3     1  LIG1        0.2525
     11 C          -3.0290   -2.2540    0.0000 C.ar    1  LIG1        0.0382
     12 C          -3.0290   -3.2500    0.0000 C.ar    1  LIG1        0.0032
     13 C          -2.1580   -3.7540    0.0000 C.ar    1  LIG1        0.0015
     14 C          -1.2920   -3.2500    0.0000 C.ar    1  LIG1        0.0176
     15 C          -0.4380   -0.7500    0.0000 C.3     1  LIG1        0.1124
     16 C           0.4330   -0.2500    0.0000 C.3     1  LIG1        0.1151
     17 O           3.0250   -0.7500    0.0000 O.2     1  LIG1       -0.2698
     18 C           1.2880    1.2540    0.0000 C.ar    1  LIG1        0.0137
     19 C           1.2880    2.2540    0.0000 C.ar    1  LIG1        0.0763
     20 C           2.1540    2.7540    0.0000 C.ar    1  LIG1        0.3458
     21 O           3.0250    2.2540    0.0000 O.2     1  LIG1       -0.4177
     22 C           3.0250    1.2540    0.0000 C.ar    1  LIG1        0.1875
     23 O           2.1540    3.7580    0.0000 O.2     1  LIG1       -0.2445
     24 C           0.4380    2.7540    0.0000 C.ar    1  LIG1        0.0065
     25 C          -0.4330    2.2540    0.0000 C.ar    1  LIG1        0.0002
     26 C          -0.4330    1.2540    0.0000 C.ar    1  LIG1        0.0000
     27 C           0.4380    0.7500    0.0000 C.ar    1  LIG1        0.0005
@<TRIPOS>BOND
     1     1     2    1
     2     1    18   ar
     3     1    22   ar
     4     2     3   am
     5     2    17    2
     6     3     4    1
     7     3    16    1
     8     4     5    1
     9     5     6    1
    10     6     7    1
    11     6    15    1
    12     7     8   ar
    13     7    14   ar
    14     8     9    1
    15     8    11   ar
    16     9    10    1
    17    11    12   ar
    18    12    13   ar
    19    13    14   ar
    20    15    16    1
    21    18    19   ar
    22    18    27   ar
    23    19    20   ar
    24    19    24   ar
    25    20    21   ar
    26    20    23    2
    27    21    22   ar
    28    24    25   ar
    29    25    26   ar
    30    26    27   ar
