@<TRIPOS>MOLECULE
29994_ChemDiv_C038-0091
 25 28 0 0 0
SMALL
GASTEIGER
Energy = 0

@<TRIPOS>ATOM
      1 C           2.0420    0.9380    0.0000 C.ar    1  LIG1        0.0914
      2 C           2.0420   -0.0630    0.0000 C.2     1  LIG1        0.2522
      3 N           1.1750   -0.5670    0.0000 N.am    1  LIG1       -0.2725
      4 C           0.3210   -0.0630    0.0000 C.3     1  LIG1        0.1152
      5 C          -0.5500   -0.5670    0.0000 C.3     1  LIG1        0.1137
      6 N          -0.5500   -1.5670    0.0000 N.pl3   1  LIG1       -0.2897
      7 C          -1.2580   -2.2750    0.0000 C.ar    1  LIG1        0.1318
      8 N          -0.9880   -3.2380    0.0000 N.ar    1  LIG1       -0.2292
      9 C          -1.6790   -3.9460    0.0000 C.ar    1  LIG1        0.1003
     10 C          -2.6580   -3.6790    0.0000 C.ar    1  LIG1        0.0208
     11 C          -2.9170   -2.7250    0.0000 C.ar    1  LIG1        0.0045
     12 C          -2.2170   -2.0210    0.0000 C.ar    1  LIG1        0.0343
     13 C           0.3210   -2.0710    0.0000 C.3     1  LIG1        0.1137
     14 C           1.1750   -1.5670    0.0000 C.3     1  LIG1        0.1152
     15 O           2.9130   -0.5670    0.0000 O.2     1  LIG1       -0.2698
     16 C           1.1750    1.4420    0.0000 C.ar    1  LIG1        0.0137
     17 C           1.1750    2.4420    0.0000 C.ar    1  LIG1        0.0763
     18 C           2.0420    2.9460    0.0000 C.ar    1  LIG1        0.3458
     19 O           2.9130    2.4420    0.0000 O.2     1  LIG1       -0.4177
     20 C           2.9130    1.4420    0.0000 C.ar    1  LIG1        0.1875
     21 O           2.0420    3.9500    0.0000 O.2     1  LIG1       -0.2445
     22 C           0.3210    2.9460    0.0000 C.ar    1  LIG1        0.0065
     23 C          -0.5500    2.4420    0.0000 C.ar    1  LIG1        0.0002
     24 C          -0.5500    1.4420    0.0000 C.ar    1  LIG1        0.0000
     25 C           0.3210    0.9380    0.0000 C.ar    1  LIG1        0.0005
@<TRIPOS>BOND
     1     1     2    1
     2     1    16   ar
     3     1    20   ar
     4     2     3   am
     5     2    15    2
     6     3     4    1
     7     3    14    1
     8     4     5    1
     9     5     6    1
    10     6     7    1
    11     6    13    1
    12     7     8   ar
    13     7    12   ar
    14     8     9   ar
    15     9    10   ar
    16    10    11   ar
    17    11    12   ar
    18    13    14    1
    19    16    17   ar
    20    16    25   ar
    21    17    18   ar
    22    17    22   ar
    23    18    19   ar
    24    18    21    2
    25    19    20   ar
    26    22    23   ar
    27    23    24   ar
    28    24    25   ar
