@<TRIPOS>MOLECULE
29998_ChemDiv_3720-2130
 26 28 0 0 0
SMALL
GASTEIGER
Energy = 0

@<TRIPOS>ATOM
      1 C          -0.8630   -0.1830    0.0000 C.ar    1  LIG1        0.1313
      2 C          -0.8630   -1.1960    0.0000 C.ar    1  LIG1        0.3502
      3 O          -1.7250   -1.6880    0.0000 O.2     1  LIG1       -0.4204
      4 C          -2.5830   -1.1960    0.0000 C.ar    1  LIG1        0.1548
      5 C          -2.5830   -0.1830    0.0000 C.ar    1  LIG1        0.0360
      6 C          -1.7250    0.3380    0.0000 C.ar    1  LIG1        0.0142
      7 C          -3.4460    0.3380    0.0000 C.ar    1  LIG1        0.0098
      8 C          -4.3040   -0.1830    0.0000 C.ar    1  LIG1        0.0353
      9 C          -4.3040   -1.1960    0.0000 C.ar    1  LIG1        0.0165
     10 C          -3.4460   -1.6880    0.0000 C.ar    1  LIG1        0.0696
     11 BR         -3.4460   -2.7000    0.0000 Br      1  LIG1       -0.0458
     12 BR         -5.1670    0.3380    0.0000 Br      1  LIG1       -0.0490
     13 O           0.0000   -1.6880    0.0000 O.2     1  LIG1       -0.2443
     14 C           0.0000    0.3380    0.0000 C.2     1  LIG1        0.2753
     15 N           0.8580   -0.1380    0.0000 N.am    1  LIG1       -0.1753
     16 C           1.7210    0.3380    0.0000 C.ar    1  LIG1        0.0738
     17 C           2.5790   -0.1380    0.0000 C.ar    1  LIG1        0.0180
     18 C           3.4670    0.3380    0.0000 C.ar    1  LIG1        0.0213
     19 C           3.4670    1.3500    0.0000 C.ar    1  LIG1        0.1251
     20 S           4.3290    1.8460    0.0000 S.O2    1  LIG1        0.0935
     21 O           3.8330    2.7040    0.0000 O.2     1  LIG1       -0.1503
     22 O           4.8210    0.9830    0.0000 O.2     1  LIG1       -0.1503
     23 N           5.1630    2.3210    0.0000 N.3     1  LIG1        0.0392
     24 C           2.5790    1.8630    0.0000 C.ar    1  LIG1        0.0213
     25 C           1.7210    1.3500    0.0000 C.ar    1  LIG1        0.0180
     26 O           0.0000    1.3500    0.0000 O.2     1  LIG1       -0.2678
@<TRIPOS>BOND
     1     1     2   ar
     2     1     6   ar
     3     1    14    1
     4     2     3   ar
     5     2    13    2
     6     3     4   ar
     7     4     5   ar
     8     4    10   ar
     9     5     6   ar
    10     5     7   ar
    11     7     8   ar
    12     8     9   ar
    13     8    12    1
    14     9    10   ar
    15    10    11    1
    16    14    15   am
    17    14    26    2
    18    15    16    1
    19    16    17   ar
    20    16    25   ar
    21    17    18   ar
    22    18    19   ar
    23    19    20    1
    24    19    24   ar
    25    20    21    2
    26    20    22    2
    27    20    23    1
    28    24    25   ar
