@<TRIPOS>MOLECULE
30001_ChemDiv_8012-5467
 38 42 0 0 0
SMALL
GASTEIGER
Energy = 0

@<TRIPOS>ATOM
      1 S           3.0080   -0.0210    0.0000 S.O2    1  LIG1        0.0769
      2 C           2.1380    0.5040    0.0000 C.ar    1  LIG1        0.1196
      3 C           1.2790   -0.0210    0.0000 C.ar    1  LIG1        0.0212
      4 C           0.4080    0.5040    0.0000 C.ar    1  LIG1        0.0207
      5 C          -0.4630   -0.0210    0.0000 C.ar    1  LIG1        0.1030
      6 N          -0.4500   -1.0000    0.0000 N.ar    1  LIG1       -0.1467
      7 N          -1.3380   -1.5000    0.0000 N.ar    1  LIG1       -0.1311
      8 C          -2.1830   -1.0000    0.0000 C.ar    1  LIG1        0.1734
      9 C          -2.1830   -0.0210    0.0000 C.ar    1  LIG1        0.0366
     10 C          -1.3380    0.5040    0.0000 C.ar    1  LIG1        0.0222
     11 C          -1.3380    1.5040    0.0000 C.ar    1  LIG1        0.0016
     12 C          -2.1830    2.0040    0.0000 C.ar    1  LIG1        0.0001
     13 C          -3.0790    1.5040    0.0000 C.ar    1  LIG1        0.0001
     14 C          -3.0500    0.5040    0.0000 C.ar    1  LIG1        0.0029
     15 N          -3.0790   -1.5000    0.0000 N.pl3   1  LIG1       -0.1927
     16 C          -3.9210   -1.0000    0.0000 C.ar    1  LIG1        0.0722
     17 C          -4.7960   -1.5000    0.0000 C.ar    1  LIG1        0.0167
     18 C          -5.6710   -1.0000    0.0000 C.ar    1  LIG1        0.0060
     19 C          -5.6710   -0.0210    0.0000 C.ar    1  LIG1        0.0567
     20 C          -6.5420    0.4540    0.0000 C.2     1  LIG1        0.2842
     21 O          -7.3710   -0.0710    0.0000 O.2     1  LIG1       -0.2667
     22 N          -6.5790    1.4630    0.0000 N.am    1  LIG1       -0.0837
     23 C          -4.7710    0.4790    0.0000 C.ar    1  LIG1        0.0060
     24 C          -3.9210   -0.0210    0.0000 C.ar    1  LIG1        0.0167
     25 C           0.4080    1.5040    0.0000 C.ar    1  LIG1        0.0013
     26 C           1.2790    2.0040    0.0000 C.ar    1  LIG1       -0.0029
     27 C           2.1380    1.5040    0.0000 C.ar    1  LIG1       -0.0032
     28 C           3.0080    2.0040    0.0000 C.3     1  LIG1        0.0324
     29 N           3.8790   -0.5040    0.0000 N.3     1  LIG1       -0.0713
     30 C           4.7580   -0.0210    0.0000 C.3     1  LIG1        0.1608
     31 C           5.6290   -0.5040    0.0000 C.ar    1  LIG1        0.0785
     32 N           5.6290   -1.5000    0.0000 N.ar    1  LIG1       -0.2467
     33 C           6.4710   -2.0000    0.0000 C.ar    1  LIG1        0.0985
     34 C           7.3710   -1.5000    0.0000 C.ar    1  LIG1        0.0207
     35 C           7.3420   -0.5040    0.0000 C.ar    1  LIG1        0.0029
     36 C           6.4710   -0.0210    0.0000 C.ar    1  LIG1        0.0163
     37 O           3.5080    0.8540    0.0000 O.2     1  LIG1       -0.1516
     38 O           2.5130   -0.8790    0.0000 O.2     1  LIG1       -0.1516
@<TRIPOS>BOND
     1     1     2    1
     2     1    29    1
     3     1    37    2
     4     1    38    2
     5     2     3   ar
     6     2    27   ar
     7     3     4   ar
     8     4     5    1
     9     4    25   ar
    10     5     6   ar
    11     5    10   ar
    12     6     7   ar
    13     7     8   ar
    14     8     9   ar
    15     8    15    1
    16     9    10   ar
    17     9    14   ar
    18    10    11   ar
    19    11    12   ar
    20    12    13   ar
    21    13    14   ar
    22    15    16    1
    23    16    17   ar
    24    16    24   ar
    25    17    18   ar
    26    18    19   ar
    27    19    20    1
    28    19    23   ar
    29    20    21    2
    30    20    22   am
    31    23    24   ar
    32    25    26   ar
    33    26    27   ar
    34    27    28    1
    35    29    30    1
    36    30    31    1
    37    31    32   ar
    38    31    36   ar
    39    32    33   ar
    40    33    34   ar
    41    34    35   ar
    42    35    36   ar
