@<TRIPOS>MOLECULE
30008_ChemDiv_6228-1073
 23 24 0 0 0
SMALL
GASTEIGER
Energy = 0

@<TRIPOS>ATOM
      1 N          -2.1290   -1.7960    0.0000 N.4     1  LIG1        0.3100
      2 C          -2.1290   -2.8040    0.0000 C.3     1  LIG1        0.2195
      3 C          -1.2630   -3.2960    0.0000 C.2     1  LIG1        0.3739
      4 O          -1.2630   -4.3130    0.0000 O.2     1  LIG1       -0.2435
      5 O          -0.3830   -2.8040    0.0000 O.3     1  LIG1       -0.4443
      6 C          -0.3830   -1.7960    0.0000 C.3     1  LIG1        0.2125
      7 C           0.4920   -1.2920    0.0000 C.3     1  LIG1        0.0948
      8 C           0.4920   -0.2830    0.0000 C.3     1  LIG1        0.2125
      9 O           1.3670    0.2170    0.0000 O.3     1  LIG1       -0.4443
     10 C           1.3670    1.2250    0.0000 C.2     1  LIG1        0.3739
     11 C           2.2420    1.7290    0.0000 C.3     1  LIG1        0.2195
     12 N           2.2420    2.7380    0.0000 N.4     1  LIG1        0.3100
     13 C           1.4540    2.4920    0.0000 C.3     1  LIG1        0.1711
     14 C           3.0000    3.4210    0.0000 C.3     1  LIG1        0.1096
     15 C           2.5960    4.3130    0.0000 C.3     1  LIG1        0.0671
     16 C           1.5750    4.2170    0.0000 C.3     1  LIG1        0.0671
     17 C           1.3670    3.2500    0.0000 C.3     1  LIG1        0.1096
     18 O           0.4920    1.7290    0.0000 O.2     1  LIG1       -0.2435
     19 C          -3.0040   -2.2960    0.0000 C.3     1  LIG1        0.1711
     20 C          -1.3750   -1.1170    0.0000 C.3     1  LIG1        0.1096
     21 C          -1.7880   -0.2080    0.0000 C.3     1  LIG1        0.0671
     22 C          -2.7960   -0.3000    0.0000 C.3     1  LIG1        0.0671
     23 C          -3.0040   -1.2920    0.0000 C.3     1  LIG1        0.1096
@<TRIPOS>BOND
     1     1     2    1
     2     1    19    1
     3     1    20    1
     4     1    23    1
     5     2     3    1
     6     3     4    2
     7     3     5    1
     8     5     6    1
     9     6     7    1
    10     7     8    1
    11     8     9    1
    12     9    10    1
    13    10    11    1
    14    10    18    2
    15    11    12    1
    16    12    13    1
    17    12    14    1
    18    12    17    1
    19    14    15    1
    20    15    16    1
    21    16    17    1
    22    20    21    1
    23    21    22    1
    24    22    23    1
