@<TRIPOS>MOLECULE
30005_ChemDiv_8012-5761
 36 40 0 0 0
SMALL
GASTEIGER
Energy = 0

@<TRIPOS>ATOM
      1 S           2.6000    0.5210    0.0000 S.O2    1  LIG1        0.0769
      2 C           1.7130    0.9920    0.0000 C.ar    1  LIG1        0.1196
      3 C           0.8380    0.4540    0.0000 C.ar    1  LIG1        0.0212
      4 C          -0.0250    0.9460    0.0000 C.ar    1  LIG1        0.0207
      5 C          -0.8920    0.4380    0.0000 C.ar    1  LIG1        0.1030
      6 N          -0.8750   -0.5460    0.0000 N.ar    1  LIG1       -0.1467
      7 N          -1.7210   -1.0170    0.0000 N.ar    1  LIG1       -0.1314
      8 C          -2.6170   -0.5040    0.0000 C.ar    1  LIG1        0.1695
      9 C          -2.6170    0.4540    0.0000 C.ar    1  LIG1        0.0363
     10 C          -1.7330    0.9460    0.0000 C.ar    1  LIG1        0.0222
     11 C          -1.7330    1.9500    0.0000 C.ar    1  LIG1        0.0016
     12 C          -2.6170    2.4420    0.0000 C.ar    1  LIG1        0.0001
     13 C          -3.4710    1.9580    0.0000 C.ar    1  LIG1        0.0001
     14 C          -3.4710    0.9630    0.0000 C.ar    1  LIG1        0.0029
     15 N          -3.4790   -1.0580    0.0000 N.pl3   1  LIG1       -0.2140
     16 C          -4.3630   -0.5460    0.0000 C.3     1  LIG1        0.1402
     17 C          -5.2330   -1.0170    0.0000 C.ar    1  LIG1       -0.0006
     18 C          -6.0670   -0.5040    0.0000 C.ar    1  LIG1       -0.0026
     19 C          -6.9630   -0.9630    0.0000 C.ar    1  LIG1       -0.0003
     20 C          -7.0130   -1.9630    0.0000 C.ar    1  LIG1       -0.0000
     21 C          -6.1750   -2.4880    0.0000 C.ar    1  LIG1       -0.0003
     22 C          -5.2880   -2.0170    0.0000 C.ar    1  LIG1       -0.0026
     23 C          -0.0250    1.9500    0.0000 C.ar    1  LIG1        0.0013
     24 C           0.8380    2.4420    0.0000 C.ar    1  LIG1       -0.0029
     25 C           1.7000    1.9580    0.0000 C.ar    1  LIG1       -0.0032
     26 C           2.5630    2.4920    0.0000 C.3     1  LIG1        0.0324
     27 N           3.4960    0.0580    0.0000 N.3     1  LIG1       -0.0713
     28 C           4.3290    0.5710    0.0000 C.3     1  LIG1        0.1608
     29 C           5.2080    0.1420    0.0000 C.ar    1  LIG1        0.0785
     30 N           5.2580   -0.8830    0.0000 N.ar    1  LIG1       -0.2467
     31 C           6.1330   -1.3420    0.0000 C.ar    1  LIG1        0.0985
     32 C           7.0130   -0.7750    0.0000 C.ar    1  LIG1        0.0207
     33 C           6.9420    0.2080    0.0000 C.ar    1  LIG1        0.0029
     34 C           6.0630    0.6750    0.0000 C.ar    1  LIG1        0.0163
     35 O           3.0750    1.4080    0.0000 O.2     1  LIG1       -0.1516
     36 O           2.1210   -0.4000    0.0000 O.2     1  LIG1       -0.1516
@<TRIPOS>BOND
     1     1     2    1
     2     1    27    1
     3     1    35    2
     4     1    36    2
     5     2     3   ar
     6     2    25   ar
     7     3     4   ar
     8     4     5    1
     9     4    23   ar
    10     5     6   ar
    11     5    10   ar
    12     6     7   ar
    13     7     8   ar
    14     8     9   ar
    15     8    15    1
    16     9    10   ar
    17     9    14   ar
    18    10    11   ar
    19    11    12   ar
    20    12    13   ar
    21    13    14   ar
    22    15    16    1
    23    16    17    1
    24    17    18   ar
    25    17    22   ar
    26    18    19   ar
    27    19    20   ar
    28    20    21   ar
    29    21    22   ar
    30    23    24   ar
    31    24    25   ar
    32    25    26    1
    33    27    28    1
    34    28    29    1
    35    29    30   ar
    36    29    34   ar
    37    30    31   ar
    38    31    32   ar
    39    32    33   ar
    40    33    34   ar
