@<TRIPOS>MOLECULE
30000_ChemDiv_3721-3408
 34 38 0 0 0
SMALL
GASTEIGER
Energy = 0

@<TRIPOS>ATOM
      1 S           0.4330    1.0170    0.0000 S.O2    1  LIG1        0.0637
      2 N          -0.4170    0.4960    0.0000 N.3     1  LIG1       -0.1433
      3 C          -0.3750   -0.4880    0.0000 C.3     1  LIG1        0.1585
      4 C          -1.2540   -1.0130    0.0000 C.3     1  LIG1        0.1587
      5 N          -2.1170   -0.5250    0.0000 N.4     1  LIG1        0.3815
      6 C          -2.9790   -1.0330    0.0000 C.3     1  LIG1        0.1331
      7 C          -2.9540   -2.0460    0.0000 C.ar    1  LIG1        0.0328
      8 C          -3.8210   -2.5540    0.0000 C.ar    1  LIG1        0.0016
      9 C          -3.8040   -3.5670    0.0000 C.ar    1  LIG1       -0.0001
     10 C          -2.9290   -4.0500    0.0000 C.ar    1  LIG1       -0.0000
     11 C          -2.0580   -3.5130    0.0000 C.ar    1  LIG1       -0.0001
     12 C          -2.0790   -2.5170    0.0000 C.ar    1  LIG1        0.0016
     13 C          -3.8540   -0.5460    0.0000 C.ar    1  LIG1        0.0328
     14 C          -4.7040   -1.0750    0.0000 C.ar    1  LIG1        0.0016
     15 C          -5.5830   -0.5960    0.0000 C.ar    1  LIG1       -0.0001
     16 C          -5.6000    0.4080    0.0000 C.ar    1  LIG1       -0.0000
     17 C          -4.7420    0.9210    0.0000 C.ar    1  LIG1       -0.0001
     18 C          -3.8670    0.4330    0.0000 C.ar    1  LIG1        0.0016
     19 C          -2.1380    0.4710    0.0000 C.3     1  LIG1        0.1587
     20 C          -1.2880    0.9830    0.0000 C.3     1  LIG1        0.1585
     21 C           1.2830    1.5170    0.0000 C.ar    1  LIG1        0.1222
     22 C           2.1750    1.0330    0.0000 C.ar    1  LIG1        0.0199
     23 C           3.0250    1.5290    0.0000 C.ar    1  LIG1        0.0015
     24 C           3.0250    2.5380    0.0000 C.ar    1  LIG1        0.0031
     25 C           3.8750    3.0380    0.0000 C.ar    1  LIG1        0.0369
     26 C           4.7380    2.5500    0.0000 C.ar    1  LIG1        0.1387
     27 C           4.7460    1.5380    0.0000 C.ar    1  LIG1        0.0369
     28 C           3.8880    1.0330    0.0000 C.ar    1  LIG1        0.0032
     29 O           5.5960    3.0580    0.0000 O.3     1  LIG1       -0.4714
     30 C           5.5960    4.0500    0.0000 C.3     1  LIG1        0.2525
     31 C           2.1330    3.0210    0.0000 C.ar    1  LIG1        0.0015
     32 C           1.2830    2.5130    0.0000 C.ar    1  LIG1        0.0199
     33 O           1.3250    0.5290    0.0000 O.2     1  LIG1       -0.1528
     34 O           0.4130    2.0170    0.0000 O.2     1  LIG1       -0.1528
@<TRIPOS>BOND
     1     1     2    1
     2     1    21    1
     3     1    33    2
     4     1    34    2
     5     2     3    1
     6     2    20    1
     7     3     4    1
     8     4     5    1
     9     5     6    1
    10     5    19    1
    11     6     7    1
    12     6    13    1
    13     7     8   ar
    14     7    12   ar
    15     8     9   ar
    16     9    10   ar
    17    10    11   ar
    18    11    12   ar
    19    13    14   ar
    20    13    18   ar
    21    14    15   ar
    22    15    16   ar
    23    16    17   ar
    24    17    18   ar
    25    19    20    1
    26    21    22   ar
    27    21    32   ar
    28    22    23   ar
    29    23    24   ar
    30    23    28   ar
    31    24    25   ar
    32    24    31   ar
    33    25    26   ar
    34    26    27   ar
    35    26    29    1
    36    27    28   ar
    37    29    30    1
    38    31    32   ar
