@<TRIPOS>MOLECULE
30014_ChemDiv_3698-0061
 33 37 0 0 0
SMALL
GASTEIGER
Energy = 0

@<TRIPOS>ATOM
      1 N           2.4210   -1.9670    0.0000 N.am    1  LIG1       -0.2115
      2 C           3.2920   -2.4000    0.0000 C.2     1  LIG1        0.2556
      3 C           4.0370   -1.7790    0.0000 C.ar    1  LIG1        0.0584
      4 C           3.6330   -0.8460    0.0000 C.ar    1  LIG1        0.0584
      5 C           2.6040   -0.9460    0.0000 C.2     1  LIG1        0.2556
      6 O           2.0130   -0.2170    0.0000 O.2     1  LIG1       -0.2695
      7 C           4.2210   -0.0290    0.0000 C.ar    1  LIG1        0.0047
      8 C           5.2670   -0.1580    0.0000 C.ar    1  LIG1        0.0001
      9 C           5.6670   -1.1040    0.0000 C.ar    1  LIG1        0.0001
     10 C           5.0330   -1.9170    0.0000 C.ar    1  LIG1        0.0047
     11 O           3.3460   -3.3920    0.0000 O.2     1  LIG1       -0.2695
     12 C           1.5670   -2.4540    0.0000 C.3     1  LIG1        0.2107
     13 C           0.7170   -1.9420    0.0000 C.2     1  LIG1        0.3388
     14 O           0.7170   -0.9540    0.0000 O.3     1  LIG1       -0.4344
     15 C          -0.1420   -0.4460    0.0000 C.3     1  LIG1        0.2739
     16 S          -0.1420    0.5670    0.0000 S.3     1  LIG1       -0.0270
     17 C          -1.0210    1.0960    0.0000 C.ar    1  LIG1        0.2151
     18 N          -1.8710    0.5920    0.0000 N.ar    1  LIG1       -0.2007
     19 C          -2.7290    1.0960    0.0000 C.ar    1  LIG1        0.1656
     20 C          -2.7290    2.0920    0.0000 C.ar    1  LIG1        0.1383
     21 C          -3.6880    2.4000    0.0000 C.ar    1  LIG1        0.0382
     22 C          -4.2540    1.5830    0.0000 C.ar    1  LIG1        0.0626
     23 N          -3.6880    0.7830    0.0000 N.ar    1  LIG1       -0.3114
     24 C          -4.0290   -0.1580    0.0000 C.3     1  LIG1        0.1075
     25 C          -3.3960   -0.9290    0.0000 C.3     1  LIG1        0.0245
     26 C          -3.7040   -1.8630    0.0000 C.3     1  LIG1        0.0021
     27 C          -5.2290    1.6580    0.0000 C.ar    1  LIG1        0.0173
     28 C          -5.6710    2.5630    0.0000 C.ar    1  LIG1        0.0015
     29 C          -5.1040    3.3960    0.0000 C.ar    1  LIG1        0.0001
     30 C          -4.1210    3.3170    0.0000 C.ar    1  LIG1        0.0031
     31 N          -1.8710    2.5920    0.0000 N.ar    1  LIG1       -0.1429
     32 N          -1.0210    2.0920    0.0000 N.ar    1  LIG1       -0.1216
     33 O          -0.1420   -2.4540    0.0000 O.2     1  LIG1       -0.2481
@<TRIPOS>BOND
     1     1     2   am
     2     1     5   am
     3     1    12    1
     4     2     3    1
     5     2    11    2
     6     3     4   ar
     7     3    10   ar
     8     4     5    1
     9     4     7   ar
    10     5     6    2
    11     7     8   ar
    12     8     9   ar
    13     9    10   ar
    14    12    13    1
    15    13    14    1
    16    13    33    2
    17    14    15    1
    18    15    16    1
    19    16    17    1
    20    17    18   ar
    21    17    32   ar
    22    18    19   ar
    23    19    20   ar
    24    19    23   ar
    25    20    21   ar
    26    20    31   ar
    27    21    22   ar
    28    21    30   ar
    29    22    23   ar
    30    22    27   ar
    31    23    24    1
    32    24    25    1
    33    25    26    1
    34    27    28   ar
    35    28    29   ar
    36    29    30   ar
    37    31    32   ar
