@<TRIPOS>MOLECULE
30018_ChemDiv_3721-3422
 31 34 0 0 0
SMALL
GASTEIGER
Energy = 0

@<TRIPOS>ATOM
      1 S          -1.4920   -0.0080    0.0000 S.O2    1  LIG1        0.0666
      2 C          -2.5000   -0.0080    0.0000 C.ar    1  LIG1        0.1556
      3 C          -2.9960   -0.8710    0.0000 C.ar    1  LIG1        0.1572
      4 C          -3.9790   -0.8710    0.0000 C.ar    1  LIG1        0.0380
      5 C          -4.4710   -0.0080    0.0000 C.ar    1  LIG1       -0.0011
      6 C          -3.9790    0.8750    0.0000 C.ar    1  LIG1       -0.0203
      7 C          -2.9960    0.8750    0.0000 C.ar    1  LIG1        0.0188
      8 C          -4.5000    1.7630    0.0000 C.3     1  LIG1        0.0311
      9 O          -2.4750   -1.7580    0.0000 O.3     1  LIG1       -0.4701
     10 C          -1.4920   -1.7580    0.0000 C.3     1  LIG1        0.2525
     11 N          -0.5040   -0.0080    0.0000 N.3     1  LIG1       -0.1432
     12 C           0.0130    0.8750    0.0000 C.3     1  LIG1        0.1585
     13 C           1.0000    0.8750    0.0000 C.3     1  LIG1        0.1587
     14 N           1.4920   -0.0080    0.0000 N.4     1  LIG1        0.3815
     15 C           2.5040   -0.0080    0.0000 C.3     1  LIG1        0.1331
     16 C           2.9960    0.8750    0.0000 C.ar    1  LIG1        0.0328
     17 C           3.9790    0.8750    0.0000 C.ar    1  LIG1        0.0016
     18 C           4.4750    1.7380    0.0000 C.ar    1  LIG1       -0.0001
     19 C           3.9790    2.6000    0.0000 C.ar    1  LIG1       -0.0000
     20 C           2.9710    2.6000    0.0000 C.ar    1  LIG1       -0.0001
     21 C           2.4750    1.7380    0.0000 C.ar    1  LIG1        0.0016
     22 C           2.9960   -0.8710    0.0000 C.ar    1  LIG1        0.0328
     23 C           4.0000   -0.8710    0.0000 C.ar    1  LIG1        0.0016
     24 C           4.4960   -1.7330    0.0000 C.ar    1  LIG1       -0.0001
     25 C           4.0000   -2.5960    0.0000 C.ar    1  LIG1       -0.0000
     26 C           3.0170   -2.5960    0.0000 C.ar    1  LIG1       -0.0001
     27 C           2.5040   -1.7330    0.0000 C.ar    1  LIG1        0.0016
     28 C           1.0000   -0.8710    0.0000 C.3     1  LIG1        0.1587
     29 C          -0.0130   -0.8710    0.0000 C.3     1  LIG1        0.1585
     30 O          -1.4920    1.0000    0.0000 O.2     1  LIG1       -0.1527
     31 O          -1.4920   -0.9920    0.0000 O.2     1  LIG1       -0.1527
@<TRIPOS>BOND
     1     1     2    1
     2     1    11    1
     3     1    30    2
     4     1    31    2
     5     2     3   ar
     6     2     7   ar
     7     3     4   ar
     8     3     9    1
     9     4     5   ar
    10     5     6   ar
    11     6     7   ar
    12     6     8    1
    13     9    10    1
    14    11    12    1
    15    11    29    1
    16    12    13    1
    17    13    14    1
    18    14    15    1
    19    14    28    1
    20    15    16    1
    21    15    22    1
    22    16    17   ar
    23    16    21   ar
    24    17    18   ar
    25    18    19   ar
    26    19    20   ar
    27    20    21   ar
    28    22    23   ar
    29    22    27   ar
    30    23    24   ar
    31    24    25   ar
    32    25    26   ar
    33    26    27   ar
    34    28    29    1
