@<TRIPOS>MOLECULE
30013_ChemDiv_3647-1350
 15 17 0 0 0
SMALL
GASTEIGER
Energy = 0

@<TRIPOS>ATOM
      1 N           0.3500    0.4290    0.0000 N.am    1  LIG1       -0.2308
      2 C          -0.2290   -0.4080    0.0000 C.2     1  LIG1        0.2542
      3 C          -1.1880   -0.1040    0.0000 C.ar    1  LIG1        0.0516
      4 C          -1.1880    0.8960    0.0000 C.ar    1  LIG1        0.0025
      5 C          -0.2290    1.1880    0.0000 C.3     1  LIG1        0.1271
      6 C          -2.0630    1.4250    0.0000 C.ar    1  LIG1       -0.0025
      7 C          -2.9290    0.8960    0.0000 C.ar    1  LIG1       -0.0003
      8 C          -2.9290   -0.1040    0.0000 C.ar    1  LIG1        0.0001
      9 C          -2.0630   -0.6040    0.0000 C.ar    1  LIG1        0.0043
     10 O           0.1210   -1.4210    0.0000 O.2     1  LIG1       -0.2695
     11 C           1.3920    0.4790    0.0000 C.ar    1  LIG1        0.1694
     12 N           1.9920    1.2750    0.0000 N.ar    1  LIG1       -0.2221
     13 C           2.9250    0.9290    0.0000 C.ar    1  LIG1        0.1079
     14 C           2.9130    0.0130    0.0000 C.ar    1  LIG1        0.0588
     15 S           1.9790   -0.2920    0.0000 S.2     1  LIG1       -0.0505
@<TRIPOS>BOND
     1     1     2   am
     2     1     5    1
     3     1    11    1
     4     2     3    1
     5     2    10    2
     6     3     4   ar
     7     3     9   ar
     8     4     5    1
     9     4     6   ar
    10     6     7   ar
    11     7     8   ar
    12     8     9   ar
    13    11    12   ar
    14    11    15   ar
    15    12    13   ar
    16    13    14   ar
    17    14    15   ar
