@<TRIPOS>MOLECULE
30011_ChemDiv_3643-2273
 31 34 0 0 0
SMALL
GASTEIGER
Energy = 0

@<TRIPOS>ATOM
      1 C          -4.3290   -0.2460    0.0000 C.2     1  LIG1        0.3276
      2 N          -5.1960    0.2460    0.0000 N.am    1  LIG1       -0.2574
      3 C          -6.0460   -0.2460    0.0000 C.3     1  LIG1        0.1271
      4 C          -6.9380    0.2460    0.0000 C.3     1  LIG1        0.1637
      5 O          -6.9210    1.2420    0.0000 O.3     1  LIG1       -0.3501
      6 C          -6.0460    1.7420    0.0000 C.3     1  LIG1        0.1637
      7 C          -5.1960    1.2420    0.0000 C.3     1  LIG1        0.1271
      8 N          -3.4670    0.2460    0.0000 N.am    1  LIG1       -0.1622
      9 C          -2.5920   -0.2460    0.0000 C.ar    1  LIG1        0.0749
     10 C          -2.5880   -1.2580    0.0000 C.ar    1  LIG1        0.0163
     11 C          -1.7210   -1.7580    0.0000 C.ar    1  LIG1       -0.0026
     12 C          -0.8710   -1.2580    0.0000 C.ar    1  LIG1       -0.0177
     13 C          -0.0080   -1.7580    0.0000 C.3     1  LIG1        0.0526
     14 C           0.8670   -1.2580    0.0000 C.ar    1  LIG1       -0.0177
     15 C           1.7210   -1.7580    0.0000 C.ar    1  LIG1       -0.0026
     16 C           2.5880   -1.2580    0.0000 C.ar    1  LIG1        0.0163
     17 C           2.5880   -0.2460    0.0000 C.ar    1  LIG1        0.0749
     18 N           3.4630    0.2580    0.0000 N.am    1  LIG1       -0.1622
     19 C           4.3330   -0.2420    0.0000 C.2     1  LIG1        0.3276
     20 N           5.1960    0.2580    0.0000 N.am    1  LIG1       -0.2574
     21 C           5.1960    1.2540    0.0000 C.3     1  LIG1        0.1271
     22 C           6.0630    1.7630    0.0000 C.3     1  LIG1        0.1637
     23 O           6.9380    1.2540    0.0000 O.3     1  LIG1       -0.3501
     24 C           6.9380    0.2580    0.0000 C.3     1  LIG1        0.1637
     25 C           6.0710   -0.2420    0.0000 C.3     1  LIG1        0.1271
     26 O           4.3330   -1.2330    0.0000 O.2     1  LIG1       -0.2504
     27 C           1.7210    0.2460    0.0000 C.ar    1  LIG1        0.0163
     28 C           0.8670   -0.2460    0.0000 C.ar    1  LIG1       -0.0026
     29 C          -0.8710   -0.2460    0.0000 C.ar    1  LIG1       -0.0026
     30 C          -1.7210    0.2460    0.0000 C.ar    1  LIG1        0.0163
     31 O          -4.3290   -1.2580    0.0000 O.2     1  LIG1       -0.2504
@<TRIPOS>BOND
     1     1     2   am
     2     1     8   am
     3     1    31    2
     4     2     3    1
     5     2     7    1
     6     3     4    1
     7     4     5    1
     8     5     6    1
     9     6     7    1
    10     8     9    1
    11     9    10   ar
    12     9    30   ar
    13    10    11   ar
    14    11    12   ar
    15    12    13    1
    16    12    29   ar
    17    13    14    1
    18    14    15   ar
    19    14    28   ar
    20    15    16   ar
    21    16    17   ar
    22    17    18    1
    23    17    27   ar
    24    18    19   am
    25    19    20   am
    26    19    26    2
    27    20    21    1
    28    20    25    1
    29    21    22    1
    30    22    23    1
    31    23    24    1
    32    24    25    1
    33    27    28   ar
    34    29    30   ar
