@<TRIPOS>MOLECULE
30017_ChemDiv_C067-0107
 26 28 0 0 0
SMALL
GASTEIGER
Energy = 0

@<TRIPOS>ATOM
      1 N          -0.4380   -2.5000    0.0000 N.ar    1  LIG1       -0.2904
      2 C          -1.3040   -2.0000    0.0000 C.ar    1  LIG1        0.2609
      3 C          -2.1670   -2.5000    0.0000 C.ar    1  LIG1        0.0562
      4 C          -2.1670   -3.4960    0.0000 C.ar    1  LIG1        0.0057
      5 C          -1.3040   -4.0000    0.0000 C.ar    1  LIG1        0.0130
      6 C          -0.4380   -3.4960    0.0000 C.ar    1  LIG1        0.0407
      7 C           0.4290   -4.0040    0.0000 C.3     1  LIG1        0.0501
      8 C          -3.0210   -4.0000    0.0000 C.ar    1  LIG1        0.0002
      9 C          -3.9000   -3.4960    0.0000 C.ar    1  LIG1        0.0000
     10 C          -3.9000   -2.5000    0.0000 C.ar    1  LIG1        0.0002
     11 C          -3.0210   -2.0000    0.0000 C.ar    1  LIG1        0.0047
     12 O          -1.3040   -1.0000    0.0000 O.2     1  LIG1       -0.2670
     13 C           0.4290   -1.9880    0.0000 C.3     1  LIG1        0.1959
     14 C           0.4290   -0.9880    0.0000 C.2     1  LIG1        0.2687
     15 N           1.2960   -0.4880    0.0000 N.am    1  LIG1       -0.1775
     16 C           1.2960    0.5080    0.0000 C.ar    1  LIG1        0.0747
     17 C           2.1630    1.0040    0.0000 C.ar    1  LIG1        0.0332
     18 C           2.1630    2.0040    0.0000 C.ar    1  LIG1        0.0747
     19 N           3.0290    2.5040    0.0000 N.am    1  LIG1       -0.1792
     20 C           3.0290    3.5080    0.0000 C.2     1  LIG1        0.2461
     21 O           3.8960    4.0040    0.0000 O.2     1  LIG1       -0.2730
     22 C           2.1750    4.0040    0.0000 C.3     1  LIG1        0.0968
     23 C           1.2960    2.5040    0.0000 C.ar    1  LIG1        0.0167
     24 C           0.4290    2.0040    0.0000 C.ar    1  LIG1        0.0027
     25 C           0.4290    1.0040    0.0000 C.ar    1  LIG1        0.0167
     26 O          -0.4380   -0.4880    0.0000 O.2     1  LIG1       -0.2709
@<TRIPOS>BOND
     1     1     2   ar
     2     1     6   ar
     3     1    13    1
     4     2     3   ar
     5     2    12    2
     6     3     4   ar
     7     3    11   ar
     8     4     5   ar
     9     4     8   ar
    10     5     6   ar
    11     6     7    1
    12     8     9   ar
    13     9    10   ar
    14    10    11   ar
    15    13    14    1
    16    14    15   am
    17    14    26    2
    18    15    16    1
    19    16    17   ar
    20    16    25   ar
    21    17    18   ar
    22    18    19    1
    23    18    23   ar
    24    19    20   am
    25    20    21    2
    26    20    22    1
    27    23    24   ar
    28    24    25   ar
