@<TRIPOS>MOLECULE
30029_ChemDiv_3568-0107
 26 28 0 0 0
SMALL
GASTEIGER
Energy = 0

@<TRIPOS>ATOM
      1 C           0.4880   -0.4250    0.0000 C.2     1  LIG1        0.1313
      2 C           0.9750   -1.2920    0.0000 C.2     1  LIG1        0.0838
      3 C           0.4880   -2.1630    0.0000 C.2     1  LIG1        0.3400
      4 O          -0.5130   -2.1630    0.0000 O.3     1  LIG1       -0.4443
      5 C          -1.0210   -1.2920    0.0000 C.3     1  LIG1        0.1978
      6 C          -0.5130   -0.4250    0.0000 C.3     1  LIG1        0.0920
      7 C          -0.8790    0.5130    0.0000 C.3     1  LIG1        0.0115
      8 C          -1.4210   -0.0210    0.0000 C.3     1  LIG1        0.0115
      9 C          -2.0080   -1.2920    0.0000 C.ar    1  LIG1        0.0177
     10 C          -2.5130   -2.1460    0.0000 C.ar    1  LIG1       -0.0008
     11 C          -3.5080   -2.1460    0.0000 C.ar    1  LIG1       -0.0002
     12 C          -4.0080   -1.2920    0.0000 C.ar    1  LIG1       -0.0000
     13 C          -3.5210   -0.4250    0.0000 C.ar    1  LIG1       -0.0002
     14 C          -2.5130   -0.4250    0.0000 C.ar    1  LIG1       -0.0008
     15 O           1.0080   -3.0290    0.0000 O.2     1  LIG1       -0.2451
     16 C           1.9880   -1.2920    0.0000 C.3     1  LIG1        0.0357
     17 C           2.4880   -2.1460    0.0000 C.3     1  LIG1        0.0053
     18 O           0.9960    0.4460    0.0000 O.3     1  LIG1       -0.4255
     19 C           2.0040    0.4460    0.0000 C.2     1  LIG1        0.3454
     20 O           2.4880   -0.4420    0.0000 O.2     1  LIG1       -0.2445
     21 C           2.4880    1.2960    0.0000 C.ar    1  LIG1        0.0760
     22 C           3.4960    1.2960    0.0000 C.ar    1  LIG1        0.0065
     23 C           4.0040    2.1630    0.0000 C.ar    1  LIG1        0.0002
     24 C           3.4960    3.0330    0.0000 C.ar    1  LIG1        0.0000
     25 C           2.5080    3.0330    0.0000 C.ar    1  LIG1        0.0002
     26 C           2.0040    2.1630    0.0000 C.ar    1  LIG1        0.0065
@<TRIPOS>BOND
     1     1     2    2
     2     1     6    1
     3     1    18    1
     4     2     3    1
     5     2    16    1
     6     3     4    1
     7     3    15    2
     8     4     5    1
     9     5     6    1
    10     5     9    1
    11     6     7    1
    12     6     8    1
    13     9    10   ar
    14     9    14   ar
    15    10    11   ar
    16    11    12   ar
    17    12    13   ar
    18    13    14   ar
    19    16    17    1
    20    18    19    1
    21    19    20    2
    22    19    21    1
    23    21    22   ar
    24    21    26   ar
    25    22    23   ar
    26    23    24   ar
    27    24    25   ar
    28    25    26   ar
