@<TRIPOS>MOLECULE
30022_ChemDiv_8010-1532
 33 36 0 0 0
SMALL
GASTEIGER
Energy = 0

@<TRIPOS>ATOM
      1 S          -3.3880   -0.3000    0.0000 S.O2    1  LIG1        0.0768
      2 N          -3.3880   -1.3080    0.0000 N.3     1  LIG1       -0.0793
      3 C          -2.5330   -1.8040    0.0000 C.3     1  LIG1        0.0973
      4 C          -1.6460   -2.3210    0.0000 C.3     1  LIG1        0.0904
      5 N          -0.7630   -1.7670    0.0000 N.3     1  LIG1       -0.2614
      6 C           0.0710   -2.2750    0.0000 C.3     1  LIG1        0.1359
      7 C           0.9380   -1.7460    0.0000 C.3     1  LIG1        0.1569
      8 N           0.9290   -0.7710    0.0000 N.4     1  LIG1        0.3814
      9 C           1.8210   -0.2540    0.0000 C.3     1  LIG1        0.1331
     10 C           1.8670    0.7000    0.0000 C.ar    1  LIG1        0.0328
     11 C           2.7250    1.1750    0.0000 C.ar    1  LIG1        0.0016
     12 C           2.7500    2.1710    0.0000 C.ar    1  LIG1       -0.0001
     13 C           1.8920    2.6920    0.0000 C.ar    1  LIG1       -0.0000
     14 C           1.0210    2.2210    0.0000 C.ar    1  LIG1       -0.0001
     15 C           1.0000    1.2130    0.0000 C.ar    1  LIG1        0.0016
     16 C           2.6920   -0.7710    0.0000 C.ar    1  LIG1        0.0328
     17 C           3.5460   -0.3000    0.0000 C.ar    1  LIG1        0.0016
     18 C           4.4040   -0.8170    0.0000 C.ar    1  LIG1       -0.0001
     19 C           4.3920   -1.8040    0.0000 C.ar    1  LIG1       -0.0000
     20 C           3.5250   -2.2960    0.0000 C.ar    1  LIG1       -0.0001
     21 C           2.6920   -1.7790    0.0000 C.ar    1  LIG1        0.0016
     22 C           0.0460   -0.2420    0.0000 C.3     1  LIG1        0.1569
     23 C          -0.7630   -0.7710    0.0000 C.3     1  LIG1        0.1359
     24 C          -3.0130   -2.6880    0.0000 C.3     1  LIG1        0.0208
     25 C          -2.0130   -0.9250    0.0000 C.3     1  LIG1        0.0208
     26 O          -4.4080   -0.3000    0.0000 O.2     1  LIG1       -0.1516
     27 O          -2.4040   -0.2880    0.0000 O.2     1  LIG1       -0.1516
     28 C          -3.4040    0.6880    0.0000 C.ar    1  LIG1        0.1235
     29 C          -4.2790    1.1630    0.0000 C.ar    1  LIG1        0.0200
     30 C          -4.2960    2.1710    0.0000 C.ar    1  LIG1        0.0014
     31 C          -3.4250    2.6790    0.0000 C.ar    1  LIG1        0.0001
     32 C          -2.5420    2.1960    0.0000 C.ar    1  LIG1        0.0014
     33 C          -2.5330    1.2130    0.0000 C.ar    1  LIG1        0.0200
@<TRIPOS>BOND
     1     1     2    1
     2     1    26    2
     3     1    27    2
     4     1    28    1
     5     2     3    1
     6     3     4    1
     7     3    24    1
     8     3    25    1
     9     4     5    1
    10     5     6    1
    11     5    23    1
    12     6     7    1
    13     7     8    1
    14     8     9    1
    15     8    22    1
    16     9    10    1
    17     9    16    1
    18    10    11   ar
    19    10    15   ar
    20    11    12   ar
    21    12    13   ar
    22    13    14   ar
    23    14    15   ar
    24    16    17   ar
    25    16    21   ar
    26    17    18   ar
    27    18    19   ar
    28    19    20   ar
    29    20    21   ar
    30    22    23    1
    31    28    29   ar
    32    28    33   ar
    33    29    30   ar
    34    30    31   ar
    35    31    32   ar
    36    32    33   ar
