@<TRIPOS>MOLECULE
30028_ChemDiv_3721-3843
 27 29 0 0 0
SMALL
GASTEIGER
Energy = 0

@<TRIPOS>ATOM
      1 S          -1.5880   -0.5880    0.0000 S.O2    1  LIG1        0.0633
      2 N          -0.5000   -0.6420    0.0000 N.3     1  LIG1       -0.1540
      3 C          -0.0130    0.1710    0.0000 C.3     1  LIG1        0.1149
      4 C           0.9830    0.2750    0.0000 C.3     1  LIG1        0.1149
      5 N           1.6790   -0.4460    0.0000 N.3     1  LIG1       -0.1540
      6 S           2.6000   -0.1830    0.0000 S.O2    1  LIG1        0.0633
      7 C           3.4130    0.3040    0.0000 C.ar    1  LIG1        0.1222
      8 C           4.2580   -0.1670    0.0000 C.ar    1  LIG1        0.0204
      9 C           5.0830    0.3210    0.0000 C.ar    1  LIG1        0.0081
     10 C           5.0670    1.2790    0.0000 C.ar    1  LIG1        0.0346
     11 C           4.2420    1.7500    0.0000 C.ar    1  LIG1        0.0081
     12 C           3.4130    1.2630    0.0000 C.ar    1  LIG1        0.0204
     13 BR          5.9080    1.7670    0.0000 Br      1  LIG1       -0.0490
     14 O           3.2830   -0.8420    0.0000 O.2     1  LIG1       -0.1528
     15 O           2.8130    0.7630    0.0000 O.2     1  LIG1       -0.1528
     16 C           1.5080   -1.3880    0.0000 C.3     1  LIG1        0.0973
     17 C           0.7750   -1.7630    0.0000 C.3     1  LIG1        0.0383
     18 C          -0.1460   -1.4330    0.0000 C.3     1  LIG1        0.0973
     19 C          -2.6670   -0.5880    0.0000 C.ar    1  LIG1        0.1222
     20 C          -3.2080    0.3420    0.0000 C.ar    1  LIG1        0.0204
     21 C          -4.2830    0.3420    0.0000 C.ar    1  LIG1        0.0081
     22 C          -4.8380   -0.5880    0.0000 C.ar    1  LIG1        0.0346
     23 C          -4.2830   -1.5210    0.0000 C.ar    1  LIG1        0.0081
     24 C          -3.2080   -1.5210    0.0000 C.ar    1  LIG1        0.0204
     25 BR         -5.9130   -0.5880    0.0000 Br      1  LIG1       -0.0490
     26 O          -2.1710   -1.5080    0.0000 O.2     1  LIG1       -0.1528
     27 O          -2.0750    0.3710    0.0000 O.2     1  LIG1       -0.1528
@<TRIPOS>BOND
     1     1     2    1
     2     1    19    1
     3     1    26    2
     4     1    27    2
     5     2     3    1
     6     2    18    1
     7     3     4    1
     8     4     5    1
     9     5     6    1
    10     5    16    1
    11     6     7    1
    12     6    14    2
    13     6    15    2
    14     7     8   ar
    15     7    12   ar
    16     8     9   ar
    17     9    10   ar
    18    10    11   ar
    19    10    13    1
    20    11    12   ar
    21    16    17    1
    22    17    18    1
    23    19    20   ar
    24    19    24   ar
    25    20    21   ar
    26    21    22   ar
    27    22    23   ar
    28    22    25    1
    29    23    24   ar
