@<TRIPOS>MOLECULE
30026_ChemDiv_3721-3841
 29 31 0 0 0
SMALL
GASTEIGER
Energy = 0

@<TRIPOS>ATOM
      1 S           2.4540   -0.1670    0.0000 S.O2    1  LIG1        0.0633
      2 N           1.5380   -0.4460    0.0000 N.3     1  LIG1       -0.1540
      3 C           0.8380    0.2750    0.0000 C.3     1  LIG1        0.1149
      4 C          -0.1580    0.1710    0.0000 C.3     1  LIG1        0.1149
      5 N          -0.6460   -0.6540    0.0000 N.3     1  LIG1       -0.1540
      6 S          -1.7210   -0.5880    0.0000 S.O2    1  LIG1        0.0633
      7 C          -2.8080   -0.5880    0.0000 C.ar    1  LIG1        0.1222
      8 C          -3.3460    0.3420    0.0000 C.ar    1  LIG1        0.0196
      9 C          -4.4210    0.3420    0.0000 C.ar    1  LIG1       -0.0029
     10 C          -4.9710   -0.5880    0.0000 C.ar    1  LIG1       -0.0221
     11 C          -4.4210   -1.5170    0.0000 C.ar    1  LIG1       -0.0029
     12 C          -3.3460   -1.5170    0.0000 C.ar    1  LIG1        0.0196
     13 C          -6.0460   -0.5880    0.0000 C.3     1  LIG1        0.0264
     14 C          -6.5960    0.3420    0.0000 C.3     1  LIG1        0.0050
     15 O          -2.2170    0.3580    0.0000 O.2     1  LIG1       -0.1528
     16 O          -2.3130   -1.5040    0.0000 O.2     1  LIG1       -0.1528
     17 C          -0.2880   -1.4290    0.0000 C.3     1  LIG1        0.0973
     18 C           0.6290   -1.7580    0.0000 C.3     1  LIG1        0.0383
     19 C           1.3630   -1.3880    0.0000 C.3     1  LIG1        0.0973
     20 C           3.2790    0.3040    0.0000 C.ar    1  LIG1        0.1222
     21 C           3.2630    1.2580    0.0000 C.ar    1  LIG1        0.0196
     22 C           4.0960    1.7460    0.0000 C.ar    1  LIG1       -0.0029
     23 C           4.9290    1.2750    0.0000 C.ar    1  LIG1       -0.0221
     24 C           4.9460    0.3210    0.0000 C.ar    1  LIG1       -0.0029
     25 C           4.1040   -0.1580    0.0000 C.ar    1  LIG1        0.0196
     26 C           5.7540    1.7630    0.0000 C.3     1  LIG1        0.0264
     27 C           6.5960    1.2880    0.0000 C.3     1  LIG1        0.0050
     28 O           3.1500   -0.8420    0.0000 O.2     1  LIG1       -0.1528
     29 O           2.6630    0.7500    0.0000 O.2     1  LIG1       -0.1528
@<TRIPOS>BOND
     1     1     2    1
     2     1    20    1
     3     1    28    2
     4     1    29    2
     5     2     3    1
     6     2    19    1
     7     3     4    1
     8     4     5    1
     9     5     6    1
    10     5    17    1
    11     6     7    1
    12     6    15    2
    13     6    16    2
    14     7     8   ar
    15     7    12   ar
    16     8     9   ar
    17     9    10   ar
    18    10    11   ar
    19    10    13    1
    20    11    12   ar
    21    13    14    1
    22    17    18    1
    23    18    19    1
    24    20    21   ar
    25    20    25   ar
    26    21    22   ar
    27    22    23   ar
    28    23    24   ar
    29    23    26    1
    30    24    25   ar
    31    26    27    1
