@<TRIPOS>MOLECULE
30020_ChemDiv_4240-0151
 29 32 0 0 0
SMALL
GASTEIGER
Energy = 0

@<TRIPOS>ATOM
      1 S          -0.1000   -2.2170    0.0000 S.O2    1  LIG1        0.0637
      2 N           0.8040   -1.7130    0.0000 N.3     1  LIG1       -0.1433
      3 C           0.8040   -0.7170    0.0000 C.3     1  LIG1        0.1585
      4 C           1.6540   -0.2170    0.0000 C.3     1  LIG1        0.1586
      5 N           2.5500   -0.7170    0.0000 N.4     1  LIG1        0.3830
      6 C           3.4500   -0.2170    0.0000 C.3     1  LIG1        0.1663
      7 C           3.4750    0.7710    0.0000 C.ar    1  LIG1        0.0351
      8 C           2.6250    1.2670    0.0000 C.ar    1  LIG1        0.0112
      9 C           2.6460    2.2670    0.0000 C.ar    1  LIG1        0.0683
     10 C           3.5170    2.7380    0.0000 C.ar    1  LIG1        0.1448
     11 C           4.3670    2.2380    0.0000 C.ar    1  LIG1        0.0373
     12 C           4.3420    1.2420    0.0000 C.ar    1  LIG1        0.0046
     13 O           3.5380    3.7670    0.0000 O.3     1  LIG1       -0.4709
     14 C           4.4170    4.2330    0.0000 C.3     1  LIG1        0.2525
     15 BR          1.7750    2.8130    0.0000 Br      1  LIG1       -0.0459
     16 C           2.5250   -1.7130    0.0000 C.3     1  LIG1        0.1586
     17 C           1.6540   -2.2170    0.0000 C.3     1  LIG1        0.1585
     18 C          -0.9670   -2.7420    0.0000 C.ar    1  LIG1        0.1222
     19 C          -1.8420   -2.2500    0.0000 C.ar    1  LIG1        0.0199
     20 C          -2.7040   -2.7420    0.0000 C.ar    1  LIG1        0.0013
     21 C          -2.7040   -3.7330    0.0000 C.ar    1  LIG1        0.0001
     22 C          -1.8420   -4.2330    0.0000 C.ar    1  LIG1        0.0014
     23 C          -0.9670   -3.7330    0.0000 C.ar    1  LIG1        0.0199
     24 C          -3.5540   -4.2330    0.0000 C.ar    1  LIG1        0.0000
     25 C          -4.4210   -3.7330    0.0000 C.ar    1  LIG1        0.0000
     26 C          -4.4210   -2.7420    0.0000 C.ar    1  LIG1        0.0000
     27 C          -3.5540   -2.2500    0.0000 C.ar    1  LIG1        0.0000
     28 O          -0.5880   -1.3500    0.0000 O.2     1  LIG1       -0.1528
     29 O           0.4040   -3.0830    0.0000 O.2     1  LIG1       -0.1528
@<TRIPOS>BOND
     1     1     2    1
     2     1    18    1
     3     1    28    2
     4     1    29    2
     5     2     3    1
     6     2    17    1
     7     3     4    1
     8     4     5    1
     9     5     6    1
    10     5    16    1
    11     6     7    1
    12     7     8   ar
    13     7    12   ar
    14     8     9   ar
    15     9    10   ar
    16     9    15    1
    17    10    11   ar
    18    10    13    1
    19    11    12   ar
    20    13    14    1
    21    16    17    1
    22    18    19   ar
    23    18    23   ar
    24    19    20   ar
    25    20    21   ar
    26    20    27   ar
    27    21    22   ar
    28    21    24   ar
    29    22    23   ar
    30    24    25   ar
    31    25    26   ar
    32    26    27   ar
