@<TRIPOS>MOLECULE
30036_ChemDiv_3698-0155
 26 29 0 0 0
SMALL
GASTEIGER
Energy = 0

@<TRIPOS>ATOM
      1 C           2.4000   -0.4330    0.0000 C.ar    1  LIG1        0.1656
      2 C           2.7000    0.5710    0.0000 C.ar    1  LIG1        0.1383
      3 C           3.6920    0.5710    0.0000 C.ar    1  LIG1        0.0387
      4 C           4.0500   -0.3920    0.0000 C.ar    1  LIG1        0.0627
      5 N           3.2250   -0.9330    0.0000 N.ar    1  LIG1       -0.3094
      6 C           3.2250   -1.9380    0.0000 C.3     1  LIG1        0.1319
      7 C           5.0710   -0.5540    0.0000 C.ar    1  LIG1        0.0178
      8 C           5.7080    0.1710    0.0000 C.ar    1  LIG1        0.0082
      9 C           5.3580    1.1790    0.0000 C.ar    1  LIG1        0.0347
     10 C           4.3250    1.3580    0.0000 C.ar    1  LIG1        0.0098
     11 BR          5.9960    1.9420    0.0000 Br      1  LIG1       -0.0490
     12 N           1.9880    1.2540    0.0000 N.ar    1  LIG1       -0.1429
     13 N           1.0000    1.0580    0.0000 N.ar    1  LIG1       -0.1217
     14 C           0.7210    0.0960    0.0000 C.ar    1  LIG1        0.2123
     15 N           1.4000   -0.6710    0.0000 N.ar    1  LIG1       -0.2008
     16 S          -0.2420   -0.0920    0.0000 S.3     1  LIG1       -0.0641
     17 C          -0.8830    0.6330    0.0000 C.3     1  LIG1        0.1522
     18 C          -1.8460    0.4380    0.0000 C.2     1  LIG1        0.2622
     19 N          -2.5080    1.1580    0.0000 N.am    1  LIG1       -0.1066
     20 C          -3.4710    0.9540    0.0000 C.2     1  LIG1        0.3992
     21 N          -4.2210    1.6170    0.0000 N.am    1  LIG1        0.1611
     22 C          -5.0790    1.0830    0.0000 C.2     1  LIG1        0.4697
     23 O          -6.0000    1.4330    0.0000 O.2     1  LIG1       -0.2108
     24 C          -4.8580    0.1540    0.0000 C.3     1  LIG1        0.2188
     25 S          -3.8500    0.0500    0.0000 S.3     1  LIG1       -0.0060
     26 O          -2.1040   -0.5080    0.0000 O.2     1  LIG1       -0.2718
@<TRIPOS>BOND
     1     1     2   ar
     2     1     5   ar
     3     1    15   ar
     4     2     3   ar
     5     2    12   ar
     6     3     4   ar
     7     3    10   ar
     8     4     5   ar
     9     4     7   ar
    10     5     6    1
    11     7     8   ar
    12     8     9   ar
    13     9    10   ar
    14     9    11    1
    15    12    13   ar
    16    13    14   ar
    17    14    15   ar
    18    14    16    1
    19    16    17    1
    20    17    18    1
    21    18    19   am
    22    18    26    2
    23    19    20    1
    24    20    21    2
    25    20    25    1
    26    21    22   am
    27    22    23    2
    28    22    24    1
    29    24    25    1
