@<TRIPOS>MOLECULE
30034_ChemDiv_8009-9743
 28 32 0 0 0
SMALL
GASTEIGER
Energy = 0

@<TRIPOS>ATOM
      1 N          -2.4790   -0.2130    0.0000 N.am    1  LIG1       -0.2120
      2 C          -3.3170    0.2710    0.0000 C.2     1  LIG1        0.2558
      3 C          -4.1630   -0.2130    0.0000 C.ar    1  LIG1        0.0584
      4 C          -4.1630   -1.1790    0.0000 C.ar    1  LIG1        0.0584
      5 C          -2.4790   -1.1790    0.0000 C.2     1  LIG1        0.2558
      6 O          -1.6170   -1.6540    0.0000 O.2     1  LIG1       -0.2695
      7 C          -5.0000   -1.6460    0.0000 C.ar    1  LIG1        0.0047
      8 C          -5.8500   -1.1790    0.0000 C.ar    1  LIG1        0.0001
      9 C          -5.8500   -0.2130    0.0000 C.ar    1  LIG1        0.0001
     10 C          -5.0000    0.2710    0.0000 C.ar    1  LIG1        0.0047
     11 O          -3.3170    1.2630    0.0000 O.2     1  LIG1       -0.2695
     12 C          -1.5750    0.2710    0.0000 C.3     1  LIG1        0.1670
     13 S          -0.7580   -0.2210    0.0000 S.3     1  LIG1       -0.0514
     14 C           0.0920    0.2580    0.0000 C.ar    1  LIG1        0.2134
     15 N           0.9130   -0.2130    0.0000 N.ar    1  LIG1       -0.2008
     16 C           1.7250    0.2580    0.0000 C.ar    1  LIG1        0.1656
     17 C           1.7250    1.1830    0.0000 C.ar    1  LIG1        0.1383
     18 C           3.3630    1.1830    0.0000 C.ar    1  LIG1        0.0387
     19 C           3.3630    0.2580    0.0000 C.ar    1  LIG1        0.0627
     20 N           2.5460   -0.2130    0.0000 N.ar    1  LIG1       -0.3094
     21 C           2.5460   -1.1790    0.0000 C.3     1  LIG1        0.1319
     22 C           4.1750   -0.2130    0.0000 C.ar    1  LIG1        0.0178
     23 C           4.9830    0.2580    0.0000 C.ar    1  LIG1        0.0082
     24 C           4.9830    1.1830    0.0000 C.ar    1  LIG1        0.0347
     25 C           4.1750    1.6460    0.0000 C.ar    1  LIG1        0.0098
     26 BR          5.8460    1.6580    0.0000 Br      1  LIG1       -0.0490
     27 N           0.9130    1.6460    0.0000 N.ar    1  LIG1       -0.1429
     28 N           0.0920    1.1830    0.0000 N.ar    1  LIG1       -0.1217
@<TRIPOS>BOND
     1     1     2   am
     2     1     5   am
     3     1    12    1
     4     2     3    1
     5     2    11    2
     6     3     4   ar
     7     3    10   ar
     8     4     5    1
     9     4     7   ar
    10     5     6    2
    11     7     8   ar
    12     8     9   ar
    13     9    10   ar
    14    12    13    1
    15    13    14    1
    16    14    15   ar
    17    14    28   ar
    18    15    16   ar
    19    16    17   ar
    20    16    20   ar
    21    17    18   ar
    22    17    27   ar
    23    18    19   ar
    24    18    25   ar
    25    19    20   ar
    26    19    22   ar
    27    20    21    1
    28    22    23   ar
    29    23    24   ar
    30    24    25   ar
    31    24    26    1
    32    27    28   ar
