@<TRIPOS>MOLECULE
30038_ChemDiv_3701-0071
 26 30 0 0 0
SMALL
GASTEIGER
Energy = 0

@<TRIPOS>ATOM
      1 C          -0.8830   -1.6960    0.0000 C.ar    1  LIG1        0.1468
      2 C          -0.0210   -2.2130    0.0000 C.ar    1  LIG1        0.0406
      3 C          -0.8830   -3.6960    0.0000 C.ar    1  LIG1        0.0376
      4 C          -1.7380   -3.2040    0.0000 C.ar    1  LIG1        0.1453
      5 O          -1.7380   -2.1960    0.0000 O.2     1  LIG1       -0.4535
      6 C          -2.5790   -3.6880    0.0000 C.ar    1  LIG1        0.0375
      7 C          -2.5880   -4.6630    0.0000 C.ar    1  LIG1        0.0031
      8 C          -1.7380   -5.1630    0.0000 C.ar    1  LIG1        0.0002
      9 C          -0.8920   -4.6790    0.0000 C.ar    1  LIG1        0.0031
     10 C           0.8670   -1.6960    0.0000 C.ar    1  LIG1        0.0414
     11 C           0.8670   -0.7210    0.0000 C.ar    1  LIG1        0.1536
     12 C          -0.0210   -0.1960    0.0000 C.ar    1  LIG1        0.1026
     13 C          -0.8830   -0.7210    0.0000 C.ar    1  LIG1        0.0566
     14 N          -0.0380    0.7920    0.0000 N.pl3   1  LIG1       -0.2297
     15 C           0.8420    1.2750    0.0000 C.3     1  LIG1        0.1387
     16 C           0.8670    2.3000    0.0000 C.ar    1  LIG1        0.0026
     17 C           0.0250    2.7710    0.0000 C.ar    1  LIG1        0.0376
     18 C           0.0250    3.7000    0.0000 C.ar    1  LIG1        0.1762
     19 C           0.8420    4.1750    0.0000 C.ar    1  LIG1        0.1764
     20 O           0.6290    5.0830    0.0000 O.3     1  LIG1       -0.4346
     21 C          -0.2830    5.1630    0.0000 C.3     1  LIG1        0.4294
     22 O          -0.6880    4.3580    0.0000 O.3     1  LIG1       -0.4346
     23 C           1.6540    3.7000    0.0000 C.ar    1  LIG1        0.0399
     24 C           1.6580    2.7540    0.0000 C.ar    1  LIG1        0.0008
     25 O           1.7130   -0.1960    0.0000 O.3     1  LIG1       -0.4701
     26 C           2.5830   -0.7210    0.0000 C.3     1  LIG1        0.2525
@<TRIPOS>BOND
     1     1     2   ar
     2     1     5   ar
     3     1    13   ar
     4     2     3   ar
     5     2    10   ar
     6     3     4   ar
     7     3     9   ar
     8     4     5   ar
     9     4     6   ar
    10     6     7   ar
    11     7     8   ar
    12     8     9   ar
    13    10    11   ar
    14    11    12   ar
    15    11    25    1
    16    12    13   ar
    17    12    14    1
    18    14    15    1
    19    15    16    1
    20    16    17   ar
    21    16    24   ar
    22    17    18   ar
    23    18    19   ar
    24    18    22    1
    25    19    20    1
    26    19    23   ar
    27    20    21    1
    28    21    22    1
    29    23    24   ar
    30    25    26    1
