@<TRIPOS>MOLECULE
30032_ChemDiv_3771-4295
 39 43 0 0 0
SMALL
GASTEIGER
Energy = 0

@<TRIPOS>ATOM
      1 S          -2.1500   -0.8130    0.0000 S.O2    1  LIG1        0.0633
      2 C          -3.1330   -0.8130    0.0000 C.ar    1  LIG1        0.1224
      3 C          -3.6170    0.0380    0.0000 C.ar    1  LIG1        0.0215
      4 C          -4.6250    0.0380    0.0000 C.ar    1  LIG1        0.0353
      5 C          -5.1500   -0.8130    0.0000 C.ar    1  LIG1        0.1385
      6 C          -4.6250   -1.6960    0.0000 C.ar    1  LIG1        0.0383
      7 C          -3.6170   -1.6960    0.0000 C.ar    1  LIG1        0.0230
      8 O          -6.1290   -0.8130    0.0000 O.3     1  LIG1       -0.4755
      9 C          -6.6040    0.0210    0.0000 C.3     1  LIG1        0.2055
     10 C          -6.0710    0.9460    0.0000 C.3     1  LIG1        0.0512
     11 C          -5.1330    0.8960    0.0000 C.ar    1  LIG1        0.0031
     12 C          -4.6500    1.7750    0.0000 C.ar    1  LIG1        0.0001
     13 C          -3.6330    1.7750    0.0000 C.ar    1  LIG1        0.0000
     14 C          -3.1330    0.9250    0.0000 C.ar    1  LIG1        0.0014
     15 N          -1.1210   -0.8130    0.0000 N.3     1  LIG1       -0.1540
     16 C          -0.4540   -1.6000    0.0000 C.3     1  LIG1        0.1149
     17 C           0.5420   -1.6000    0.0000 C.3     1  LIG1        0.1149
     18 N           1.1460   -0.7670    0.0000 N.3     1  LIG1       -0.1540
     19 S           2.1210   -0.7670    0.0000 S.O2    1  LIG1        0.0633
     20 C           3.1290   -0.7670    0.0000 C.ar    1  LIG1        0.1224
     21 C           3.6040    0.0830    0.0000 C.ar    1  LIG1        0.0215
     22 C           4.6330    0.0830    0.0000 C.ar    1  LIG1        0.0353
     23 C           5.1170   -0.7880    0.0000 C.ar    1  LIG1        0.1385
     24 C           4.6000   -1.6500    0.0000 C.ar    1  LIG1        0.0383
     25 C           3.6040   -1.6500    0.0000 C.ar    1  LIG1        0.0230
     26 O           6.1130   -0.7880    0.0000 O.3     1  LIG1       -0.4755
     27 C           6.6040    0.0790    0.0000 C.3     1  LIG1        0.2055
     28 C           6.0960    0.9460    0.0000 C.3     1  LIG1        0.0512
     29 C           5.1040    0.9710    0.0000 C.ar    1  LIG1        0.0031
     30 C           4.6000    1.8210    0.0000 C.ar    1  LIG1        0.0001
     31 C           3.5880    1.8210    0.0000 C.ar    1  LIG1        0.0000
     32 C           3.1040    0.9460    0.0000 C.ar    1  LIG1        0.0014
     33 O           2.1210   -1.7710    0.0000 O.2     1  LIG1       -0.1528
     34 O           2.1210    0.2290    0.0000 O.2     1  LIG1       -0.1528
     35 C           0.8630    0.1830    0.0000 C.3     1  LIG1        0.0973
     36 C           0.0000    0.6080    0.0000 C.3     1  LIG1        0.0383
     37 C          -0.8920    0.1580    0.0000 C.3     1  LIG1        0.0973
     38 O          -2.1500   -1.8170    0.0000 O.2     1  LIG1       -0.1528
     39 O          -2.1500    0.1580    0.0000 O.2     1  LIG1       -0.1528
@<TRIPOS>BOND
     1     1     2    1
     2     1    15    1
     3     1    38    2
     4     1    39    2
     5     2     3   ar
     6     2     7   ar
     7     3     4   ar
     8     3    14   ar
     9     4     5   ar
    10     4    11   ar
    11     5     6   ar
    12     5     8    1
    13     6     7   ar
    14     8     9    1
    15     9    10    1
    16    11    12   ar
    17    12    13   ar
    18    13    14   ar
    19    15    16    1
    20    15    37    1
    21    16    17    1
    22    17    18    1
    23    18    19    1
    24    18    35    1
    25    19    20    1
    26    19    33    2
    27    19    34    2
    28    20    21   ar
    29    20    25   ar
    30    21    22   ar
    31    21    32   ar
    32    22    23   ar
    33    22    29   ar
    34    23    24   ar
    35    23    26    1
    36    24    25   ar
    37    26    27    1
    38    27    28    1
    39    29    30   ar
    40    30    31   ar
    41    31    32   ar
    42    35    36    1
    43    36    37    1
