@<TRIPOS>MOLECULE
30030_ChemDiv_3771-3815
 29 31 0 0 0
SMALL
GASTEIGER
Energy = 0

@<TRIPOS>ATOM
      1 S          -2.1380    0.1580    0.0000 S.O2    1  LIG1        0.0633
      2 N          -1.1000    0.1580    0.0000 N.3     1  LIG1       -0.1540
      3 C          -0.4420   -0.6250    0.0000 C.3     1  LIG1        0.1149
      4 C           0.5670   -0.6250    0.0000 C.3     1  LIG1        0.1149
      5 N           1.1750    0.2040    0.0000 N.3     1  LIG1       -0.1540
      6 S           2.1540    0.2040    0.0000 S.O2    1  LIG1        0.0633
      7 C           3.1580    0.2040    0.0000 C.ar    1  LIG1        0.1219
      8 C           3.6290   -0.6710    0.0000 C.ar    1  LIG1        0.0165
      9 C           4.6250   -0.6710    0.0000 C.ar    1  LIG1       -0.0099
     10 C           5.1540    0.1830    0.0000 C.ar    1  LIG1        0.0538
     11 C           4.6670    1.0580    0.0000 C.ar    1  LIG1        0.0124
     12 C           3.6290    1.0580    0.0000 C.ar    1  LIG1        0.0208
     13 CL          6.1290    0.1830    0.0000 Cl      1  LIG1       -0.0826
     14 C           5.1080   -1.5250    0.0000 C.3     1  LIG1        0.0320
     15 O           2.1540    1.2080    0.0000 O.2     1  LIG1       -0.1528
     16 O           2.1540   -0.7920    0.0000 O.2     1  LIG1       -0.1528
     17 C           0.8960    1.1630    0.0000 C.3     1  LIG1        0.0973
     18 C           0.0250    1.5880    0.0000 C.3     1  LIG1        0.0383
     19 C          -0.8750    1.1380    0.0000 C.3     1  LIG1        0.0973
     20 C          -3.1130    0.1580    0.0000 C.ar    1  LIG1        0.1219
     21 C          -3.6000   -0.7170    0.0000 C.ar    1  LIG1        0.0165
     22 C          -4.6210   -0.7170    0.0000 C.ar    1  LIG1       -0.0099
     23 C          -5.1420    0.1580    0.0000 C.ar    1  LIG1        0.0538
     24 C          -4.6210    1.0130    0.0000 C.ar    1  LIG1        0.0124
     25 C          -3.6000    1.0130    0.0000 C.ar    1  LIG1        0.0208
     26 CL         -6.1290    0.1710    0.0000 Cl      1  LIG1       -0.0826
     27 C          -5.0880   -1.5830    0.0000 C.3     1  LIG1        0.0320
     28 O          -2.1380    1.1380    0.0000 O.2     1  LIG1       -0.1528
     29 O          -2.1380   -0.8380    0.0000 O.2     1  LIG1       -0.1528
@<TRIPOS>BOND
     1     1     2    1
     2     1    20    1
     3     1    28    2
     4     1    29    2
     5     2     3    1
     6     2    19    1
     7     3     4    1
     8     4     5    1
     9     5     6    1
    10     5    17    1
    11     6     7    1
    12     6    15    2
    13     6    16    2
    14     7     8   ar
    15     7    12   ar
    16     8     9   ar
    17     9    10   ar
    18     9    14    1
    19    10    11   ar
    20    10    13    1
    21    11    12   ar
    22    17    18    1
    23    18    19    1
    24    20    21   ar
    25    20    25   ar
    26    21    22   ar
    27    22    23   ar
    28    22    27    1
    29    23    24   ar
    30    23    26    1
    31    24    25   ar
