@<TRIPOS>MOLECULE
30031_ChemDiv_8011-1743
 23 24 0 0 0
SMALL
GASTEIGER
Energy = 0

@<TRIPOS>ATOM
      1 C           1.5130   -0.4250    0.0000 C.2     1  LIG1        0.1310
      2 C           1.9960   -1.3000    0.0000 C.2     1  LIG1        0.0841
      3 C           1.4920   -2.1540    0.0000 C.2     1  LIG1        0.3400
      4 O           0.4920   -2.1420    0.0000 O.3     1  LIG1       -0.4443
      5 C          -0.0170   -1.2830    0.0000 C.3     1  LIG1        0.1978
      6 C           0.5080   -0.4250    0.0000 C.3     1  LIG1        0.0920
      7 C           1.2080    0.2920    0.0000 C.3     1  LIG1        0.0115
      8 C          -0.0630    0.3960    0.0000 C.3     1  LIG1        0.0115
      9 C          -1.0080   -1.3000    0.0000 C.ar    1  LIG1        0.0177
     10 C          -1.5000   -2.1540    0.0000 C.ar    1  LIG1       -0.0008
     11 C          -2.4960   -2.1750    0.0000 C.ar    1  LIG1       -0.0002
     12 C          -3.0000   -1.3000    0.0000 C.ar    1  LIG1       -0.0000
     13 C          -2.4960   -0.4420    0.0000 C.ar    1  LIG1       -0.0002
     14 C          -1.5000   -0.4420    0.0000 C.ar    1  LIG1       -0.0008
     15 O           1.9960   -3.0290    0.0000 O.2     1  LIG1       -0.2451
     16 C           2.9960   -1.3000    0.0000 C.3     1  LIG1        0.0407
     17 O           2.0170    0.4500    0.0000 O.3     1  LIG1       -0.4286
     18 C           1.5250    1.3210    0.0000 C.2     1  LIG1        0.3201
     19 C           2.0330    2.1580    0.0000 C.3     1  LIG1        0.0900
     20 C           2.5580    3.0330    0.0000 C.3     1  LIG1        0.0111
     21 C           1.1750    2.6830    0.0000 C.3     1  LIG1        0.0111
     22 C           2.9080    1.6580    0.0000 C.3     1  LIG1        0.0111
     23 O           0.5290    1.3380    0.0000 O.2     1  LIG1       -0.2497
@<TRIPOS>BOND
     1     1     2    2
     2     1     6    1
     3     1    17    1
     4     2     3    1
     5     2    16    1
     6     3     4    1
     7     3    15    2
     8     4     5    1
     9     5     6    1
    10     5     9    1
    11     6     7    1
    12     6     8    1
    13     9    10   ar
    14     9    14   ar
    15    10    11   ar
    16    11    12   ar
    17    12    13   ar
    18    13    14   ar
    19    17    18    1
    20    18    19    1
    21    18    23    2
    22    19    20    1
    23    19    21    1
    24    19    22    1
