@<TRIPOS>MOLECULE
30049_ChemDiv_8011-1745
 25 27 0 0 0
SMALL
GASTEIGER
Energy = 0

@<TRIPOS>ATOM
      1 C           0.5290   -0.4880    0.0000 C.2     1  LIG1        0.1313
      2 C           1.0380   -1.3500    0.0000 C.2     1  LIG1        0.0841
      3 C           0.5540   -2.2080    0.0000 C.2     1  LIG1        0.3400
      4 O          -0.4630   -2.2080    0.0000 O.3     1  LIG1       -0.4443
      5 C          -0.9630   -1.3500    0.0000 C.3     1  LIG1        0.1978
      6 C          -0.4630   -0.4880    0.0000 C.3     1  LIG1        0.0920
      7 C           0.2420    0.2330    0.0000 C.3     1  LIG1        0.0115
      8 C          -1.1460    0.2710    0.0000 C.3     1  LIG1        0.0115
      9 C          -1.9670   -1.3500    0.0000 C.ar    1  LIG1        0.0177
     10 C          -2.4710   -2.2080    0.0000 C.ar    1  LIG1       -0.0008
     11 C          -3.4830   -2.2080    0.0000 C.ar    1  LIG1       -0.0002
     12 C          -3.9670   -1.3500    0.0000 C.ar    1  LIG1       -0.0000
     13 C          -3.4830   -0.4880    0.0000 C.ar    1  LIG1       -0.0002
     14 C          -2.4710   -0.4880    0.0000 C.ar    1  LIG1       -0.0008
     15 O           1.0580   -3.0790    0.0000 O.2     1  LIG1       -0.2451
     16 C           2.0500   -1.3500    0.0000 C.3     1  LIG1        0.0407
     17 O           1.0380    0.4170    0.0000 O.3     1  LIG1       -0.4255
     18 C           2.0290    0.4420    0.0000 C.2     1  LIG1        0.3454
     19 O           2.5580   -0.4080    0.0000 O.2     1  LIG1       -0.2445
     20 C           2.5080    1.3290    0.0000 C.ar    1  LIG1        0.0760
     21 C           1.9920    2.1750    0.0000 C.ar    1  LIG1        0.0065
     22 C           2.4460    3.0460    0.0000 C.ar    1  LIG1        0.0002
     23 C           3.4380    3.0830    0.0000 C.ar    1  LIG1        0.0000
     24 C           3.9630    2.2380    0.0000 C.ar    1  LIG1        0.0002
     25 C           3.4670    1.3630    0.0000 C.ar    1  LIG1        0.0065
@<TRIPOS>BOND
     1     1     2    2
     2     1     6    1
     3     1    17    1
     4     2     3    1
     5     2    16    1
     6     3     4    1
     7     3    15    2
     8     4     5    1
     9     5     6    1
    10     5     9    1
    11     6     7    1
    12     6     8    1
    13     9    10   ar
    14     9    14   ar
    15    10    11   ar
    16    11    12   ar
    17    12    13   ar
    18    13    14   ar
    19    17    18    1
    20    18    19    2
    21    18    20    1
    22    20    21   ar
    23    20    25   ar
    24    21    22   ar
    25    22    23   ar
    26    23    24   ar
    27    24    25   ar
