@<TRIPOS>MOLECULE
30047_ChemDiv_3647-2172
 16 18 0 0 0
SMALL
GASTEIGER
Energy = 0

@<TRIPOS>ATOM
      1 C           0.8580    0.0040    0.0000 C.ar    1  LIG1        0.1172
      2 C          -0.0080    0.4920    0.0000 C.ar    1  LIG1        0.1033
      3 C          -0.8790    0.0040    0.0000 C.ar    1  LIG1        0.0872
      4 C          -0.8790   -1.0040    0.0000 C.ar    1  LIG1        0.2975
      5 N          -0.0080   -1.4960    0.0000 N.ar    1  LIG1        0.0713
      6 C           0.8580   -1.0040    0.0000 C.ar    1  LIG1        0.2779
      7 C           1.7080   -1.4960    0.0000 C.3     1  LIG1        0.1045
      8 C           2.5960   -1.0040    0.0000 C.3     1  LIG1        0.0194
      9 C           2.5960    0.0040    0.0000 C.3     1  LIG1        0.0700
     10 C           1.7080    0.4920    0.0000 C.2     1  LIG1        0.1800
     11 O           1.7080    1.5000    0.0000 O.2     1  LIG1       -0.2911
     12 C          -1.7290   -1.4960    0.0000 C.ar    1  LIG1        0.0762
     13 C          -2.6000   -1.0040    0.0000 C.ar    1  LIG1        0.0063
     14 C          -2.6000    0.0040    0.0000 C.ar    1  LIG1        0.0004
     15 C          -1.7290    0.4920    0.0000 C.ar    1  LIG1        0.0075
     16 N          -0.0080    1.5000    0.0000 N.pl3   1  LIG1       -0.1276
@<TRIPOS>BOND
     1     1     2   ar
     2     1     6   ar
     3     1    10    1
     4     2     3   ar
     5     2    16    1
     6     3     4   ar
     7     3    15   ar
     8     4     5   ar
     9     4    12   ar
    10     5     6   ar
    11     6     7    1
    12     7     8    1
    13     8     9    1
    14     9    10    1
    15    10    11    2
    16    12    13   ar
    17    13    14   ar
    18    14    15   ar
