@<TRIPOS>MOLECULE
30042_ChemDiv_8001-4866
 21 23 0 0 0
SMALL
GASTEIGER
Energy = 0

@<TRIPOS>ATOM
      1 C           0.8750   -2.1920    0.0000 C.ar    1  LIG1        0.2168
      2 C           0.2920   -1.3540    0.0000 C.ar    1  LIG1        0.1156
      3 N           0.6040   -0.3960    0.0000 N.am    1  LIG1       -0.1721
      4 C          -0.0830    0.3380    0.0000 C.2     1  LIG1        0.2691
      5 O          -1.0460    0.1170    0.0000 O.2     1  LIG1       -0.2680
      6 C           0.2250    1.2630    0.0000 C.ar    1  LIG1        0.0554
      7 C          -0.4420    2.0000    0.0000 C.ar    1  LIG1        0.0046
      8 C          -0.1500    2.9540    0.0000 C.ar    1  LIG1        0.0001
      9 C           0.8420    3.1790    0.0000 C.ar    1  LIG1        0.0000
     10 C           1.5130    2.4420    0.0000 C.ar    1  LIG1        0.0001
     11 C           1.2000    1.4830    0.0000 C.ar    1  LIG1        0.0046
     12 C          -0.6580   -1.6790    0.0000 C.ar    1  LIG1        0.0530
     13 C          -0.6580   -2.6790    0.0000 C.ar    1  LIG1        0.1468
     14 O           0.2920   -3.0000    0.0000 O.2     1  LIG1       -0.4474
     15 C          -1.5290   -3.1750    0.0000 C.ar    1  LIG1        0.0375
     16 C          -2.3920   -2.6790    0.0000 C.ar    1  LIG1        0.0031
     17 C          -2.3920   -1.6790    0.0000 C.ar    1  LIG1        0.0002
     18 C          -1.5290   -1.1880    0.0000 C.ar    1  LIG1        0.0044
     19 C           1.8880   -2.1920    0.0000 C.2     1  LIG1        0.3202
     20 O           2.3880   -1.3330    0.0000 O.2     1  LIG1       -0.2632
     21 N           2.3880   -3.0460    0.0000 N.am    1  LIG1       -0.0809
@<TRIPOS>BOND
     1     1     2   ar
     2     1    14   ar
     3     1    19    1
     4     2     3    1
     5     2    12   ar
     6     3     4   am
     7     4     5    2
     8     4     6    1
     9     6     7   ar
    10     6    11   ar
    11     7     8   ar
    12     8     9   ar
    13     9    10   ar
    14    10    11   ar
    15    12    13   ar
    16    12    18   ar
    17    13    14   ar
    18    13    15   ar
    19    15    16   ar
    20    16    17   ar
    21    17    18   ar
    22    19    20    2
    23    19    21   am
