@<TRIPOS>MOLECULE
30048_ChemDiv_8016-2766
 25 29 0 0 0
SMALL
GASTEIGER
Energy = 0

@<TRIPOS>ATOM
      1 C          -1.7210   -1.4960    0.0000 C.ar    1  LIG1        0.1466
      2 O          -2.3080   -2.3080    0.0000 O.2     1  LIG1       -0.4535
      3 C          -3.2580   -2.0080    0.0000 C.ar    1  LIG1        0.1453
      4 C          -3.2710   -1.0040    0.0000 C.ar    1  LIG1        0.0375
      5 C          -2.3130   -0.6830    0.0000 C.ar    1  LIG1        0.0376
      6 C          -1.9210    0.2210    0.0000 C.ar    1  LIG1        0.0045
      7 C          -0.9330    0.3420    0.0000 C.ar    1  LIG1        0.0168
      8 C          -0.3330   -0.4670    0.0000 C.ar    1  LIG1        0.0767
      9 N           0.6540   -0.3580    0.0000 N.am    1  LIG1       -0.1753
     10 C           1.0540    0.5580    0.0000 C.2     1  LIG1        0.2691
     11 C           2.0540    0.6710    0.0000 C.ar    1  LIG1        0.0586
     12 C           2.4460    1.5830    0.0000 C.ar    1  LIG1        0.0448
     13 C           3.4420    1.6960    0.0000 C.ar    1  LIG1        0.1766
     14 C           4.0370    0.8920    0.0000 C.ar    1  LIG1        0.1764
     15 O           4.9920    1.2170    0.0000 O.3     1  LIG1       -0.4346
     16 C           4.9790    2.2080    0.0000 C.3     1  LIG1        0.4294
     17 O           4.0170    2.5130    0.0000 O.3     1  LIG1       -0.4346
     18 C           3.6420   -0.0210    0.0000 C.ar    1  LIG1        0.0403
     19 C           2.6420   -0.1330    0.0000 C.ar    1  LIG1        0.0079
     20 O           0.4670    1.3670    0.0000 O.2     1  LIG1       -0.2680
     21 C          -0.7330   -1.3830    0.0000 C.ar    1  LIG1        0.0541
     22 C          -4.1330   -0.5080    0.0000 C.ar    1  LIG1        0.0031
     23 C          -4.9960   -1.0040    0.0000 C.ar    1  LIG1        0.0002
     24 C          -4.9960   -2.0080    0.0000 C.ar    1  LIG1        0.0031
     25 C          -4.1330   -2.5080    0.0000 C.ar    1  LIG1        0.0375
@<TRIPOS>BOND
     1     1     2   ar
     2     1     5   ar
     3     1    21   ar
     4     2     3   ar
     5     3     4   ar
     6     3    25   ar
     7     4     5   ar
     8     4    22   ar
     9     5     6   ar
    10     6     7   ar
    11     7     8   ar
    12     8     9    1
    13     8    21   ar
    14     9    10   am
    15    10    11    1
    16    10    20    2
    17    11    12   ar
    18    11    19   ar
    19    12    13   ar
    20    13    14   ar
    21    13    17    1
    22    14    15    1
    23    14    18   ar
    24    15    16    1
    25    16    17    1
    26    18    19   ar
    27    22    23   ar
    28    23    24   ar
    29    24    25   ar
