@<TRIPOS>MOLECULE
30040_ChemDiv_5546-0082
 27 31 0 0 0
SMALL
GASTEIGER
Energy = 0

@<TRIPOS>ATOM
      1 C           2.3500    0.2580    0.0000 C.ar    1  LIG1        0.1468
      2 C           2.3500   -0.7380    0.0000 C.ar    1  LIG1        0.0406
      3 C           3.2920   -1.0420    0.0000 C.ar    1  LIG1        0.0376
      4 C           3.8830   -0.2290    0.0000 C.ar    1  LIG1        0.1453
      5 O           3.2920    0.5670    0.0000 O.2     1  LIG1       -0.4535
      6 C           4.8790   -0.3460    0.0000 C.ar    1  LIG1        0.0375
      7 C           5.2790   -1.2500    0.0000 C.ar    1  LIG1        0.0031
      8 C           4.6920   -2.0630    0.0000 C.ar    1  LIG1        0.0002
      9 C           3.7130   -1.9460    0.0000 C.ar    1  LIG1        0.0031
     10 C           1.4830   -1.2250    0.0000 C.ar    1  LIG1        0.0414
     11 C           0.6250   -0.7210    0.0000 C.ar    1  LIG1        0.1541
     12 C           0.6380    0.2670    0.0000 C.ar    1  LIG1        0.1105
     13 N          -0.2210    0.7710    0.0000 N.am    1  LIG1       -0.1723
     14 C          -1.1790    0.2290    0.0000 C.2     1  LIG1        0.2692
     15 C          -2.0380    0.7330    0.0000 C.ar    1  LIG1        0.0586
     16 C          -2.9000    0.2460    0.0000 C.ar    1  LIG1        0.0448
     17 C          -3.7580    0.7500    0.0000 C.ar    1  LIG1        0.1766
     18 C          -3.7540    1.7500    0.0000 C.ar    1  LIG1        0.1764
     19 O          -4.6920    2.0420    0.0000 O.3     1  LIG1       -0.4346
     20 C          -5.2830    1.2460    0.0000 C.3     1  LIG1        0.4294
     21 O          -4.6920    0.4500    0.0000 O.3     1  LIG1       -0.4346
     22 C          -2.8790    2.2250    0.0000 C.ar    1  LIG1        0.0403
     23 C          -2.0250    1.7290    0.0000 C.ar    1  LIG1        0.0079
     24 O          -1.1880   -0.8580    0.0000 O.2     1  LIG1       -0.2680
     25 C           1.4920    0.7540    0.0000 C.ar    1  LIG1        0.0572
     26 O          -0.2460   -1.2250    0.0000 O.3     1  LIG1       -0.4701
     27 C          -0.2460   -2.2210    0.0000 C.3     1  LIG1        0.2525
@<TRIPOS>BOND
     1     1     2   ar
     2     1     5   ar
     3     1    25   ar
     4     2     3   ar
     5     2    10   ar
     6     3     4   ar
     7     3     9   ar
     8     4     5   ar
     9     4     6   ar
    10     6     7   ar
    11     7     8   ar
    12     8     9   ar
    13    10    11   ar
    14    11    12   ar
    15    11    26    1
    16    12    13    1
    17    12    25   ar
    18    13    14   am
    19    14    15    1
    20    14    24    2
    21    15    16   ar
    22    15    23   ar
    23    16    17   ar
    24    17    18   ar
    25    17    21    1
    26    18    19    1
    27    18    22   ar
    28    19    20    1
    29    20    21    1
    30    22    23   ar
    31    26    27    1
