@<TRIPOS>MOLECULE
30044_ChemDiv_8011-0105
 23 25 0 0 0
SMALL
GASTEIGER
Energy = 0

@<TRIPOS>ATOM
      1 C          -1.7750   -0.4460    0.0000 C.ar    1  LIG1        0.2167
      2 C          -1.3710    0.3630    0.0000 C.ar    1  LIG1        0.1154
      3 C          -2.8130    1.1830    0.0000 C.ar    1  LIG1        0.0530
      4 C          -3.2750    0.3710    0.0000 C.ar    1  LIG1        0.1468
      5 O          -2.7830   -0.4460    0.0000 O.2     1  LIG1       -0.4474
      6 C          -4.2040    0.3710    0.0000 C.ar    1  LIG1        0.0375
      7 C          -4.6920    1.1920    0.0000 C.ar    1  LIG1        0.0031
      8 C          -4.2290    2.0380    0.0000 C.ar    1  LIG1        0.0002
      9 C          -3.2750    2.0380    0.0000 C.ar    1  LIG1        0.0044
     10 N          -0.3420    0.3710    0.0000 N.am    1  LIG1       -0.1751
     11 C           0.1290    1.1920    0.0000 C.2     1  LIG1        0.2570
     12 O          -0.3460    2.0540    0.0000 O.2     1  LIG1       -0.2720
     13 C           1.1170    1.1920    0.0000 C.3     1  LIG1        0.1490
     14 S           1.5880    0.3710    0.0000 S.3     1  LIG1       -0.1038
     15 C           2.6790    0.3710    0.0000 C.ar    1  LIG1        0.0257
     16 C           3.1960    1.2040    0.0000 C.ar    1  LIG1        0.0062
     17 C           4.1920    1.2170    0.0000 C.ar    1  LIG1        0.0005
     18 C           4.6880    0.3710    0.0000 C.ar    1  LIG1        0.0000
     19 C           4.1670   -0.4880    0.0000 C.ar    1  LIG1        0.0005
     20 C           3.1710   -0.4880    0.0000 C.ar    1  LIG1        0.0062
     21 C          -1.3040   -1.2460    0.0000 C.2     1  LIG1        0.3202
     22 O          -1.7830   -2.0500    0.0000 O.2     1  LIG1       -0.2632
     23 N          -0.3330   -1.2460    0.0000 N.am    1  LIG1       -0.0809
@<TRIPOS>BOND
     1     1     2   ar
     2     1     5   ar
     3     1    21    1
     4     2     3   ar
     5     2    10    1
     6     3     4   ar
     7     3     9   ar
     8     4     5   ar
     9     4     6   ar
    10     6     7   ar
    11     7     8   ar
    12     8     9   ar
    13    10    11   am
    14    11    12    2
    15    11    13    1
    16    13    14    1
    17    14    15    1
    18    15    16   ar
    19    15    20   ar
    20    16    17   ar
    21    17    18   ar
    22    18    19   ar
    23    19    20   ar
    24    21    22    2
    25    21    23   am
