@<TRIPOS>MOLECULE
30046_ChemDiv_8013-3031
 31 34 0 0 0
SMALL
GASTEIGER
Energy = 0

@<TRIPOS>ATOM
      1 C          -2.7540   -0.7420    0.0000 C.ar    1  LIG1        0.2167
      2 C          -3.3750    0.0250    0.0000 C.ar    1  LIG1        0.1153
      3 C          -4.3210   -0.2790    0.0000 C.ar    1  LIG1        0.0530
      4 C          -4.3210   -1.2630    0.0000 C.ar    1  LIG1        0.1468
      5 O          -3.3500   -1.5710    0.0000 O.2     1  LIG1       -0.4474
      6 C          -5.2040   -1.8130    0.0000 C.ar    1  LIG1        0.0375
      7 C          -6.0540   -1.3380    0.0000 C.ar    1  LIG1        0.0031
      8 C          -6.1130   -0.3080    0.0000 C.ar    1  LIG1        0.0002
      9 C          -5.2210    0.1670    0.0000 C.ar    1  LIG1        0.0044
     10 N          -3.0580    0.9790    0.0000 N.am    1  LIG1       -0.1759
     11 C          -2.0630    1.2080    0.0000 C.2     1  LIG1        0.2456
     12 O          -1.7420    2.1380    0.0000 O.2     1  LIG1       -0.2730
     13 C          -1.4250    0.4580    0.0000 C.3     1  LIG1        0.0872
     14 C          -0.4250    0.6460    0.0000 C.3     1  LIG1        0.0097
     15 C           0.1790   -0.1080    0.0000 C.3     1  LIG1        0.0023
     16 C           1.1540    0.0670    0.0000 C.3     1  LIG1        0.0220
     17 C           1.8210   -0.6250    0.0000 C.3     1  LIG1        0.1015
     18 N           2.8330   -0.4380    0.0000 N.am    1  LIG1       -0.2229
     19 C           3.6000   -1.0750    0.0000 C.2     1  LIG1        0.2551
     20 C           4.4290   -0.5080    0.0000 C.ar    1  LIG1        0.0584
     21 C           4.1670    0.4130    0.0000 C.ar    1  LIG1        0.0584
     22 C           3.1540    0.4420    0.0000 C.2     1  LIG1        0.2551
     23 O           2.5580    1.2830    0.0000 O.2     1  LIG1       -0.2695
     24 C           4.8330    1.1250    0.0000 C.ar    1  LIG1        0.0047
     25 C           5.8210    0.9210    0.0000 C.ar    1  LIG1        0.0001
     26 C           6.1130   -0.0330    0.0000 C.ar    1  LIG1        0.0001
     27 C           5.4000   -0.7130    0.0000 C.ar    1  LIG1        0.0047
     28 O           3.6000   -2.1330    0.0000 O.2     1  LIG1       -0.2695
     29 C          -1.7420   -0.7710    0.0000 C.2     1  LIG1        0.3202
     30 O          -1.2330    0.0920    0.0000 O.2     1  LIG1       -0.2632
     31 N          -1.2210   -1.6290    0.0000 N.am    1  LIG1       -0.0809
@<TRIPOS>BOND
     1     1     2   ar
     2     1     5   ar
     3     1    29    1
     4     2     3   ar
     5     2    10    1
     6     3     4   ar
     7     3     9   ar
     8     4     5   ar
     9     4     6   ar
    10     6     7   ar
    11     7     8   ar
    12     8     9   ar
    13    10    11   am
    14    11    12    2
    15    11    13    1
    16    13    14    1
    17    14    15    1
    18    15    16    1
    19    16    17    1
    20    17    18    1
    21    18    19   am
    22    18    22   am
    23    19    20    1
    24    19    28    2
    25    20    21   ar
    26    20    27   ar
    27    21    22    1
    28    21    24   ar
    29    22    23    2
    30    24    25   ar
    31    25    26   ar
    32    26    27   ar
    33    29    30    2
    34    29    31   am
