@<TRIPOS>MOLECULE
30050_ChemDiv_3771-4738
 29 31 0 0 0
SMALL
GASTEIGER
Energy = 0

@<TRIPOS>ATOM
      1 S          -2.1830    0.1880    0.0000 S.O2    1  LIG1        0.0630
      2 C          -3.1960    0.1880    0.0000 C.ar    1  LIG1        0.1182
      3 C          -3.6710   -0.7250    0.0000 C.ar    1  LIG1       -0.0036
      4 C          -4.6710   -0.7250    0.0000 C.ar    1  LIG1       -0.0072
      5 C          -5.2080    0.1880    0.0000 C.ar    1  LIG1       -0.0221
      6 C          -4.6710    1.0080    0.0000 C.ar    1  LIG1       -0.0029
      7 C          -3.6710    1.0080    0.0000 C.ar    1  LIG1        0.0193
      8 C          -6.1540    0.2040    0.0000 C.3     1  LIG1        0.0310
      9 C          -3.1790   -1.5790    0.0000 C.3     1  LIG1        0.0324
     10 N          -1.1670    0.1880    0.0000 N.3     1  LIG1       -0.1540
     11 C          -0.4920   -0.6130    0.0000 C.3     1  LIG1        0.1149
     12 C           0.5290   -0.6130    0.0000 C.3     1  LIG1        0.1149
     13 N           1.1330    0.2080    0.0000 N.3     1  LIG1       -0.1540
     14 S           2.1130    0.2080    0.0000 S.O2    1  LIG1        0.0630
     15 C           3.1330    0.2080    0.0000 C.ar    1  LIG1        0.1182
     16 C           3.6080   -0.6710    0.0000 C.ar    1  LIG1       -0.0036
     17 C           4.6170   -0.6710    0.0000 C.ar    1  LIG1       -0.0072
     18 C           5.1290    0.1880    0.0000 C.ar    1  LIG1       -0.0221
     19 C           4.6380    1.0670    0.0000 C.ar    1  LIG1       -0.0029
     20 C           3.6080    1.0670    0.0000 C.ar    1  LIG1        0.0193
     21 C           6.1540    0.1880    0.0000 C.3     1  LIG1        0.0310
     22 C           3.1000   -1.5210    0.0000 C.3     1  LIG1        0.0324
     23 O           2.1130    1.2040    0.0000 O.2     1  LIG1       -0.1528
     24 O           2.1130   -0.7750    0.0000 O.2     1  LIG1       -0.1528
     25 C           0.8630    1.1460    0.0000 C.3     1  LIG1        0.0973
     26 C          -0.0130    1.5830    0.0000 C.3     1  LIG1        0.0383
     27 C          -0.9250    1.1210    0.0000 C.3     1  LIG1        0.0973
     28 O          -2.1830    1.1210    0.0000 O.2     1  LIG1       -0.1528
     29 O          -2.1830   -0.8420    0.0000 O.2     1  LIG1       -0.1528
@<TRIPOS>BOND
     1     1     2    1
     2     1    10    1
     3     1    28    2
     4     1    29    2
     5     2     3   ar
     6     2     7   ar
     7     3     4   ar
     8     3     9    1
     9     4     5   ar
    10     5     6   ar
    11     5     8    1
    12     6     7   ar
    13    10    11    1
    14    10    27    1
    15    11    12    1
    16    12    13    1
    17    13    14    1
    18    13    25    1
    19    14    15    1
    20    14    23    2
    21    14    24    2
    22    15    16   ar
    23    15    20   ar
    24    16    17   ar
    25    16    22    1
    26    17    18   ar
    27    18    19   ar
    28    18    21    1
    29    19    20   ar
    30    25    26    1
    31    26    27    1
