@<TRIPOS>MOLECULE
30059_ChemDiv_3570-0604
 22 24 0 0 0
SMALL
GASTEIGER
Energy = 0

@<TRIPOS>ATOM
      1 C          -0.0250   -0.2750    0.0000 C.ar    1  LIG1        0.1131
      2 C           0.5630   -1.0830    0.0000 C.ar    1  LIG1        0.1515
      3 O          -0.0250   -1.8750    0.0000 O.2     1  LIG1       -0.4533
      4 C          -0.9830   -1.5710    0.0000 C.ar    1  LIG1        0.1462
      5 C          -0.9830   -0.5790    0.0000 C.ar    1  LIG1        0.0470
      6 C          -1.8500   -0.0750    0.0000 C.ar    1  LIG1        0.0459
      7 C          -2.7040   -0.5790    0.0000 C.ar    1  LIG1        0.2020
      8 C          -2.7040   -1.5710    0.0000 C.ar    1  LIG1        0.0765
      9 C          -1.8500   -2.0710    0.0000 C.ar    1  LIG1        0.0474
     10 BR         -3.5790   -2.0710    0.0000 Br      1  LIG1       -0.0456
     11 O          -3.5790   -0.0750    0.0000 O.3     1  LIG1       -0.2860
     12 C           1.5710   -1.1290    0.0000 C.ar    1  LIG1        0.0348
     13 C           2.1040   -0.2960    0.0000 C.ar    1  LIG1        0.0030
     14 C           3.1170   -0.3330    0.0000 C.ar    1  LIG1        0.0001
     15 C           3.5750   -1.2040    0.0000 C.ar    1  LIG1        0.0000
     16 C           3.0460   -2.0580    0.0000 C.ar    1  LIG1        0.0001
     17 C           2.0420   -2.0210    0.0000 C.ar    1  LIG1        0.0030
     18 C           0.2790    0.6920    0.0000 C.2     1  LIG1        0.3443
     19 O          -0.3880    1.4290    0.0000 O.2     1  LIG1       -0.2448
     20 O           1.2500    0.9080    0.0000 O.3     1  LIG1       -0.4454
     21 C           1.5710    1.8540    0.0000 C.3     1  LIG1        0.2089
     22 C           2.5420    2.0750    0.0000 C.3     1  LIG1        0.0513
@<TRIPOS>BOND
     1     1     2   ar
     2     1     5   ar
     3     1    18    1
     4     2     3   ar
     5     2    12    1
     6     3     4   ar
     7     4     5   ar
     8     4     9   ar
     9     5     6   ar
    10     6     7   ar
    11     7     8   ar
    12     7    11    1
    13     8     9   ar
    14     8    10    1
    15    12    13   ar
    16    12    17   ar
    17    13    14   ar
    18    14    15   ar
    19    15    16   ar
    20    16    17   ar
    21    18    19    2
    22    18    20    1
    23    20    21    1
    24    21    22    1
