@<TRIPOS>MOLECULE
30054_ChemDiv_4314-0157
 29 31 0 0 0
SMALL
GASTEIGER
Energy = 0

@<TRIPOS>ATOM
      1 S          -2.1080    0.3630    0.0000 S.O2    1  LIG1        0.0630
      2 C          -3.1130    0.1750    0.0000 C.ar    1  LIG1        0.1187
      3 C          -3.4250   -0.8000    0.0000 C.ar    1  LIG1        0.0263
      4 C          -4.4000   -0.9790    0.0000 C.ar    1  LIG1        0.0359
      5 C          -5.0540   -0.2460    0.0000 C.ar    1  LIG1        0.0065
      6 C          -4.7580    0.7000    0.0000 C.ar    1  LIG1       -0.0024
      7 C          -3.7540    0.9000    0.0000 C.ar    1  LIG1       -0.0032
      8 C          -3.4250    1.8250    0.0000 C.3     1  LIG1        0.0324
      9 BR         -4.6880   -1.9290    0.0000 Br      1  LIG1       -0.0490
     10 N          -1.1500    0.5420    0.0000 N.3     1  LIG1       -0.1540
     11 C          -0.4960   -0.2460    0.0000 C.3     1  LIG1        0.1149
     12 C           0.4960   -0.2460    0.0000 C.3     1  LIG1        0.1149
     13 N           1.1210    0.5420    0.0000 N.3     1  LIG1       -0.1540
     14 S           2.0960    0.3540    0.0000 S.O2    1  LIG1        0.0630
     15 C           3.1080    0.1670    0.0000 C.ar    1  LIG1        0.1187
     16 C           3.4040   -0.8000    0.0000 C.ar    1  LIG1        0.0263
     17 C           4.4000   -1.0000    0.0000 C.ar    1  LIG1        0.0359
     18 C           5.0500   -0.2290    0.0000 C.ar    1  LIG1        0.0065
     19 C           4.7210    0.7130    0.0000 C.ar    1  LIG1       -0.0024
     20 C           3.7500    0.9000    0.0000 C.ar    1  LIG1       -0.0032
     21 C           3.4420    1.8250    0.0000 C.3     1  LIG1        0.0324
     22 BR          4.7210   -1.9460    0.0000 Br      1  LIG1       -0.0490
     23 O           2.2960    1.3330    0.0000 O.2     1  LIG1       -0.1528
     24 O           1.9000   -0.6540    0.0000 O.2     1  LIG1       -0.1528
     25 C           0.9080    1.4960    0.0000 C.3     1  LIG1        0.0973
     26 C          -0.0040    1.9500    0.0000 C.3     1  LIG1        0.0383
     27 C          -0.9170    1.4960    0.0000 C.3     1  LIG1        0.0973
     28 O          -1.9290   -0.6250    0.0000 O.2     1  LIG1       -0.1528
     29 O          -2.3000    1.3420    0.0000 O.2     1  LIG1       -0.1528
@<TRIPOS>BOND
     1     1     2    1
     2     1    10    1
     3     1    28    2
     4     1    29    2
     5     2     3   ar
     6     2     7   ar
     7     3     4   ar
     8     4     5   ar
     9     4     9    1
    10     5     6   ar
    11     6     7   ar
    12     7     8    1
    13    10    11    1
    14    10    27    1
    15    11    12    1
    16    12    13    1
    17    13    14    1
    18    13    25    1
    19    14    15    1
    20    14    23    2
    21    14    24    2
    22    15    16   ar
    23    15    20   ar
    24    16    17   ar
    25    17    18   ar
    26    17    22    1
    27    18    19   ar
    28    19    20   ar
    29    20    21    1
    30    25    26    1
    31    26    27    1
