@<TRIPOS>MOLECULE
30055_ChemDiv_3570-0161
 28 30 0 0 0
SMALL
GASTEIGER
Energy = 0

@<TRIPOS>ATOM
      1 C           2.1790    0.0540    0.0000 C.ar    1  LIG1        0.1089
      2 C           2.7500   -0.7580    0.0000 C.ar    1  LIG1        0.1295
      3 O           2.1630   -1.5790    0.0000 O.2     1  LIG1       -0.4575
      4 C           1.2000   -1.2500    0.0000 C.ar    1  LIG1        0.1452
      5 C           1.2000   -0.2580    0.0000 C.ar    1  LIG1        0.0464
      6 C           0.3460    0.2380    0.0000 C.ar    1  LIG1        0.0402
      7 C          -0.5210   -0.2580    0.0000 C.ar    1  LIG1        0.1394
      8 O          -1.3960    0.2540    0.0000 O.3     1  LIG1       -0.4671
      9 C          -2.2630   -0.2380    0.0000 C.3     1  LIG1        0.2735
     10 C          -3.1170    0.2540    0.0000 C.2     1  LIG1        0.2169
     11 C          -4.0080   -0.2380    0.0000 C.ar    1  LIG1        0.0385
     12 C          -4.8580    0.2830    0.0000 C.ar    1  LIG1        0.0035
     13 C          -5.7210   -0.2080    0.0000 C.ar    1  LIG1        0.0068
     14 C          -5.7290   -1.2290    0.0000 C.ar    1  LIG1        0.0346
     15 C          -4.8580   -1.7380    0.0000 C.ar    1  LIG1        0.0068
     16 C          -4.0080   -1.2460    0.0000 C.ar    1  LIG1        0.0035
     17 BR         -6.6000   -1.7210    0.0000 Br      1  LIG1       -0.0490
     18 O          -3.1170    1.2420    0.0000 O.2     1  LIG1       -0.2874
     19 C          -0.5210   -1.2460    0.0000 C.ar    1  LIG1        0.0400
     20 C           0.3460   -1.7460    0.0000 C.ar    1  LIG1        0.0406
     21 C           3.7580   -0.7750    0.0000 C.3     1  LIG1        0.0727
     22 C           2.4880    0.9920    0.0000 C.2     1  LIG1        0.3440
     23 O           1.8290    1.7500    0.0000 O.2     1  LIG1       -0.2448
     24 O           3.4750    1.2040    0.0000 O.3     1  LIG1       -0.4426
     25 C           4.1290    0.4630    0.0000 C.3     1  LIG1        0.2407
     26 C           5.1000    0.6540    0.0000 C.3     1  LIG1        0.1895
     27 O           5.5920   -0.1920    0.0000 O.3     1  LIG1       -0.3471
     28 C           6.6000   -0.1920    0.0000 C.3     1  LIG1        0.1743
@<TRIPOS>BOND
     1     1     2   ar
     2     1     5   ar
     3     1    22    1
     4     2     3   ar
     5     2    21    1
     6     3     4   ar
     7     4     5   ar
     8     4    20   ar
     9     5     6   ar
    10     6     7   ar
    11     7     8    1
    12     7    19   ar
    13     8     9    1
    14     9    10    1
    15    10    11    1
    16    10    18    2
    17    11    12   ar
    18    11    16   ar
    19    12    13   ar
    20    13    14   ar
    21    14    15   ar
    22    14    17    1
    23    15    16   ar
    24    19    20   ar
    25    22    23    2
    26    22    24    1
    27    24    25    1
    28    25    26    1
    29    26    27    1
    30    27    28    1
