@<TRIPOS>MOLECULE
30052_ChemDiv_3771-4820
 31 33 0 0 0
SMALL
GASTEIGER
Energy = 0

@<TRIPOS>ATOM
      1 S          -2.1380   -0.0170    0.0000 S.O2    1  LIG1        0.0663
      2 C          -3.1130   -0.0170    0.0000 C.ar    1  LIG1        0.1564
      3 C          -3.6000   -0.8880    0.0000 C.ar    1  LIG1        0.0297
      4 C          -4.6130   -0.8880    0.0000 C.ar    1  LIG1        0.0361
      5 C          -5.1380   -0.0170    0.0000 C.ar    1  LIG1        0.0099
      6 C          -4.6130    0.8380    0.0000 C.ar    1  LIG1        0.0388
      7 C          -3.6000    0.8380    0.0000 C.ar    1  LIG1        0.1572
      8 O          -3.1130    1.6750    0.0000 O.3     1  LIG1       -0.4701
      9 C          -2.1130    1.6750    0.0000 C.3     1  LIG1        0.2525
     10 BR         -5.0790   -1.7540    0.0000 Br      1  LIG1       -0.0490
     11 N          -1.1040   -0.0170    0.0000 N.3     1  LIG1       -0.1539
     12 C          -0.4500   -0.7960    0.0000 C.3     1  LIG1        0.1149
     13 C           0.5540   -0.7960    0.0000 C.3     1  LIG1        0.1149
     14 N           1.1670    0.0290    0.0000 N.3     1  LIG1       -0.1539
     15 S           2.1380    0.0290    0.0000 S.O2    1  LIG1        0.0663
     16 C           3.1420    0.0290    0.0000 C.ar    1  LIG1        0.1564
     17 C           3.6130   -0.8420    0.0000 C.ar    1  LIG1        0.0297
     18 C           4.6040   -0.8420    0.0000 C.ar    1  LIG1        0.0361
     19 C           5.1330    0.0080    0.0000 C.ar    1  LIG1        0.0099
     20 C           4.6460    0.8830    0.0000 C.ar    1  LIG1        0.0388
     21 C           3.6130    0.8830    0.0000 C.ar    1  LIG1        0.1572
     22 O           3.0830    1.7580    0.0000 O.3     1  LIG1       -0.4701
     23 C           2.0290    1.7580    0.0000 C.3     1  LIG1        0.2525
     24 BR          5.0880   -1.6960    0.0000 Br      1  LIG1       -0.0490
     25 O           2.1380   -0.9630    0.0000 O.2     1  LIG1       -0.1527
     26 O           2.1380    1.0290    0.0000 O.2     1  LIG1       -0.1527
     27 C           0.8880    0.9830    0.0000 C.3     1  LIG1        0.0973
     28 C           0.0170    1.4080    0.0000 C.3     1  LIG1        0.0383
     29 C          -0.8790    0.9580    0.0000 C.3     1  LIG1        0.0973
     30 O          -2.1380   -1.0080    0.0000 O.2     1  LIG1       -0.1527
     31 O          -2.1380    0.9580    0.0000 O.2     1  LIG1       -0.1527
@<TRIPOS>BOND
     1     1     2    1
     2     1    11    1
     3     1    30    2
     4     1    31    2
     5     2     3   ar
     6     2     7   ar
     7     3     4   ar
     8     4     5   ar
     9     4    10    1
    10     5     6   ar
    11     6     7   ar
    12     7     8    1
    13     8     9    1
    14    11    12    1
    15    11    29    1
    16    12    13    1
    17    13    14    1
    18    14    15    1
    19    14    27    1
    20    15    16    1
    21    15    25    2
    22    15    26    2
    23    16    17   ar
    24    16    21   ar
    25    17    18   ar
    26    18    19   ar
    27    18    24    1
    28    19    20   ar
    29    20    21   ar
    30    21    22    1
    31    22    23    1
    32    27    28    1
    33    28    29    1
