@<TRIPOS>MOLECULE
30057_ChemDiv_3570-0230
 24 26 0 0 0
SMALL
GASTEIGER
Energy = 0

@<TRIPOS>ATOM
      1 C           1.2830    0.0540    0.0000 C.ar    1  LIG1        0.0515
      2 C           1.8670   -0.7750    0.0000 C.ar    1  LIG1        0.1463
      3 O           1.2830   -1.5670    0.0000 O.2     1  LIG1       -0.4535
      4 C           0.3130   -1.2630    0.0000 C.ar    1  LIG1        0.1455
      5 C           0.3170   -0.2500    0.0000 C.ar    1  LIG1        0.0416
      6 C          -0.5290    0.2540    0.0000 C.ar    1  LIG1        0.0401
      7 C          -1.3830   -0.2500    0.0000 C.ar    1  LIG1        0.1391
      8 O          -2.2580    0.2580    0.0000 O.3     1  LIG1       -0.4736
      9 C          -3.1210   -0.2330    0.0000 C.3     1  LIG1        0.2020
     10 C          -3.9920    0.2580    0.0000 C.2     1  LIG1        0.0900
     11 O          -3.9880    1.2670    0.0000 O.co2   1  LIG1       -0.5455
     12 O          -4.8670   -0.2290    0.0000 O.co2   1  LIG1       -0.5455
     13 C          -3.1380   -1.2420    0.0000 C.3     1  LIG1        0.0536
     14 C          -1.4000   -1.2420    0.0000 C.ar    1  LIG1        0.0400
     15 C          -0.5330   -1.7500    0.0000 C.ar    1  LIG1        0.0406
     16 C           2.8670   -0.7750    0.0000 C.ar    1  LIG1        0.0346
     17 C           3.3500    0.0750    0.0000 C.ar    1  LIG1        0.0030
     18 C           4.3630    0.0750    0.0000 C.ar    1  LIG1        0.0001
     19 C           4.8630   -0.7790    0.0000 C.ar    1  LIG1        0.0000
     20 C           4.3630   -1.6420    0.0000 C.ar    1  LIG1        0.0001
     21 C           3.3500   -1.6420    0.0000 C.ar    1  LIG1        0.0030
     22 C           1.5920    1.0000    0.0000 C.2     1  LIG1        0.0759
     23 O           0.9250    1.7540    0.0000 O.co2   1  LIG1       -0.5445
     24 O           2.5790    1.2080    0.0000 O.co2   1  LIG1       -0.5445
@<TRIPOS>BOND
     1     1     2   ar
     2     1     5   ar
     3     1    22    1
     4     2     3   ar
     5     2    16    1
     6     3     4   ar
     7     4     5   ar
     8     4    15   ar
     9     5     6   ar
    10     6     7   ar
    11     7     8    1
    12     7    14   ar
    13     8     9    1
    14     9    10    1
    15     9    13    1
    16    10    11   ar
    17    10    12   ar
    18    14    15   ar
    19    16    17   ar
    20    16    21   ar
    21    17    18   ar
    22    18    19   ar
    23    19    20   ar
    24    20    21   ar
    25    22    23   ar
    26    22    24   ar
