@<TRIPOS>MOLECULE
30065_ChemDiv_3647-2174
 16 18 0 0 0
SMALL
GASTEIGER
Energy = 0

@<TRIPOS>ATOM
      1 C           0.8670    0.0000    0.0000 C.ar    1  LIG1        0.0903
      2 C          -0.0130    0.4960    0.0000 C.ar    1  LIG1        0.0990
      3 C          -0.8790    0.0000    0.0000 C.ar    1  LIG1        0.0868
      4 C          -0.8790   -1.0080    0.0000 C.ar    1  LIG1        0.2974
      5 N          -0.0130   -1.4960    0.0000 N.ar    1  LIG1        0.0710
      6 C           0.8670   -1.0080    0.0000 C.ar    1  LIG1        0.2736
      7 C           1.7130   -1.4960    0.0000 C.3     1  LIG1        0.1037
      8 C           2.6000   -1.0080    0.0000 C.3     1  LIG1        0.0143
      9 C           2.6000    0.0000    0.0000 C.3     1  LIG1        0.0383
     10 C           1.7130    0.4960    0.0000 C.3     1  LIG1        0.1811
     11 O           1.7130    1.5000    0.0000 O.3     1  LIG1       -0.2180
     12 C          -1.7210   -1.4960    0.0000 C.ar    1  LIG1        0.0762
     13 C          -2.6040   -1.0080    0.0000 C.ar    1  LIG1        0.0063
     14 C          -2.6040    0.0000    0.0000 C.ar    1  LIG1        0.0004
     15 C          -1.7210    0.4960    0.0000 C.ar    1  LIG1        0.0075
     16 N          -0.0130    1.5000    0.0000 N.pl3   1  LIG1       -0.1279
@<TRIPOS>BOND
     1     1     2   ar
     2     1     6   ar
     3     1    10    1
     4     2     3   ar
     5     2    16    1
     6     3     4   ar
     7     3    15   ar
     8     4     5   ar
     9     4    12   ar
    10     5     6   ar
    11     6     7    1
    12     7     8    1
    13     8     9    1
    14     9    10    1
    15    10    11    1
    16    12    13   ar
    17    13    14   ar
    18    14    15   ar
