@<TRIPOS>MOLECULE
30061_ChemDiv_3570-0627
 25 27 0 0 0
SMALL
GASTEIGER
Energy = 0

@<TRIPOS>ATOM
      1 C           0.8540   -0.2500    0.0000 C.ar    1  LIG1        0.1131
      2 C           1.4290   -1.0540    0.0000 C.ar    1  LIG1        0.1515
      3 O           0.8540   -1.8670    0.0000 O.2     1  LIG1       -0.4533
      4 C          -0.0920   -1.5630    0.0000 C.ar    1  LIG1        0.1462
      5 C          -0.0920   -0.5540    0.0000 C.ar    1  LIG1        0.0468
      6 C          -0.9540   -0.0630    0.0000 C.ar    1  LIG1        0.0415
      7 C          -1.8290   -0.5540    0.0000 C.ar    1  LIG1        0.1547
      8 C          -1.8290   -1.5630    0.0000 C.ar    1  LIG1        0.0722
      9 C          -0.9540   -2.0630    0.0000 C.ar    1  LIG1        0.0472
     10 BR         -2.6960   -2.0710    0.0000 Br      1  LIG1       -0.0457
     11 O          -2.6960   -0.0630    0.0000 O.3     1  LIG1       -0.4236
     12 C          -3.5630   -0.5540    0.0000 C.2     1  LIG1        0.3221
     13 O          -3.5460   -1.5790    0.0000 O.2     1  LIG1       -0.2497
     14 C          -4.4330   -0.0710    0.0000 C.3     1  LIG1        0.1216
     15 C           2.4420   -1.0710    0.0000 C.ar    1  LIG1        0.0348
     16 C           2.9250   -1.9420    0.0000 C.ar    1  LIG1        0.0030
     17 C           3.9170   -1.9500    0.0000 C.ar    1  LIG1        0.0001
     18 C           4.4290   -1.0960    0.0000 C.ar    1  LIG1        0.0000
     19 C           3.9290   -0.2040    0.0000 C.ar    1  LIG1        0.0001
     20 C           2.9420   -0.2040    0.0000 C.ar    1  LIG1        0.0030
     21 C           1.1670    0.6880    0.0000 C.2     1  LIG1        0.3443
     22 O           0.4920    1.4330    0.0000 O.2     1  LIG1       -0.2448
     23 O           2.1380    0.9040    0.0000 O.3     1  LIG1       -0.4454
     24 C           2.4540    1.8540    0.0000 C.3     1  LIG1        0.2089
     25 C           3.4250    2.0750    0.0000 C.3     1  LIG1        0.0513
@<TRIPOS>BOND
     1     1     2   ar
     2     1     5   ar
     3     1    21    1
     4     2     3   ar
     5     2    15    1
     6     3     4   ar
     7     4     5   ar
     8     4     9   ar
     9     5     6   ar
    10     6     7   ar
    11     7     8   ar
    12     7    11    1
    13     8     9   ar
    14     8    10    1
    15    11    12    1
    16    12    13    2
    17    12    14    1
    18    15    16   ar
    19    15    20   ar
    20    16    17   ar
    21    17    18   ar
    22    18    19   ar
    23    19    20   ar
    24    21    22    2
    25    21    23    1
    26    23    24    1
    27    24    25    1
