@<TRIPOS>MOLECULE
30068_ChemDiv_C686-0872
 33 37 0 0 0
SMALL
GASTEIGER
Energy = 0

@<TRIPOS>ATOM
      1 C          -1.4290   -0.9880    0.0000 C.ar    1  LIG1        0.2155
      2 C          -1.7500   -0.0290    0.0000 C.ar    1  LIG1        0.1156
      3 N          -1.1540    0.7880    0.0000 N.am    1  LIG1       -0.1721
      4 C          -1.5670    1.7000    0.0000 C.2     1  LIG1        0.2692
      5 C          -0.9790    2.5080    0.0000 C.ar    1  LIG1        0.0586
      6 C           0.0130    2.4000    0.0000 C.ar    1  LIG1        0.0448
      7 C           0.5920    3.2000    0.0000 C.ar    1  LIG1        0.1766
      8 C           0.1830    4.1080    0.0000 C.ar    1  LIG1        0.1764
      9 O           0.9250    4.7790    0.0000 O.3     1  LIG1       -0.4346
     10 C           1.7960    4.2880    0.0000 C.3     1  LIG1        0.4294
     11 O           1.5920    3.3080    0.0000 O.3     1  LIG1       -0.4346
     12 C          -0.8040    4.2170    0.0000 C.ar    1  LIG1        0.0403
     13 C          -1.3880    3.4000    0.0000 C.ar    1  LIG1        0.0079
     14 O          -2.5580    1.8080    0.0000 O.2     1  LIG1       -0.2680
     15 C          -2.7420   -0.0330    0.0000 C.ar    1  LIG1        0.0530
     16 C          -3.0580   -0.9880    0.0000 C.ar    1  LIG1        0.1468
     17 O          -2.2500   -1.5710    0.0000 O.2     1  LIG1       -0.4475
     18 C          -4.0290   -1.1880    0.0000 C.ar    1  LIG1        0.0375
     19 C          -4.7000   -0.4540    0.0000 C.ar    1  LIG1        0.0031
     20 C          -4.3960    0.5040    0.0000 C.ar    1  LIG1        0.0002
     21 C          -3.4130    0.7130    0.0000 C.ar    1  LIG1        0.0044
     22 C          -0.4750   -1.2960    0.0000 C.2     1  LIG1        0.3050
     23 N          -0.2750   -2.2710    0.0000 N.am    1  LIG1       -0.1728
     24 C           0.6790   -2.5830    0.0000 C.ar    1  LIG1        0.0740
     25 C           1.4170   -1.9040    0.0000 C.ar    1  LIG1        0.0197
     26 C           2.3750   -2.2080    0.0000 C.ar    1  LIG1        0.0382
     27 C           2.5790   -3.1920    0.0000 C.ar    1  LIG1        0.1386
     28 C           1.8420   -3.8630    0.0000 C.ar    1  LIG1        0.0382
     29 C           0.8830   -3.5460    0.0000 C.ar    1  LIG1        0.0197
     30 O           3.5290   -3.5000    0.0000 O.3     1  LIG1       -0.4755
     31 C           3.7420   -4.4750    0.0000 C.3     1  LIG1        0.2055
     32 C           4.6960   -4.7790    0.0000 C.3     1  LIG1        0.0512
     33 O           0.2710   -0.6210    0.0000 O.2     1  LIG1       -0.2646
@<TRIPOS>BOND
     1     1     2   ar
     2     1    17   ar
     3     1    22    1
     4     2     3    1
     5     2    15   ar
     6     3     4   am
     7     4     5    1
     8     4    14    2
     9     5     6   ar
    10     5    13   ar
    11     6     7   ar
    12     7     8   ar
    13     7    11    1
    14     8     9    1
    15     8    12   ar
    16     9    10    1
    17    10    11    1
    18    12    13   ar
    19    15    16   ar
    20    15    21   ar
    21    16    17   ar
    22    16    18   ar
    23    18    19   ar
    24    19    20   ar
    25    20    21   ar
    26    22    23   am
    27    22    33    2
    28    23    24    1
    29    24    25   ar
    30    24    29   ar
    31    25    26   ar
    32    26    27   ar
    33    27    28   ar
    34    27    30    1
    35    28    29   ar
    36    30    31    1
    37    31    32    1
