@<TRIPOS>MOLECULE
30062_ChemDiv_4905-1297
 31 33 0 0 0
SMALL
GASTEIGER
Energy = 0

@<TRIPOS>ATOM
      1 S           2.0920   -0.3580    0.0000 S.O2    1  LIG1        0.0630
      2 C           3.0710   -0.1380    0.0000 C.ar    1  LIG1        0.1179
      3 C           3.3580    0.8210    0.0000 C.ar    1  LIG1        0.0150
      4 C           4.3330    1.0330    0.0000 C.ar    1  LIG1       -0.0245
      5 C           5.0210    0.3040    0.0000 C.ar    1  LIG1       -0.0260
      6 C           4.7170   -0.6460    0.0000 C.ar    1  LIG1       -0.0075
      7 C           3.7500   -0.8670    0.0000 C.ar    1  LIG1       -0.0036
      8 C           3.4540   -1.8330    0.0000 C.3     1  LIG1        0.0324
      9 C           6.0000    0.5330    0.0000 C.3     1  LIG1        0.0307
     10 C           4.6330    1.9960    0.0000 C.3     1  LIG1        0.0307
     11 N           1.1170   -0.5830    0.0000 N.3     1  LIG1       -0.1540
     12 C           0.4960    0.2040    0.0000 C.3     1  LIG1        0.1149
     13 C          -0.5000    0.2040    0.0000 C.3     1  LIG1        0.1149
     14 N          -1.1250   -0.5830    0.0000 N.3     1  LIG1       -0.1540
     15 S          -2.1080   -0.3580    0.0000 S.O2    1  LIG1        0.0630
     16 C          -3.0750   -0.1380    0.0000 C.ar    1  LIG1        0.1179
     17 C          -3.3750    0.8210    0.0000 C.ar    1  LIG1        0.0150
     18 C          -4.3460    1.0330    0.0000 C.ar    1  LIG1       -0.0245
     19 C          -5.0250    0.3040    0.0000 C.ar    1  LIG1       -0.0260
     20 C          -4.7330   -0.6460    0.0000 C.ar    1  LIG1       -0.0075
     21 C          -3.7630   -0.8670    0.0000 C.ar    1  LIG1       -0.0036
     22 C          -3.4630   -1.8330    0.0000 C.3     1  LIG1        0.0324
     23 C          -6.0000    0.5330    0.0000 C.3     1  LIG1        0.0307
     24 C          -4.6420    1.9960    0.0000 C.3     1  LIG1        0.0307
     25 O          -2.3250   -1.3330    0.0000 O.2     1  LIG1       -0.1528
     26 O          -1.8830    0.6130    0.0000 O.2     1  LIG1       -0.1528
     27 C          -0.9040   -1.5540    0.0000 C.3     1  LIG1        0.0973
     28 C           0.0000   -1.9920    0.0000 C.3     1  LIG1        0.0383
     29 C           0.8960   -1.5540    0.0000 C.3     1  LIG1        0.0973
     30 O           1.8670    0.6130    0.0000 O.2     1  LIG1       -0.1528
     31 O           2.3130   -1.3330    0.0000 O.2     1  LIG1       -0.1528
@<TRIPOS>BOND
     1     1     2    1
     2     1    11    1
     3     1    30    2
     4     1    31    2
     5     2     3   ar
     6     2     7   ar
     7     3     4   ar
     8     4     5   ar
     9     4    10    1
    10     5     6   ar
    11     5     9    1
    12     6     7   ar
    13     7     8    1
    14    11    12    1
    15    11    29    1
    16    12    13    1
    17    13    14    1
    18    14    15    1
    19    14    27    1
    20    15    16    1
    21    15    25    2
    22    15    26    2
    23    16    17   ar
    24    16    21   ar
    25    17    18   ar
    26    18    19   ar
    27    18    24    1
    28    19    20   ar
    29    19    23    1
    30    20    21   ar
    31    21    22    1
    32    27    28    1
    33    28    29    1
