@<TRIPOS>MOLECULE
30067_ChemDiv_3647-2256
 24 27 0 0 0
SMALL
GASTEIGER
Energy = 0

@<TRIPOS>ATOM
      1 C          -0.8630   -0.4960    0.0000 C.ar    1  LIG1        0.0810
      2 C          -0.0040   -0.9920    0.0000 C.ar    1  LIG1        0.0590
      3 C          -0.0040   -2.0130    0.0000 C.ar    1  LIG1        0.2712
      4 N          -0.8630   -2.4920    0.0000 N.ar    1  LIG1        0.0709
      5 C          -1.7290   -2.0130    0.0000 C.ar    1  LIG1        0.2974
      6 C          -1.7290   -0.9920    0.0000 C.ar    1  LIG1        0.0853
      7 C          -2.5830   -0.4960    0.0000 C.ar    1  LIG1        0.0074
      8 C          -3.4670   -0.9920    0.0000 C.ar    1  LIG1        0.0004
      9 C          -3.4670   -2.0130    0.0000 C.ar    1  LIG1        0.0063
     10 C          -2.5830   -2.4920    0.0000 C.ar    1  LIG1        0.0762
     11 C           0.8420   -2.4920    0.0000 C.3     1  LIG1        0.1036
     12 C           1.7210   -2.0130    0.0000 C.3     1  LIG1        0.0117
     13 C           1.7210   -0.9920    0.0000 C.3     1  LIG1        0.0055
     14 C           0.8420   -0.4960    0.0000 C.3     1  LIG1        0.0336
     15 N          -0.8630    0.5040    0.0000 N.am    1  LIG1       -0.1741
     16 C          -0.0040    0.9960    0.0000 C.2     1  LIG1        0.3033
     17 C           0.8420    0.5040    0.0000 C.3     1  LIG1        0.2271
     18 N           1.7210    0.9960    0.0000 N.4     1  LIG1        0.3885
     19 C           1.7210    2.0080    0.0000 C.3     1  LIG1        0.1720
     20 C           2.5710    2.4960    0.0000 C.3     1  LIG1        0.2048
     21 O           3.4630    2.0080    0.0000 O.3     1  LIG1       -0.3411
     22 C           3.4630    0.9960    0.0000 C.3     1  LIG1        0.2048
     23 C           2.5920    0.5040    0.0000 C.3     1  LIG1        0.1720
     24 O          -0.0040    2.0080    0.0000 O.2     1  LIG1       -0.2665
@<TRIPOS>BOND
     1     1     2   ar
     2     1     6   ar
     3     1    15    1
     4     2     3   ar
     5     2    14    1
     6     3     4   ar
     7     3    11    1
     8     4     5   ar
     9     5     6   ar
    10     5    10   ar
    11     6     7   ar
    12     7     8   ar
    13     8     9   ar
    14     9    10   ar
    15    11    12    1
    16    12    13    1
    17    13    14    1
    18    15    16   am
    19    16    17    1
    20    16    24    2
    21    17    18    1
    22    18    19    1
    23    18    23    1
    24    19    20    1
    25    20    21    1
    26    21    22    1
    27    22    23    1
