@<TRIPOS>MOLECULE
30063_ChemDiv_3570-0740
 25 27 0 0 0
SMALL
GASTEIGER
Energy = 0

@<TRIPOS>ATOM
      1 C           1.2750   -0.2580    0.0000 C.ar    1  LIG1        0.1131
      2 C           1.8750   -1.0670    0.0000 C.ar    1  LIG1        0.1515
      3 O           1.2750   -1.8710    0.0000 O.2     1  LIG1       -0.4533
      4 C           0.3330   -1.5670    0.0000 C.ar    1  LIG1        0.1462
      5 C           0.3330   -0.5750    0.0000 C.ar    1  LIG1        0.0468
      6 C          -0.5290   -0.0670    0.0000 C.ar    1  LIG1        0.0408
      7 C          -1.4000   -0.5750    0.0000 C.ar    1  LIG1        0.1464
      8 C          -1.4000   -1.5670    0.0000 C.ar    1  LIG1        0.0715
      9 C          -0.5290   -2.0670    0.0000 C.ar    1  LIG1        0.0472
     10 BR         -2.2630   -2.0670    0.0000 Br      1  LIG1       -0.0457
     11 O          -2.2750   -0.0670    0.0000 O.3     1  LIG1       -0.4588
     12 C          -3.1380   -0.5750    0.0000 C.3     1  LIG1        0.3091
     13 C          -4.0040   -0.0750    0.0000 C.1     1  LIG1        0.1218
     14 N          -4.8710    0.4330    0.0000 N.1     1  LIG1       -0.1920
     15 C           2.8670   -1.0670    0.0000 C.ar    1  LIG1        0.0348
     16 C           3.3500   -1.9460    0.0000 C.ar    1  LIG1        0.0030
     17 C           4.3630   -1.9540    0.0000 C.ar    1  LIG1        0.0001
     18 C           4.8670   -1.0830    0.0000 C.ar    1  LIG1        0.0000
     19 C           4.3670   -0.2170    0.0000 C.ar    1  LIG1        0.0001
     20 C           3.3670   -0.2130    0.0000 C.ar    1  LIG1        0.0030
     21 C           1.5920    0.6960    0.0000 C.2     1  LIG1        0.3443
     22 O           0.9080    1.4250    0.0000 O.2     1  LIG1       -0.2448
     23 O           2.5630    0.9210    0.0000 O.3     1  LIG1       -0.4454
     24 C           2.8670    1.8500    0.0000 C.3     1  LIG1        0.2089
     25 C           3.8500    2.0710    0.0000 C.3     1  LIG1        0.0513
@<TRIPOS>BOND
     1     1     2   ar
     2     1     5   ar
     3     1    21    1
     4     2     3   ar
     5     2    15    1
     6     3     4   ar
     7     4     5   ar
     8     4     9   ar
     9     5     6   ar
    10     6     7   ar
    11     7     8   ar
    12     7    11    1
    13     8     9   ar
    14     8    10    1
    15    11    12    1
    16    12    13    1
    17    13    14    3
    18    15    16   ar
    19    15    20   ar
    20    16    17   ar
    21    17    18   ar
    22    18    19   ar
    23    19    20   ar
    24    21    22    2
    25    21    23    1
    26    23    24    1
    27    24    25    1
