@<TRIPOS>MOLECULE
30060_ChemDiv_4502-0395
 31 33 0 0 0
SMALL
GASTEIGER
Energy = 0

@<TRIPOS>ATOM
      1 S          -1.5790   -0.2460    0.0000 S.O2    1  LIG1        0.0662
      2 C          -2.6580   -0.2250    0.0000 C.ar    1  LIG1        0.1560
      3 C          -3.2000   -1.1790    0.0000 C.ar    1  LIG1        0.1580
      4 C          -4.2750   -1.1790    0.0000 C.ar    1  LIG1        0.0497
      5 C          -4.8170   -0.2250    0.0000 C.ar    1  LIG1        0.0608
      6 C          -4.2750    0.6960    0.0000 C.ar    1  LIG1        0.0130
      7 C          -3.2000    0.6960    0.0000 C.ar    1  LIG1        0.0239
      8 CL         -5.9000   -0.2250    0.0000 Cl      1  LIG1       -0.0821
      9 O          -2.6500   -2.1000    0.0000 O.3     1  LIG1       -0.4700
     10 C          -1.5790   -2.1000    0.0000 C.3     1  LIG1        0.2525
     11 N          -0.5080   -0.2960    0.0000 N.3     1  LIG1       -0.1539
     12 C          -0.0210    0.5380    0.0000 C.3     1  LIG1        0.1149
     13 C           0.9880    0.6380    0.0000 C.3     1  LIG1        0.1149
     14 N           1.6710   -0.0960    0.0000 N.3     1  LIG1       -0.1539
     15 S           2.5920    0.1830    0.0000 S.O2    1  LIG1        0.0662
     16 C           3.4130    0.6670    0.0000 C.ar    1  LIG1        0.1560
     17 C           3.4080    1.6130    0.0000 C.ar    1  LIG1        0.1580
     18 C           4.2290    2.1040    0.0000 C.ar    1  LIG1        0.0497
     19 C           5.0670    1.6290    0.0000 C.ar    1  LIG1        0.0608
     20 C           5.0670    0.6710    0.0000 C.ar    1  LIG1        0.0130
     21 C           4.2460    0.1920    0.0000 C.ar    1  LIG1        0.0239
     22 CL          5.8960    2.1040    0.0000 Cl      1  LIG1       -0.0821
     23 O           2.5790    2.0670    0.0000 O.3     1  LIG1       -0.4700
     24 C           1.7580    1.5920    0.0000 C.3     1  LIG1        0.2525
     25 O           3.2830   -0.4790    0.0000 O.2     1  LIG1       -0.1527
     26 O           2.8080    1.1080    0.0000 O.2     1  LIG1       -0.1527
     27 C           1.5130   -1.0290    0.0000 C.3     1  LIG1        0.0973
     28 C           0.7630   -1.3920    0.0000 C.3     1  LIG1        0.0383
     29 C          -0.1540   -1.0670    0.0000 C.3     1  LIG1        0.0973
     30 O          -2.0790    0.7130    0.0000 O.2     1  LIG1       -0.1527
     31 O          -2.1670   -1.1500    0.0000 O.2     1  LIG1       -0.1527
@<TRIPOS>BOND
     1     1     2    1
     2     1    11    1
     3     1    30    2
     4     1    31    2
     5     2     3   ar
     6     2     7   ar
     7     3     4   ar
     8     3     9    1
     9     4     5   ar
    10     5     6   ar
    11     5     8    1
    12     6     7   ar
    13     9    10    1
    14    11    12    1
    15    11    29    1
    16    12    13    1
    17    13    14    1
    18    14    15    1
    19    14    27    1
    20    15    16    1
    21    15    25    2
    22    15    26    2
    23    16    17   ar
    24    16    21   ar
    25    17    18   ar
    26    17    23    1
    27    18    19   ar
    28    19    20   ar
    29    19    22    1
    30    20    21   ar
    31    23    24    1
    32    27    28    1
    33    28    29    1
