@<TRIPOS>MOLECULE
30069_ChemDiv_3647-2397
 20 22 0 0 0
SMALL
GASTEIGER
Energy = 0

@<TRIPOS>ATOM
      1 C           0.3880   -0.6830    0.0000 C.ar    1  LIG1        0.1153
      2 C          -0.4960   -0.1830    0.0000 C.ar    1  LIG1        0.0796
      3 C          -1.3540   -0.6830    0.0000 C.ar    1  LIG1        0.0852
      4 C          -1.3540   -1.7130    0.0000 C.ar    1  LIG1        0.2974
      5 N          -0.4960   -2.1750    0.0000 N.ar    1  LIG1        0.0713
      6 C           0.3880   -1.6750    0.0000 C.ar    1  LIG1        0.2779
      7 C           1.2460   -2.1750    0.0000 C.3     1  LIG1        0.1044
      8 C           2.1380   -1.6750    0.0000 C.3     1  LIG1        0.0176
      9 C           2.1380   -0.7250    0.0000 C.3     1  LIG1        0.0699
     10 C           1.2460   -0.2130    0.0000 C.2     1  LIG1        0.1799
     11 O           1.2460    0.8000    0.0000 O.2     1  LIG1       -0.2911
     12 C           2.9460   -2.2880    0.0000 C.3     1  LIG1        0.0010
     13 C           3.1000   -1.3920    0.0000 C.3     1  LIG1        0.0010
     14 C          -2.2290   -2.1750    0.0000 C.ar    1  LIG1        0.0762
     15 C          -3.1040   -1.6750    0.0000 C.ar    1  LIG1        0.0063
     16 C          -3.1040   -0.6830    0.0000 C.ar    1  LIG1        0.0004
     17 C          -2.2290   -0.1830    0.0000 C.ar    1  LIG1        0.0074
     18 N          -0.4960    0.8000    0.0000 N.pl3   1  LIG1       -0.2371
     19 C          -1.3540    1.3080    0.0000 C.3     1  LIG1        0.1123
     20 C          -1.3540    2.2920    0.0000 C.3     1  LIG1        0.0251
@<TRIPOS>BOND
     1     1     2   ar
     2     1     6   ar
     3     1    10    1
     4     2     3   ar
     5     2    18    1
     6     3     4   ar
     7     3    17   ar
     8     4     5   ar
     9     4    14   ar
    10     5     6   ar
    11     6     7    1
    12     7     8    1
    13     8     9    1
    14     8    12    1
    15     8    13    1
    16     9    10    1
    17    10    11    2
    18    14    15   ar
    19    15    16   ar
    20    16    17   ar
    21    18    19    1
    22    19    20    1
