@<TRIPOS>MOLECULE
30064_ChemDiv_4905-1301
 37 39 0 0 0
SMALL
GASTEIGER
Energy = 0

@<TRIPOS>ATOM
      1 S           2.0960   -0.4420    0.0000 S.O2    1  LIG1        0.0662
      2 C           3.0710   -0.2170    0.0000 C.ar    1  LIG1        0.1556
      3 C           3.3630    0.7380    0.0000 C.ar    1  LIG1        0.0184
      4 C           4.3420    0.9540    0.0000 C.ar    1  LIG1       -0.0249
      5 C           5.0210    0.2170    0.0000 C.ar    1  LIG1       -0.0227
      6 C           4.7290   -0.7330    0.0000 C.ar    1  LIG1        0.0337
      7 C           3.7500   -0.9540    0.0000 C.ar    1  LIG1        0.1569
      8 O           3.4580   -1.9040    0.0000 O.3     1  LIG1       -0.4701
      9 C           4.1380   -2.6420    0.0000 C.3     1  LIG1        0.2525
     10 C           5.9960    0.4420    0.0000 C.3     1  LIG1        0.0308
     11 C           4.6380    1.9130    0.0000 C.3     1  LIG1        0.0221
     12 C           3.9580    2.6460    0.0000 C.3     1  LIG1        0.0047
     13 C           5.6130    2.1420    0.0000 C.3     1  LIG1        0.0047
     14 N           1.1250   -0.6630    0.0000 N.3     1  LIG1       -0.1539
     15 C           0.5000    0.1170    0.0000 C.3     1  LIG1        0.1149
     16 C          -0.5000    0.1170    0.0000 C.3     1  LIG1        0.1149
     17 N          -1.1250   -0.6630    0.0000 N.3     1  LIG1       -0.1539
     18 S          -2.1000   -0.4420    0.0000 S.O2    1  LIG1        0.0662
     19 C          -3.0750   -0.2170    0.0000 C.ar    1  LIG1        0.1556
     20 C          -3.3750    0.7380    0.0000 C.ar    1  LIG1        0.0184
     21 C          -4.3460    0.9540    0.0000 C.ar    1  LIG1       -0.0249
     22 C          -5.0250    0.2170    0.0000 C.ar    1  LIG1       -0.0227
     23 C          -4.7290   -0.7330    0.0000 C.ar    1  LIG1        0.0337
     24 C          -3.7500   -0.9540    0.0000 C.ar    1  LIG1        0.1569
     25 O          -3.4630   -1.9040    0.0000 O.3     1  LIG1       -0.4701
     26 C          -4.1420   -2.6420    0.0000 C.3     1  LIG1        0.2525
     27 C          -6.0000    0.4420    0.0000 C.3     1  LIG1        0.0308
     28 C          -4.6420    1.9130    0.0000 C.3     1  LIG1        0.0221
     29 C          -3.9540    2.6460    0.0000 C.3     1  LIG1        0.0047
     30 C          -5.6170    2.1420    0.0000 C.3     1  LIG1        0.0047
     31 O          -2.3250   -1.4170    0.0000 O.2     1  LIG1       -0.1527
     32 O          -1.8750    0.5250    0.0000 O.2     1  LIG1       -0.1527
     33 C          -0.9040   -1.6420    0.0000 C.3     1  LIG1        0.0973
     34 C          -0.0040   -2.0750    0.0000 C.3     1  LIG1        0.0383
     35 C           0.9000   -1.6420    0.0000 C.3     1  LIG1        0.0973
     36 O           1.8750    0.5250    0.0000 O.2     1  LIG1       -0.1527
     37 O           2.3210   -1.4170    0.0000 O.2     1  LIG1       -0.1527
@<TRIPOS>BOND
     1     1     2    1
     2     1    14    1
     3     1    36    2
     4     1    37    2
     5     2     3   ar
     6     2     7   ar
     7     3     4   ar
     8     4     5   ar
     9     4    11    1
    10     5     6   ar
    11     5    10    1
    12     6     7   ar
    13     7     8    1
    14     8     9    1
    15    11    12    1
    16    11    13    1
    17    14    15    1
    18    14    35    1
    19    15    16    1
    20    16    17    1
    21    17    18    1
    22    17    33    1
    23    18    19    1
    24    18    31    2
    25    18    32    2
    26    19    20   ar
    27    19    24   ar
    28    20    21   ar
    29    21    22   ar
    30    21    28    1
    31    22    23   ar
    32    22    27    1
    33    23    24   ar
    34    24    25    1
    35    25    26    1
    36    28    29    1
    37    28    30    1
    38    33    34    1
    39    34    35    1
