@<TRIPOS>MOLECULE
30066_ChemDiv_C301-6429
 24 27 0 0 0
SMALL
GASTEIGER
Energy = 0

@<TRIPOS>ATOM
      1 C          -0.7630   -0.9920    0.0000 C.ar    1  LIG1        0.1882
      2 C          -1.6380   -0.4830    0.0000 C.ar    1  LIG1        0.2201
      3 C          -2.5130   -0.9920    0.0000 C.ar    1  LIG1        0.0751
      4 C          -2.5130   -1.9960    0.0000 C.ar    1  LIG1        0.1519
      5 O          -1.6460   -2.4960    0.0000 O.2     1  LIG1       -0.4200
      6 C          -0.7630   -1.9960    0.0000 C.ar    1  LIG1        0.3645
      7 O           0.0960   -2.4960    0.0000 O.2     1  LIG1       -0.2429
      8 C          -3.3710   -2.4960    0.0000 C.ar    1  LIG1        0.0377
      9 C          -4.2330   -1.9960    0.0000 C.ar    1  LIG1        0.0031
     10 C          -4.2330   -0.9920    0.0000 C.ar    1  LIG1        0.0003
     11 C          -3.3710   -0.4920    0.0000 C.ar    1  LIG1        0.0063
     12 O          -1.6380    0.5170    0.0000 O.3     1  LIG1       -0.2848
     13 N           0.1040   -0.4960    0.0000 N.am    1  LIG1       -0.1656
     14 C           0.1040    0.5000    0.0000 C.2     1  LIG1        0.2694
     15 C           0.9670    1.0000    0.0000 C.ar    1  LIG1        0.0586
     16 C           1.8250    0.5000    0.0000 C.ar    1  LIG1        0.0448
     17 C           2.6960    1.0000    0.0000 C.ar    1  LIG1        0.1766
     18 C           2.7000    2.0000    0.0000 C.ar    1  LIG1        0.1764
     19 O           3.6500    2.2960    0.0000 O.3     1  LIG1       -0.4346
     20 C           4.2290    1.4920    0.0000 C.3     1  LIG1        0.4294
     21 O           3.6380    0.6880    0.0000 O.3     1  LIG1       -0.4346
     22 C           1.8250    2.5000    0.0000 C.ar    1  LIG1        0.0403
     23 C           0.9670    2.0000    0.0000 C.ar    1  LIG1        0.0079
     24 O          -0.7630    1.0080    0.0000 O.2     1  LIG1       -0.2680
@<TRIPOS>BOND
     1     1     2   ar
     2     1     6   ar
     3     1    13    1
     4     2     3   ar
     5     2    12    1
     6     3     4   ar
     7     3    11   ar
     8     4     5   ar
     9     4     8   ar
    10     5     6   ar
    11     6     7    2
    12     8     9   ar
    13     9    10   ar
    14    10    11   ar
    15    13    14   am
    16    14    15    1
    17    14    24    2
    18    15    16   ar
    19    15    23   ar
    20    16    17   ar
    21    17    18   ar
    22    17    21    1
    23    18    19    1
    24    18    22   ar
    25    19    20    1
    26    20    21    1
    27    22    23   ar
