@<TRIPOS>MOLECULE
30071_ChemDiv_3647-2425
 22 24 0 0 0
SMALL
GASTEIGER
Energy = 0

@<TRIPOS>ATOM
      1 C           0.7920   -0.1630    0.0000 C.ar    1  LIG1        0.0884
      2 C          -0.0710    0.3290    0.0000 C.ar    1  LIG1        0.0752
      3 C          -0.9330   -0.1630    0.0000 C.ar    1  LIG1        0.0849
      4 C          -0.9330   -1.1630    0.0000 C.ar    1  LIG1        0.2974
      5 N          -0.0710   -1.6630    0.0000 N.ar    1  LIG1        0.0710
      6 C           0.7920   -1.1630    0.0000 C.ar    1  LIG1        0.2735
      7 C           1.6500   -1.6630    0.0000 C.3     1  LIG1        0.1037
      8 C           2.5500   -1.1630    0.0000 C.3     1  LIG1        0.0131
      9 C           2.5500   -0.1630    0.0000 C.3     1  LIG1        0.0383
     10 C           1.6500    0.3290    0.0000 C.3     1  LIG1        0.1811
     11 O           1.6500    1.3420    0.0000 O.3     1  LIG1       -0.2180
     12 C           3.2920   -1.8460    0.0000 C.3     1  LIG1        0.0006
     13 C           3.4920   -0.8750    0.0000 C.3     1  LIG1        0.0006
     14 C          -1.7960   -1.6630    0.0000 C.ar    1  LIG1        0.0762
     15 C          -2.6790   -1.1630    0.0000 C.ar    1  LIG1        0.0063
     16 C          -2.6790   -0.1630    0.0000 C.ar    1  LIG1        0.0004
     17 C          -1.7960    0.3290    0.0000 C.ar    1  LIG1        0.0074
     18 N          -0.0710    1.3420    0.0000 N.pl3   1  LIG1       -0.2375
     19 C          -0.9330    1.8330    0.0000 C.3     1  LIG1        0.1122
     20 C          -1.7920    1.3420    0.0000 C.3     1  LIG1        0.0233
     21 C          -2.6380    1.8500    0.0000 C.3     1  LIG1        0.0018
     22 C          -3.4960    1.3630    0.0000 C.3     1  LIG1        0.0001
@<TRIPOS>BOND
     1     1     2   ar
     2     1     6   ar
     3     1    10    1
     4     2     3   ar
     5     2    18    1
     6     3     4   ar
     7     3    17   ar
     8     4     5   ar
     9     4    14   ar
    10     5     6   ar
    11     6     7    1
    12     7     8    1
    13     8     9    1
    14     8    12    1
    15     8    13    1
    16     9    10    1
    17    10    11    1
    18    14    15   ar
    19    15    16   ar
    20    16    17   ar
    21    18    19    1
    22    19    20    1
    23    20    21    1
    24    21    22    1
