@<TRIPOS>MOLECULE
30075_ChemDiv_5599-0676
 18 20 0 0 0
SMALL
GASTEIGER
Energy = 0

@<TRIPOS>ATOM
      1 C          -0.0250    0.2540    0.0000 C.ar    1  LIG1        0.0729
      2 C           0.8540   -0.2500    0.0000 C.ar    1  LIG1        0.0585
      3 C           0.8540   -1.2500    0.0000 C.ar    1  LIG1        0.2711
      4 N          -0.0250   -1.7500    0.0000 N.ar    1  LIG1        0.0709
      5 C          -0.8790   -1.2670    0.0000 C.ar    1  LIG1        0.2974
      6 C          -0.8790   -0.2500    0.0000 C.ar    1  LIG1        0.0848
      7 C          -1.7460    0.2380    0.0000 C.ar    1  LIG1        0.0074
      8 C          -2.6040   -0.2500    0.0000 C.ar    1  LIG1        0.0004
      9 C          -2.6040   -1.2500    0.0000 C.ar    1  LIG1        0.0063
     10 C          -1.7460   -1.7500    0.0000 C.ar    1  LIG1        0.0762
     11 C           1.7290   -1.7500    0.0000 C.3     1  LIG1        0.1036
     12 C           2.6000   -1.2500    0.0000 C.3     1  LIG1        0.0117
     13 C           2.5880   -0.2500    0.0000 C.3     1  LIG1        0.0055
     14 C           1.7040    0.2540    0.0000 C.3     1  LIG1        0.0336
     15 N          -0.0290    1.2460    0.0000 N.pl3   1  LIG1       -0.2347
     16 C           0.8250    1.7460    0.0000 C.3     1  LIG1        0.1476
     17 C           1.6920    1.2460    0.0000 C.3     1  LIG1        0.2053
     18 O           2.5670    1.7540    0.0000 O.3     1  LIG1       -0.2184
@<TRIPOS>BOND
     1     1     2   ar
     2     1     6   ar
     3     1    15    1
     4     2     3   ar
     5     2    14    1
     6     3     4   ar
     7     3    11    1
     8     4     5   ar
     9     5     6   ar
    10     5    10   ar
    11     6     7   ar
    12     7     8   ar
    13     8     9   ar
    14     9    10   ar
    15    11    12    1
    16    12    13    1
    17    13    14    1
    18    15    16    1
    19    16    17    1
    20    17    18    1
