@<TRIPOS>MOLECULE
30072_ChemDiv_C686-1309
 35 40 0 0 0
SMALL
GASTEIGER
Energy = 0

@<TRIPOS>ATOM
      1 C          -1.2170   -0.7380    0.0000 C.ar    1  LIG1        0.2155
      2 C          -1.5380    0.2210    0.0000 C.ar    1  LIG1        0.1153
      3 N          -0.9420    1.0380    0.0000 N.am    1  LIG1       -0.1759
      4 C          -1.3540    1.9500    0.0000 C.2     1  LIG1        0.2447
      5 C          -0.7670    2.7580    0.0000 C.3     1  LIG1        0.0708
      6 C           0.1540    2.8790    0.0000 C.3     1  LIG1        0.0087
      7 C           0.3670    3.8040    0.0000 C.3     1  LIG1        0.0005
      8 C          -0.4080    4.3000    0.0000 C.3     1  LIG1        0.0000
      9 C          -1.3420    4.2880    0.0000 C.3     1  LIG1        0.0005
     10 C          -1.5670    3.3170    0.0000 C.3     1  LIG1        0.0087
     11 C          -0.5080    4.9420    0.0000 C.3     1  LIG1        0.0000
     12 C           0.3000    4.3920    0.0000 C.3     1  LIG1        0.0005
     13 C           0.0710    3.3880    0.0000 C.3     1  LIG1        0.0087
     14 C           1.3080    4.4500    0.0000 C.3     1  LIG1        0.0000
     15 O          -2.3460    2.0580    0.0000 O.2     1  LIG1       -0.2730
     16 C          -2.5290    0.2170    0.0000 C.ar    1  LIG1        0.0530
     17 C          -2.8460   -0.7380    0.0000 C.ar    1  LIG1        0.1468
     18 O          -2.0380   -1.3210    0.0000 O.2     1  LIG1       -0.4475
     19 C          -3.8170   -0.9380    0.0000 C.ar    1  LIG1        0.0375
     20 C          -4.4880   -0.2040    0.0000 C.ar    1  LIG1        0.0031
     21 C          -4.1830    0.7540    0.0000 C.ar    1  LIG1        0.0002
     22 C          -3.2000    0.9630    0.0000 C.ar    1  LIG1        0.0044
     23 C          -0.2630   -1.0460    0.0000 C.2     1  LIG1        0.3051
     24 N          -0.0630   -2.0210    0.0000 N.am    1  LIG1       -0.1697
     25 C           0.8920   -2.3330    0.0000 C.ar    1  LIG1        0.1078
     26 C           1.0960   -3.2960    0.0000 C.ar    1  LIG1        0.1569
     27 C           2.0540   -3.6130    0.0000 C.ar    1  LIG1        0.0751
     28 C           2.7960   -2.9420    0.0000 C.ar    1  LIG1        0.1418
     29 C           2.5880   -1.9580    0.0000 C.ar    1  LIG1        0.0384
     30 C           1.6290   -1.6540    0.0000 C.ar    1  LIG1        0.0228
     31 O           3.7420   -3.2500    0.0000 O.3     1  LIG1       -0.4713
     32 C           4.4830   -2.5750    0.0000 C.3     1  LIG1        0.2525
     33 O           0.3670   -3.9670    0.0000 O.3     1  LIG1       -0.4700
     34 C           0.5750   -4.9420    0.0000 C.3     1  LIG1        0.2525
     35 O           0.4830   -0.3710    0.0000 O.2     1  LIG1       -0.2646
@<TRIPOS>BOND
     1     1     2   ar
     2     1    18   ar
     3     1    23    1
     4     2     3    1
     5     2    16   ar
     6     3     4   am
     7     4     5    1
     8     4    15    2
     9     5     6    1
    10     5    10    1
    11     5    13    1
    12     6     7    1
    13     7     8    1
    14     7    14    1
    15     8     9    1
    16     9    10    1
    17     9    11    1
    18    11    12    1
    19    12    13    1
    20    12    14    1
    21    16    17   ar
    22    16    22   ar
    23    17    18   ar
    24    17    19   ar
    25    19    20   ar
    26    20    21   ar
    27    21    22   ar
    28    23    24   am
    29    23    35    2
    30    24    25    1
    31    25    26   ar
    32    25    30   ar
    33    26    27   ar
    34    26    33    1
    35    27    28   ar
    36    28    29   ar
    37    28    31    1
    38    29    30   ar
    39    31    32    1
    40    33    34    1
