@<TRIPOS>MOLECULE
30076_ChemDiv_E957-1328
 36 39 0 0 0
SMALL
GASTEIGER
Energy = 0

@<TRIPOS>ATOM
      1 C          -1.5330    1.0540    0.0000 C.ar    1  LIG1        0.2137
      2 C          -0.6630    0.5540    0.0000 C.ar    1  LIG1        0.1153
      3 C          -0.8750   -0.4210    0.0000 C.ar    1  LIG1        0.0530
      4 C          -1.8670   -0.5250    0.0000 C.ar    1  LIG1        0.1468
      5 O          -2.2750    0.3880    0.0000 O.2     1  LIG1       -0.4475
      6 C          -2.2750   -1.4420    0.0000 C.ar    1  LIG1        0.0375
      7 C          -1.6880   -2.2500    0.0000 C.ar    1  LIG1        0.0031
      8 C          -0.6920   -2.1460    0.0000 C.ar    1  LIG1        0.0002
      9 C          -0.2880   -1.2330    0.0000 C.ar    1  LIG1        0.0044
     10 N           0.2460    0.9630    0.0000 N.am    1  LIG1       -0.1727
     11 C           1.1130    0.4630    0.0000 C.2     1  LIG1        0.2902
     12 O           1.9830    0.9630    0.0000 O.2     1  LIG1       -0.2689
     13 C           1.1130   -0.5380    0.0000 C.3     1  LIG1        0.2915
     14 O           0.2460   -1.0380    0.0000 O.3     1  LIG1       -0.4656
     15 C           0.2460   -2.0420    0.0000 C.ar    1  LIG1        0.1395
     16 C           1.1130   -2.5380    0.0000 C.ar    1  LIG1        0.0400
     17 C           1.1130   -3.5420    0.0000 C.ar    1  LIG1        0.0400
     18 C           0.2460   -4.0420    0.0000 C.ar    1  LIG1        0.1389
     19 C          -0.6170   -3.5420    0.0000 C.ar    1  LIG1        0.0400
     20 C          -0.6170   -2.5380    0.0000 C.ar    1  LIG1        0.0400
     21 O           0.2460   -5.0380    0.0000 O.3     1  LIG1       -0.4714
     22 C           1.1130   -5.5420    0.0000 C.3     1  LIG1        0.2525
     23 C          -1.6380    2.0540    0.0000 C.2     1  LIG1        0.2856
     24 N          -0.7670    2.5500    0.0000 N.am    1  LIG1       -0.2606
     25 C           0.0960    2.0540    0.0000 C.3     1  LIG1        0.1587
     26 C           0.9630    2.5500    0.0000 C.ar    1  LIG1        0.1430
     27 O           1.8790    2.1460    0.0000 O.2     1  LIG1       -0.4530
     28 C           2.5460    2.8880    0.0000 C.ar    1  LIG1        0.1792
     29 C           2.0460    3.7500    0.0000 C.ar    1  LIG1        0.0435
     30 C           1.0670    3.5460    0.0000 C.ar    1  LIG1        0.0379
     31 C          -0.7670    3.5500    0.0000 C.3     1  LIG1        0.1569
     32 C          -1.6380    4.0420    0.0000 C.3     1  LIG1        0.1611
     33 N          -1.6380    5.0420    0.0000 N.4     1  LIG1        0.3881
     34 C          -2.5000    5.5420    0.0000 C.3     1  LIG1        0.2026
     35 C          -0.7670    5.5420    0.0000 C.3     1  LIG1        0.2026
     36 O          -2.5500    2.4580    0.0000 O.2     1  LIG1       -0.2665
@<TRIPOS>BOND
     1     1     2   ar
     2     1     5   ar
     3     1    23    1
     4     2     3   ar
     5     2    10    1
     6     3     4   ar
     7     3     9   ar
     8     4     5   ar
     9     4     6   ar
    10     6     7   ar
    11     7     8   ar
    12     8     9   ar
    13    10    11   am
    14    11    12    2
    15    11    13    1
    16    13    14    1
    17    14    15    1
    18    15    16   ar
    19    15    20   ar
    20    16    17   ar
    21    17    18   ar
    22    18    19   ar
    23    18    21    1
    24    19    20   ar
    25    21    22    1
    26    23    24   am
    27    23    36    2
    28    24    25    1
    29    24    31    1
    30    25    26    1
    31    26    27   ar
    32    26    30   ar
    33    27    28   ar
    34    28    29   ar
    35    29    30   ar
    36    31    32    1
    37    32    33    1
    38    33    34    1
    39    33    35    1
