@<TRIPOS>MOLECULE
30079_ChemDiv_8017-2965
 16 18 0 0 0
SMALL
GASTEIGER
Energy = 0

@<TRIPOS>ATOM
      1 C           0.4290    0.0080    0.0000 C.ar    1  LIG1        0.0604
      2 C          -0.4330    0.5080    0.0000 C.ar    1  LIG1        0.0966
      3 C          -1.3000    0.0080    0.0000 C.ar    1  LIG1        0.0868
      4 C          -1.3000   -0.9960    0.0000 C.ar    1  LIG1        0.2974
      5 N          -0.4330   -1.4960    0.0000 N.ar    1  LIG1        0.0709
      6 C           0.4290   -0.9960    0.0000 C.ar    1  LIG1        0.2712
      7 C           1.2920   -1.4960    0.0000 C.3     1  LIG1        0.1036
      8 C           2.1630   -0.9960    0.0000 C.3     1  LIG1        0.0116
      9 C           2.1630    0.0080    0.0000 C.3     1  LIG1        0.0051
     10 C           1.2920    0.5080    0.0000 C.3     1  LIG1        0.0336
     11 C           3.0290    0.5080    0.0000 C.3     1  LIG1        0.0004
     12 C          -2.1710   -1.4960    0.0000 C.ar    1  LIG1        0.0762
     13 C          -3.0330   -0.9960    0.0000 C.ar    1  LIG1        0.0063
     14 C          -3.0330    0.0080    0.0000 C.ar    1  LIG1        0.0004
     15 C          -2.1710    0.5080    0.0000 C.ar    1  LIG1        0.0075
     16 N          -0.4330    1.5000    0.0000 N.pl3   1  LIG1       -0.1280
@<TRIPOS>BOND
     1     1     2   ar
     2     1     6   ar
     3     1    10    1
     4     2     3   ar
     5     2    16    1
     6     3     4   ar
     7     3    15   ar
     8     4     5   ar
     9     4    12   ar
    10     5     6   ar
    11     6     7    1
    12     7     8    1
    13     8     9    1
    14     9    10    1
    15     9    11    1
    16    12    13   ar
    17    13    14   ar
    18    14    15   ar
