@<TRIPOS>MOLECULE
30077_ChemDiv_8017-2854
 19 21 0 0 0
SMALL
GASTEIGER
Energy = 0

@<TRIPOS>ATOM
      1 C           0.0040    0.0080    0.0000 C.ar    1  LIG1        0.0604
      2 C          -0.8710    0.5040    0.0000 C.ar    1  LIG1        0.0966
      3 C          -1.7290    0.0080    0.0000 C.ar    1  LIG1        0.0868
      4 C          -1.7290   -0.9920    0.0000 C.ar    1  LIG1        0.2974
      5 N          -0.8710   -1.4920    0.0000 N.ar    1  LIG1        0.0709
      6 C           0.0040   -0.9920    0.0000 C.ar    1  LIG1        0.2712
      7 C           0.8670   -1.4920    0.0000 C.3     1  LIG1        0.1036
      8 C           1.7330   -0.9920    0.0000 C.3     1  LIG1        0.0116
      9 C           1.7330    0.0080    0.0000 C.3     1  LIG1        0.0051
     10 C           0.8670    0.5040    0.0000 C.3     1  LIG1        0.0336
     11 C           2.5920    0.5040    0.0000 C.3     1  LIG1        0.0003
     12 C           3.0920   -0.3670    0.0000 C.3     1  LIG1        0.0000
     13 C           3.4630    1.0040    0.0000 C.3     1  LIG1        0.0000
     14 C           2.0920    1.3670    0.0000 C.3     1  LIG1        0.0000
     15 C          -2.5960   -1.4920    0.0000 C.ar    1  LIG1        0.0762
     16 C          -3.4670   -0.9920    0.0000 C.ar    1  LIG1        0.0063
     17 C          -3.4670    0.0080    0.0000 C.ar    1  LIG1        0.0004
     18 C          -2.5960    0.5040    0.0000 C.ar    1  LIG1        0.0075
     19 N          -0.8710    1.4960    0.0000 N.pl3   1  LIG1       -0.1280
@<TRIPOS>BOND
     1     1     2   ar
     2     1     6   ar
     3     1    10    1
     4     2     3   ar
     5     2    19    1
     6     3     4   ar
     7     3    18   ar
     8     4     5   ar
     9     4    15   ar
    10     5     6   ar
    11     6     7    1
    12     7     8    1
    13     8     9    1
    14     9    10    1
    15     9    11    1
    16    11    12    1
    17    11    13    1
    18    11    14    1
    19    15    16   ar
    20    16    17   ar
    21    17    18   ar
