@<TRIPOS>MOLECULE
30073_ChemDiv_5599-0674
 19 21 0 0 0
SMALL
GASTEIGER
Energy = 0

@<TRIPOS>ATOM
      1 C          -0.4330    0.2540    0.0000 C.ar    1  LIG1        0.0728
      2 C           0.4380   -0.2380    0.0000 C.ar    1  LIG1        0.0585
      3 C           0.4380   -1.2630    0.0000 C.ar    1  LIG1        0.2711
      4 N          -0.4170   -1.7460    0.0000 N.ar    1  LIG1        0.0709
      5 C          -1.2920   -1.2630    0.0000 C.ar    1  LIG1        0.2974
      6 C          -1.3080   -0.2500    0.0000 C.ar    1  LIG1        0.0848
      7 C          -2.1710    0.2500    0.0000 C.ar    1  LIG1        0.0074
      8 C          -3.0040   -0.2500    0.0000 C.ar    1  LIG1        0.0004
      9 C          -3.0040   -1.2630    0.0000 C.ar    1  LIG1        0.0063
     10 C          -2.1710   -1.7460    0.0000 C.ar    1  LIG1        0.0762
     11 C           1.3040   -1.7460    0.0000 C.3     1  LIG1        0.1036
     12 C           2.1920   -1.2460    0.0000 C.3     1  LIG1        0.0117
     13 C           2.1920   -0.2380    0.0000 C.3     1  LIG1        0.0055
     14 C           1.2880    0.2710    0.0000 C.3     1  LIG1        0.0336
     15 N          -0.4420    1.2500    0.0000 N.pl3   1  LIG1       -0.2374
     16 C           0.4330    1.7500    0.0000 C.3     1  LIG1        0.1149
     17 C           1.2880    1.2500    0.0000 C.3     1  LIG1        0.0588
     18 C           2.1380    1.7500    0.0000 C.3     1  LIG1        0.1839
     19 O           3.0000    1.2670    0.0000 O.3     1  LIG1       -0.2204
@<TRIPOS>BOND
     1     1     2   ar
     2     1     6   ar
     3     1    15    1
     4     2     3   ar
     5     2    14    1
     6     3     4   ar
     7     3    11    1
     8     4     5   ar
     9     5     6   ar
    10     5    10   ar
    11     6     7   ar
    12     7     8   ar
    13     8     9   ar
    14     9    10   ar
    15    11    12    1
    16    12    13    1
    17    13    14    1
    18    15    16    1
    19    16    17    1
    20    17    18    1
    21    18    19    1
