@<TRIPOS>MOLECULE
30074_ChemDiv_D038-0518
 34 38 0 0 0
SMALL
GASTEIGER
Energy = 0

@<TRIPOS>ATOM
      1 C           0.7460    0.7000    0.0000 C.ar    1  LIG1        0.2136
      2 C           1.3420    1.5080    0.0000 C.ar    1  LIG1        0.0929
      3 C           0.7540    2.3250    0.0000 C.ar    1  LIG1        0.0512
      4 C          -0.2000    2.0210    0.0000 C.ar    1  LIG1        0.1468
      5 O          -0.2040    1.0170    0.0000 O.2     1  LIG1       -0.4475
      6 C          -0.9380    2.6880    0.0000 C.ar    1  LIG1        0.0375
      7 C          -0.7250    3.6670    0.0000 C.ar    1  LIG1        0.0031
      8 C           0.2250    3.9670    0.0000 C.ar    1  LIG1        0.0002
      9 C           0.9630    3.2880    0.0000 C.ar    1  LIG1        0.0044
     10 N           2.3460    1.5080    0.0000 N.am    1  LIG1       -0.2811
     11 C           2.8460    0.6330    0.0000 C.2     1  LIG1        0.2307
     12 C           2.3380   -0.2250    0.0000 C.3     1  LIG1        0.1149
     13 C           2.8330   -1.0960    0.0000 C.ar    1  LIG1        0.0275
     14 C           2.4290   -2.0080    0.0000 C.ar    1  LIG1        0.0338
     15 C           3.1670   -2.6880    0.0000 C.ar    1  LIG1        0.1451
     16 O           4.0420   -2.1880    0.0000 O.2     1  LIG1       -0.4507
     17 C           3.8290   -1.2080    0.0000 C.ar    1  LIG1        0.1757
     18 C           2.9670   -3.6540    0.0000 C.ar    1  LIG1        0.0372
     19 C           2.0210   -3.9630    0.0000 C.ar    1  LIG1       -0.0011
     20 C           1.2670   -3.3000    0.0000 C.ar    1  LIG1       -0.0217
     21 C           1.4750   -2.3250    0.0000 C.ar    1  LIG1       -0.0014
     22 C           0.3170   -3.6080    0.0000 C.3     1  LIG1        0.0310
     23 O           3.8460    0.6330    0.0000 O.2     1  LIG1       -0.2744
     24 C           0.3000   -0.1920    0.0000 C.2     1  LIG1        0.3049
     25 N          -0.6960   -0.2580    0.0000 N.am    1  LIG1       -0.1728
     26 C          -1.4040   -0.9630    0.0000 C.ar    1  LIG1        0.0735
     27 C          -2.3710   -0.6920    0.0000 C.ar    1  LIG1        0.0124
     28 C          -3.0790   -1.3880    0.0000 C.ar    1  LIG1       -0.0206
     29 C          -2.8290   -2.3540    0.0000 C.ar    1  LIG1       -0.0042
     30 C          -1.8630   -2.6250    0.0000 C.ar    1  LIG1        0.0010
     31 C          -1.1540   -1.9170    0.0000 C.ar    1  LIG1        0.0166
     32 C          -4.0460   -1.1170    0.0000 C.3     1  LIG1        0.0311
     33 O           0.6330   -1.1330    0.0000 O.2     1  LIG1       -0.2646
     34 H           2.8460    2.3710    0.0000 H       1  LIG1        0.1550
@<TRIPOS>BOND
     1     1     2   ar
     2     1     5   ar
     3     1    24    1
     4     2     3   ar
     5     2    10    1
     6     3     4   ar
     7     3     9   ar
     8     4     5   ar
     9     4     6   ar
    10     6     7   ar
    11     7     8   ar
    12     8     9   ar
    13    10    11   am
    14    10    34    1
    15    11    12    1
    16    11    23    2
    17    12    13    1
    18    13    14   ar
    19    13    17   ar
    20    14    15   ar
    21    14    21   ar
    22    15    16   ar
    23    15    18   ar
    24    16    17   ar
    25    18    19   ar
    26    19    20   ar
    27    20    21   ar
    28    20    22    1
    29    24    25   am
    30    24    33    2
    31    25    26    1
    32    26    27   ar
    33    26    31   ar
    34    27    28   ar
    35    28    29   ar
    36    28    32    1
    37    29    30   ar
    38    30    31   ar
