@<TRIPOS>MOLECULE
30070_ChemDiv_C686-0873
 36 39 0 0 0
SMALL
GASTEIGER
Energy = 0

@<TRIPOS>ATOM
      1 C          -1.4290   -1.9290    0.0000 C.ar    1  LIG1        0.2155
      2 C          -1.7460   -0.9710    0.0000 C.ar    1  LIG1        0.1156
      3 N          -1.1540   -0.1540    0.0000 N.am    1  LIG1       -0.1721
      4 C          -1.5630    0.7580    0.0000 C.2     1  LIG1        0.2692
      5 C          -0.9750    1.5630    0.0000 C.ar    1  LIG1        0.0586
      6 C           0.0250    1.4540    0.0000 C.ar    1  LIG1        0.0446
      7 C           0.6080    2.2670    0.0000 C.ar    1  LIG1        0.1723
      8 C           0.1960    3.1830    0.0000 C.ar    1  LIG1        0.1722
      9 C          -0.8040    3.2750    0.0000 C.ar    1  LIG1        0.0402
     10 C          -1.3880    2.4670    0.0000 C.ar    1  LIG1        0.0079
     11 O           0.7750    3.9880    0.0000 O.3     1  LIG1       -0.4724
     12 C           0.3670    4.9040    0.0000 C.3     1  LIG1        0.2057
     13 C           0.9420    5.7170    0.0000 C.3     1  LIG1        0.0512
     14 O           1.6040    2.1630    0.0000 O.3     1  LIG1       -0.4724
     15 C           2.1880    2.9830    0.0000 C.3     1  LIG1        0.2057
     16 C           3.1880    2.8750    0.0000 C.3     1  LIG1        0.0512
     17 O          -2.5580    0.8630    0.0000 O.2     1  LIG1       -0.2680
     18 C          -2.7380   -0.9750    0.0000 C.ar    1  LIG1        0.0530
     19 C          -3.0540   -1.9290    0.0000 C.ar    1  LIG1        0.1468
     20 O          -2.2500   -2.5080    0.0000 O.2     1  LIG1       -0.4475
     21 C          -4.0250   -2.1290    0.0000 C.ar    1  LIG1        0.0375
     22 C          -4.6960   -1.3960    0.0000 C.ar    1  LIG1        0.0031
     23 C          -4.3920   -0.4380    0.0000 C.ar    1  LIG1        0.0002
     24 C          -3.4080   -0.2290    0.0000 C.ar    1  LIG1        0.0044
     25 C          -0.4750   -2.2380    0.0000 C.2     1  LIG1        0.3050
     26 N          -0.2750   -3.2080    0.0000 N.am    1  LIG1       -0.1728
     27 C           0.6790   -3.5210    0.0000 C.ar    1  LIG1        0.0740
     28 C           1.4130   -2.8460    0.0000 C.ar    1  LIG1        0.0197
     29 C           2.3710   -3.1460    0.0000 C.ar    1  LIG1        0.0382
     30 C           2.5790   -4.1290    0.0000 C.ar    1  LIG1        0.1386
     31 C           1.8380   -4.8000    0.0000 C.ar    1  LIG1        0.0382
     32 C           0.8830   -4.4830    0.0000 C.ar    1  LIG1        0.0197
     33 O           3.5250   -4.4380    0.0000 O.3     1  LIG1       -0.4755
     34 C           3.7380   -5.4130    0.0000 C.3     1  LIG1        0.2055
     35 C           4.6920   -5.7170    0.0000 C.3     1  LIG1        0.0512
     36 O           0.2710   -1.5630    0.0000 O.2     1  LIG1       -0.2646
@<TRIPOS>BOND
     1     1     2   ar
     2     1    20   ar
     3     1    25    1
     4     2     3    1
     5     2    18   ar
     6     3     4   am
     7     4     5    1
     8     4    17    2
     9     5     6   ar
    10     5    10   ar
    11     6     7   ar
    12     7     8   ar
    13     7    14    1
    14     8     9   ar
    15     8    11    1
    16     9    10   ar
    17    11    12    1
    18    12    13    1
    19    14    15    1
    20    15    16    1
    21    18    19   ar
    22    18    24   ar
    23    19    20   ar
    24    19    21   ar
    25    21    22   ar
    26    22    23   ar
    27    23    24   ar
    28    25    26   am
    29    25    36    2
    30    26    27    1
    31    27    28   ar
    32    27    32   ar
    33    28    29   ar
    34    29    30   ar
    35    30    31   ar
    36    30    33    1
    37    31    32   ar
    38    33    34    1
    39    34    35    1
