@<TRIPOS>MOLECULE
30078_ChemDiv_3701-0165
 28 32 0 0 0
SMALL
GASTEIGER
Energy = 0

@<TRIPOS>ATOM
      1 C          -0.9460   -0.2630    0.0000 C.2     1  LIG1        0.2337
      2 N          -0.1830    0.1960    0.0000 N.am    1  LIG1       -0.2676
      3 C          -0.2330    1.0710    0.0000 C.3     1  LIG1        0.1565
      4 C           0.5500    1.5670    0.0000 C.3     1  LIG1        0.1602
      5 N           1.3540    1.1290    0.0000 N.4     1  LIG1        0.3757
      6 C           2.1420    1.5670    0.0000 C.3     1  LIG1        0.0868
      7 C           3.1670    1.5670    0.0000 C.3     1  LIG1        0.0512
      8 C           2.1790    2.2080    0.0000 C.3     1  LIG1        0.0059
      9 C           2.0670    3.3250    0.0000 C.3     1  LIG1        0.0059
     10 C           1.6290    2.4460    0.0000 C.3     1  LIG1        0.0567
     11 C           3.0580    3.3790    0.0000 C.3     1  LIG1        0.0004
     12 C           3.6040    2.5000    0.0000 C.3     1  LIG1        0.0057
     13 C           1.4080    0.2460    0.0000 C.3     1  LIG1        0.1602
     14 C           0.6420   -0.2460    0.0000 C.3     1  LIG1        0.1565
     15 C          -0.9460   -1.2880    0.0000 C.3     1  LIG1        0.1211
     16 C          -0.0750   -1.7830    0.0000 C.ar    1  LIG1       -0.0098
     17 C           0.8040   -1.2880    0.0000 C.ar    1  LIG1       -0.0035
     18 C           1.6830   -1.8000    0.0000 C.ar    1  LIG1       -0.0003
     19 C           1.6830   -2.8250    0.0000 C.ar    1  LIG1       -0.0000
     20 C           0.8040   -3.3250    0.0000 C.ar    1  LIG1       -0.0003
     21 C          -0.0750   -2.8250    0.0000 C.ar    1  LIG1       -0.0035
     22 C          -1.8250   -1.8000    0.0000 C.ar    1  LIG1       -0.0098
     23 C          -1.8250   -2.8250    0.0000 C.ar    1  LIG1       -0.0035
     24 C          -2.7080   -3.3750    0.0000 C.ar    1  LIG1       -0.0003
     25 C          -3.6080   -2.8460    0.0000 C.ar    1  LIG1       -0.0000
     26 C          -3.6080   -1.8380    0.0000 C.ar    1  LIG1       -0.0003
     27 C          -2.7080   -1.2880    0.0000 C.ar    1  LIG1       -0.0035
     28 O          -1.8290    0.2500    0.0000 O.2     1  LIG1       -0.2742
@<TRIPOS>BOND
     1     1     2   am
     2     1    15    1
     3     1    28    2
     4     2     3    1
     5     2    14    1
     6     3     4    1
     7     4     5    1
     8     5     6    1
     9     5    13    1
    10     6     7    1
    11     6    10    1
    12     7     8    1
    13     7    12    1
    14     8     9    1
    15     9    10    1
    16     9    11    1
    17    11    12    1
    18    13    14    1
    19    15    16    1
    20    15    22    1
    21    16    17   ar
    22    16    21   ar
    23    17    18   ar
    24    18    19   ar
    25    19    20   ar
    26    20    21   ar
    27    22    23   ar
    28    22    27   ar
    29    23    24   ar
    30    24    25   ar
    31    25    26   ar
    32    26    27   ar
