@<TRIPOS>MOLECULE
30084_ChemDiv_4905-1305
 31 33 0 0 0
SMALL
GASTEIGER
Energy = 0

@<TRIPOS>ATOM
      1 S           2.1000   -0.1040    0.0000 S.O2    1  LIG1        0.0633
      2 N           1.1210   -0.3290    0.0000 N.3     1  LIG1       -0.1540
      3 C           0.4960    0.4580    0.0000 C.3     1  LIG1        0.1149
      4 C          -0.5040    0.4580    0.0000 C.3     1  LIG1        0.1149
      5 N          -1.1290   -0.3290    0.0000 N.3     1  LIG1       -0.1540
      6 S          -2.1000   -0.1040    0.0000 S.O2    1  LIG1        0.0633
      7 C          -3.0750    0.1170    0.0000 C.ar    1  LIG1        0.1222
      8 C          -3.7540   -0.6130    0.0000 C.ar    1  LIG1        0.0196
      9 C          -4.7290   -0.3920    0.0000 C.ar    1  LIG1       -0.0029
     10 C          -5.0210    0.5580    0.0000 C.ar    1  LIG1       -0.0224
     11 C          -4.3420    1.2880    0.0000 C.ar    1  LIG1       -0.0029
     12 C          -3.3710    1.0750    0.0000 C.ar    1  LIG1        0.0196
     13 C          -6.0000    0.7880    0.0000 C.3     1  LIG1        0.0224
     14 C          -6.6790    0.0500    0.0000 C.3     1  LIG1        0.0047
     15 C          -6.2960    1.7380    0.0000 C.3     1  LIG1        0.0047
     16 O          -2.3250   -1.0830    0.0000 O.2     1  LIG1       -0.1528
     17 O          -1.8790    0.8710    0.0000 O.2     1  LIG1       -0.1528
     18 C          -0.9000   -1.3080    0.0000 C.3     1  LIG1        0.0973
     19 C          -0.0040   -1.7330    0.0000 C.3     1  LIG1        0.0383
     20 C           0.8960   -1.3080    0.0000 C.3     1  LIG1        0.0973
     21 C           3.0670    0.1170    0.0000 C.ar    1  LIG1        0.1222
     22 C           3.7420   -0.6130    0.0000 C.ar    1  LIG1        0.0196
     23 C           4.7290   -0.3920    0.0000 C.ar    1  LIG1       -0.0029
     24 C           5.0250    0.5580    0.0000 C.ar    1  LIG1       -0.0224
     25 C           4.3460    1.2880    0.0000 C.ar    1  LIG1       -0.0029
     26 C           3.3670    1.0750    0.0000 C.ar    1  LIG1        0.0196
     27 C           6.0000    0.7880    0.0000 C.3     1  LIG1        0.0224
     28 C           6.6790    0.0500    0.0000 C.3     1  LIG1        0.0047
     29 C           6.2960    1.7380    0.0000 C.3     1  LIG1        0.0047
     30 O           1.8710    0.8710    0.0000 O.2     1  LIG1       -0.1528
     31 O           2.3170   -1.0830    0.0000 O.2     1  LIG1       -0.1528
@<TRIPOS>BOND
     1     1     2    1
     2     1    21    1
     3     1    30    2
     4     1    31    2
     5     2     3    1
     6     2    20    1
     7     3     4    1
     8     4     5    1
     9     5     6    1
    10     5    18    1
    11     6     7    1
    12     6    16    2
    13     6    17    2
    14     7     8   ar
    15     7    12   ar
    16     8     9   ar
    17     9    10   ar
    18    10    11   ar
    19    10    13    1
    20    11    12   ar
    21    13    14    1
    22    13    15    1
    23    18    19    1
    24    19    20    1
    25    21    22   ar
    26    21    26   ar
    27    22    23   ar
    28    23    24   ar
    29    24    25   ar
    30    24    27    1
    31    25    26   ar
    32    27    28    1
    33    27    29    1
