@<TRIPOS>MOLECULE
30081_ChemDiv_3570-0746
 23 25 0 0 0
SMALL
GASTEIGER
Energy = 0

@<TRIPOS>ATOM
      1 C           0.4040   -0.2830    0.0000 C.ar    1  LIG1        0.1131
      2 C           0.9830   -1.0920    0.0000 C.ar    1  LIG1        0.1515
      3 O           0.4040   -1.8960    0.0000 O.2     1  LIG1       -0.4533
      4 C          -0.5420   -1.5790    0.0000 C.ar    1  LIG1        0.1462
      5 C          -0.5420   -0.5830    0.0000 C.ar    1  LIG1        0.0468
      6 C          -1.4080   -0.0750    0.0000 C.ar    1  LIG1        0.0408
      7 C          -2.2830   -0.5830    0.0000 C.ar    1  LIG1        0.1450
      8 C          -2.2830   -1.5790    0.0000 C.ar    1  LIG1        0.0715
      9 C          -1.4080   -2.0630    0.0000 C.ar    1  LIG1        0.0472
     10 BR         -3.1500   -2.0630    0.0000 Br      1  LIG1       -0.0457
     11 O          -3.1500   -0.0750    0.0000 O.3     1  LIG1       -0.4709
     12 C          -4.0040   -0.5830    0.0000 C.3     1  LIG1        0.2525
     13 C           1.9960   -1.0920    0.0000 C.ar    1  LIG1        0.0348
     14 C           2.4960   -1.9580    0.0000 C.ar    1  LIG1        0.0030
     15 C           3.4880   -1.9670    0.0000 C.ar    1  LIG1        0.0001
     16 C           4.0000   -1.1080    0.0000 C.ar    1  LIG1        0.0000
     17 C           3.4880   -0.2250    0.0000 C.ar    1  LIG1        0.0001
     18 C           2.4960   -0.2250    0.0000 C.ar    1  LIG1        0.0030
     19 C           0.7210    0.6880    0.0000 C.2     1  LIG1        0.3443
     20 O           0.0420    1.4210    0.0000 O.2     1  LIG1       -0.2448
     21 O           1.6920    0.9000    0.0000 O.3     1  LIG1       -0.4454
     22 C           2.0130    1.8460    0.0000 C.3     1  LIG1        0.2089
     23 C           2.9830    2.0670    0.0000 C.3     1  LIG1        0.0513
@<TRIPOS>BOND
     1     1     2   ar
     2     1     5   ar
     3     1    19    1
     4     2     3   ar
     5     2    13    1
     6     3     4   ar
     7     4     5   ar
     8     4     9   ar
     9     5     6   ar
    10     6     7   ar
    11     7     8   ar
    12     7    11    1
    13     8     9   ar
    14     8    10    1
    15    11    12    1
    16    13    14   ar
    17    13    18   ar
    18    14    15   ar
    19    15    16   ar
    20    16    17   ar
    21    17    18   ar
    22    19    20    2
    23    19    21    1
    24    21    22    1
    25    22    23    1
