@<TRIPOS>MOLECULE
30086_ChemDiv_6008-0388
 25 27 0 0 0
SMALL
GASTEIGER
Energy = 0

@<TRIPOS>ATOM
      1 S           2.1790    0.1130    0.0000 S.O2    1  LIG1        0.0633
      2 N           1.2460   -0.2540    0.0000 N.3     1  LIG1       -0.1540
      3 C           0.5130    0.4040    0.0000 C.3     1  LIG1        0.1149
      4 C          -0.4830    0.2630    0.0000 C.3     1  LIG1        0.1149
      5 N          -0.9920   -0.5960    0.0000 N.3     1  LIG1       -0.1540
      6 S          -1.9920   -0.5290    0.0000 S.O2    1  LIG1        0.0633
      7 O          -2.0710   -1.5210    0.0000 O.2     1  LIG1       -0.1528
      8 O          -1.9250    0.4710    0.0000 O.2     1  LIG1       -0.1528
      9 C          -3.0000   -0.4500    0.0000 C.ar    1  LIG1        0.1222
     10 C          -3.5580   -1.2790    0.0000 C.ar    1  LIG1        0.0199
     11 C          -4.5540   -1.2000    0.0000 C.ar    1  LIG1        0.0014
     12 C          -4.9880   -0.2920    0.0000 C.ar    1  LIG1        0.0001
     13 C          -4.4210    0.5210    0.0000 C.ar    1  LIG1        0.0014
     14 C          -3.4290    0.4420    0.0000 C.ar    1  LIG1        0.0199
     15 C          -0.6290   -1.5210    0.0000 C.3     1  LIG1        0.0973
     16 C           0.3420   -1.8250    0.0000 C.3     1  LIG1        0.0383
     17 C           1.1670   -1.2630    0.0000 C.3     1  LIG1        0.0973
     18 O           2.5420   -0.8250    0.0000 O.2     1  LIG1       -0.1528
     19 O           1.8130    1.0250    0.0000 O.2     1  LIG1       -0.1528
     20 C           3.1080    0.4710    0.0000 C.ar    1  LIG1        0.1222
     21 C           3.2710    1.4540    0.0000 C.ar    1  LIG1        0.0199
     22 C           4.2040    1.8290    0.0000 C.ar    1  LIG1        0.0014
     23 C           4.9880    1.1960    0.0000 C.ar    1  LIG1        0.0001
     24 C           4.8330    0.2080    0.0000 C.ar    1  LIG1        0.0014
     25 C           3.9000   -0.1460    0.0000 C.ar    1  LIG1        0.0199
@<TRIPOS>BOND
     1     1     2    1
     2     1    18    2
     3     1    19    2
     4     1    20    1
     5     2     3    1
     6     2    17    1
     7     3     4    1
     8     4     5    1
     9     5     6    1
    10     5    15    1
    11     6     7    2
    12     6     8    2
    13     6     9    1
    14     9    10   ar
    15     9    14   ar
    16    10    11   ar
    17    11    12   ar
    18    12    13   ar
    19    13    14   ar
    20    15    16    1
    21    16    17    1
    22    20    21   ar
    23    20    25   ar
    24    21    22   ar
    25    22    23   ar
    26    23    24   ar
    27    24    25   ar
