@<TRIPOS>MOLECULE
30082_ChemDiv_4905-1303
 31 33 0 0 0
SMALL
GASTEIGER
Energy = 0

@<TRIPOS>ATOM
      1 S           2.0920    0.1170    0.0000 S.O2    1  LIG1        0.0633
      2 N           1.1170   -0.1080    0.0000 N.3     1  LIG1       -0.1540
      3 C           0.4960    0.6790    0.0000 C.3     1  LIG1        0.1149
      4 C          -0.5040    0.6790    0.0000 C.3     1  LIG1        0.1149
      5 N          -1.1290   -0.1080    0.0000 N.3     1  LIG1       -0.1540
      6 S          -2.1040    0.1170    0.0000 S.O2    1  LIG1        0.0633
      7 C          -3.0750    0.3420    0.0000 C.ar    1  LIG1        0.1224
      8 C          -3.7580   -0.3920    0.0000 C.ar    1  LIG1        0.0230
      9 C          -4.7330   -0.1710    0.0000 C.ar    1  LIG1        0.0383
     10 C          -5.0290    0.7790    0.0000 C.ar    1  LIG1        0.1386
     11 C          -4.3500    1.5170    0.0000 C.ar    1  LIG1        0.0383
     12 C          -3.3750    1.2920    0.0000 C.ar    1  LIG1        0.0230
     13 O          -6.0040    1.0080    0.0000 O.3     1  LIG1       -0.4755
     14 C          -6.6830    0.2710    0.0000 C.3     1  LIG1        0.2055
     15 C          -7.6580    0.4920    0.0000 C.3     1  LIG1        0.0512
     16 O          -2.3250   -0.8580    0.0000 O.2     1  LIG1       -0.1528
     17 O          -1.8790    1.0920    0.0000 O.2     1  LIG1       -0.1528
     18 C          -0.9040   -1.0790    0.0000 C.3     1  LIG1        0.0973
     19 C          -0.0040   -1.5130    0.0000 C.3     1  LIG1        0.0383
     20 C           0.8920   -1.0790    0.0000 C.3     1  LIG1        0.0973
     21 C           3.0630    0.3420    0.0000 C.ar    1  LIG1        0.1224
     22 C           3.3630    1.2920    0.0000 C.ar    1  LIG1        0.0230
     23 C           4.3290    1.5170    0.0000 C.ar    1  LIG1        0.0383
     24 C           5.0080    0.7790    0.0000 C.ar    1  LIG1        0.1386
     25 C           4.7210   -0.1710    0.0000 C.ar    1  LIG1        0.0383
     26 C           3.7460   -0.3920    0.0000 C.ar    1  LIG1        0.0230
     27 O           5.9960    1.0080    0.0000 O.3     1  LIG1       -0.4755
     28 C           6.6710    0.2710    0.0000 C.3     1  LIG1        0.2055
     29 C           7.6580    0.4920    0.0000 C.3     1  LIG1        0.0512
     30 O           1.8670    1.0920    0.0000 O.2     1  LIG1       -0.1528
     31 O           2.3130   -0.8580    0.0000 O.2     1  LIG1       -0.1528
@<TRIPOS>BOND
     1     1     2    1
     2     1    21    1
     3     1    30    2
     4     1    31    2
     5     2     3    1
     6     2    20    1
     7     3     4    1
     8     4     5    1
     9     5     6    1
    10     5    18    1
    11     6     7    1
    12     6    16    2
    13     6    17    2
    14     7     8   ar
    15     7    12   ar
    16     8     9   ar
    17     9    10   ar
    18    10    11   ar
    19    10    13    1
    20    11    12   ar
    21    13    14    1
    22    14    15    1
    23    18    19    1
    24    19    20    1
    25    21    22   ar
    26    21    26   ar
    27    22    23   ar
    28    23    24   ar
    29    24    25   ar
    30    24    27    1
    31    25    26   ar
    32    27    28    1
    33    28    29    1
