@<TRIPOS>MOLECULE
30080_ChemDiv_3701-0334
 30 33 0 0 0
SMALL
GASTEIGER
Energy = 0

@<TRIPOS>ATOM
      1 S          -3.0330   -1.5290    0.0000 S.O2    1  LIG1        0.0637
      2 N          -2.1630   -1.0210    0.0000 N.3     1  LIG1       -0.1433
      3 C          -2.1630   -0.0040    0.0000 C.3     1  LIG1        0.1584
      4 C          -1.2960    0.4830    0.0000 C.3     1  LIG1        0.1578
      5 N          -0.4330   -0.0040    0.0000 N.4     1  LIG1        0.3756
      6 C           0.4290    0.4830    0.0000 C.3     1  LIG1        0.0991
      7 C           0.4290    1.4920    0.0000 C.3     1  LIG1        0.1194
      8 C           1.2920    1.9750    0.0000 C.3     1  LIG1        0.1451
      9 N           2.1630    1.4920    0.0000 N.4     1  LIG1        0.3810
     10 C           2.1630    0.4830    0.0000 C.3     1  LIG1        0.1451
     11 C           1.2920   -0.0040    0.0000 C.3     1  LIG1        0.1194
     12 C           3.0290    2.0000    0.0000 C.3     1  LIG1        0.1662
     13 C           3.0290    2.9880    0.0000 C.ar    1  LIG1        0.0344
     14 C           2.1630    3.4960    0.0000 C.ar    1  LIG1        0.0014
     15 C           2.1630    4.5000    0.0000 C.ar    1  LIG1       -0.0001
     16 C           3.0290    4.9920    0.0000 C.ar    1  LIG1       -0.0000
     17 C           3.8920    4.5000    0.0000 C.ar    1  LIG1       -0.0001
     18 C           3.8920    3.4960    0.0000 C.ar    1  LIG1        0.0014
     19 C          -0.4330   -1.0210    0.0000 C.3     1  LIG1        0.1578
     20 C          -1.2960   -1.5080    0.0000 C.3     1  LIG1        0.1584
     21 C          -2.5250   -2.3920    0.0000 C.ar    1  LIG1        0.1224
     22 C          -3.0330   -3.2580    0.0000 C.ar    1  LIG1        0.0230
     23 C          -2.5250   -4.1210    0.0000 C.ar    1  LIG1        0.0383
     24 C          -1.5080   -4.1210    0.0000 C.ar    1  LIG1        0.1388
     25 C          -1.0290   -3.2580    0.0000 C.ar    1  LIG1        0.0383
     26 C          -1.5080   -2.3920    0.0000 C.ar    1  LIG1        0.0230
     27 O          -1.0040   -4.9920    0.0000 O.3     1  LIG1       -0.4714
     28 C          -0.0130   -4.9920    0.0000 C.3     1  LIG1        0.2525
     29 O          -3.8960   -2.0380    0.0000 O.2     1  LIG1       -0.1528
     30 O          -3.5330   -0.6630    0.0000 O.2     1  LIG1       -0.1528
@<TRIPOS>BOND
     1     1     2    1
     2     1    21    1
     3     1    29    2
     4     1    30    2
     5     2     3    1
     6     2    20    1
     7     3     4    1
     8     4     5    1
     9     5     6    1
    10     5    19    1
    11     6     7    1
    12     6    11    1
    13     7     8    1
    14     8     9    1
    15     9    10    1
    16     9    12    1
    17    10    11    1
    18    12    13    1
    19    13    14   ar
    20    13    18   ar
    21    14    15   ar
    22    15    16   ar
    23    16    17   ar
    24    17    18   ar
    25    19    20    1
    26    21    22   ar
    27    21    26   ar
    28    22    23   ar
    29    23    24   ar
    30    24    25   ar
    31    24    27    1
    32    25    26   ar
    33    27    28    1
