@<TRIPOS>MOLECULE
30085_ChemDiv_3570-0750
 27 29 0 0 0
SMALL
GASTEIGER
Energy = 0

@<TRIPOS>ATOM
      1 C           1.7040   -0.2670    0.0000 C.ar    1  LIG1        0.1131
      2 C           2.2790   -1.0790    0.0000 C.ar    1  LIG1        0.1515
      3 O           1.7040   -1.8830    0.0000 O.2     1  LIG1       -0.4533
      4 C           0.7580   -1.5630    0.0000 C.ar    1  LIG1        0.1462
      5 C           0.7580   -0.5710    0.0000 C.ar    1  LIG1        0.0468
      6 C          -0.1080   -0.0630    0.0000 C.ar    1  LIG1        0.0408
      7 C          -0.9830   -0.5710    0.0000 C.ar    1  LIG1        0.1457
      8 C          -0.9830   -1.5630    0.0000 C.ar    1  LIG1        0.0715
      9 C          -0.1080   -2.0500    0.0000 C.ar    1  LIG1        0.0472
     10 BR         -1.8460   -2.0750    0.0000 Br      1  LIG1       -0.0457
     11 O          -1.8460   -0.0630    0.0000 O.3     1  LIG1       -0.4633
     12 C          -2.7040   -0.5710    0.0000 C.3     1  LIG1        0.3141
     13 C          -3.5920   -0.0880    0.0000 C.2     1  LIG1        0.3621
     14 O          -3.5920    0.9420    0.0000 O.2     1  LIG1       -0.2459
     15 O          -4.4580   -0.5750    0.0000 O.3     1  LIG1       -0.4418
     16 C          -5.3130   -0.0880    0.0000 C.3     1  LIG1        0.2557
     17 C           3.3040   -1.1250    0.0000 C.ar    1  LIG1        0.0348
     18 C           3.7670   -2.0040    0.0000 C.ar    1  LIG1        0.0030
     19 C           4.7670   -2.0330    0.0000 C.ar    1  LIG1        0.0001
     20 C           5.3080   -1.2000    0.0000 C.ar    1  LIG1        0.0000
     21 C           4.8290   -0.3290    0.0000 C.ar    1  LIG1        0.0001
     22 C           3.8380   -0.2750    0.0000 C.ar    1  LIG1        0.0030
     23 C           2.0170    0.6960    0.0000 C.2     1  LIG1        0.3443
     24 O           1.3380    1.4290    0.0000 O.2     1  LIG1       -0.2448
     25 O           2.9880    0.9080    0.0000 O.3     1  LIG1       -0.4454
     26 C           3.3040    1.8540    0.0000 C.3     1  LIG1        0.2089
     27 C           4.2750    2.0790    0.0000 C.3     1  LIG1        0.0513
@<TRIPOS>BOND
     1     1     2   ar
     2     1     5   ar
     3     1    23    1
     4     2     3   ar
     5     2    17    1
     6     3     4   ar
     7     4     5   ar
     8     4     9   ar
     9     5     6   ar
    10     6     7   ar
    11     7     8   ar
    12     7    11    1
    13     8     9   ar
    14     8    10    1
    15    11    12    1
    16    12    13    1
    17    13    14    2
    18    13    15    1
    19    15    16    1
    20    17    18   ar
    21    17    22   ar
    22    18    19   ar
    23    19    20   ar
    24    20    21   ar
    25    21    22   ar
    26    23    24    2
    27    23    25    1
    28    25    26    1
    29    26    27    1
