@<TRIPOS>MOLECULE
30088_ChemDiv_6008-0389
 27 29 0 0 0
SMALL
GASTEIGER
Energy = 0

@<TRIPOS>ATOM
      1 S           2.2080    0.1130    0.0000 S.O2    1  LIG1        0.0633
      2 N           1.2750   -0.2540    0.0000 N.3     1  LIG1       -0.1540
      3 C           0.5420    0.4040    0.0000 C.3     1  LIG1        0.1149
      4 C          -0.4540    0.2630    0.0000 C.3     1  LIG1        0.1149
      5 N          -0.9630   -0.5960    0.0000 N.3     1  LIG1       -0.1540
      6 S          -1.9580   -0.5290    0.0000 S.O2    1  LIG1        0.0633
      7 C          -2.9670   -0.4500    0.0000 C.ar    1  LIG1        0.1222
      8 C          -3.5290   -1.2790    0.0000 C.ar    1  LIG1        0.0196
      9 C          -4.5210   -1.2000    0.0000 C.ar    1  LIG1       -0.0029
     10 C          -4.9580   -0.2920    0.0000 C.ar    1  LIG1       -0.0218
     11 C          -4.3920    0.5210    0.0000 C.ar    1  LIG1       -0.0029
     12 C          -3.4000    0.4420    0.0000 C.ar    1  LIG1        0.0196
     13 C          -5.9540   -0.2130    0.0000 C.3     1  LIG1        0.0310
     14 O          -2.0420   -1.5210    0.0000 O.2     1  LIG1       -0.1528
     15 O          -1.8960    0.4670    0.0000 O.2     1  LIG1       -0.1528
     16 C          -0.6000   -1.5210    0.0000 C.3     1  LIG1        0.0973
     17 C           0.3710   -1.8250    0.0000 C.3     1  LIG1        0.0383
     18 C           1.1960   -1.2630    0.0000 C.3     1  LIG1        0.0973
     19 C           3.1380    0.4670    0.0000 C.ar    1  LIG1        0.1222
     20 C           3.3000    1.4540    0.0000 C.ar    1  LIG1        0.0196
     21 C           4.2290    1.8290    0.0000 C.ar    1  LIG1       -0.0029
     22 C           5.0130    1.1960    0.0000 C.ar    1  LIG1       -0.0218
     23 C           4.8630    0.2080    0.0000 C.ar    1  LIG1       -0.0029
     24 C           3.9290   -0.1460    0.0000 C.ar    1  LIG1        0.0196
     25 C           5.9500    1.5710    0.0000 C.3     1  LIG1        0.0310
     26 O           2.5710   -0.8250    0.0000 O.2     1  LIG1       -0.1528
     27 O           1.8420    1.0250    0.0000 O.2     1  LIG1       -0.1528
@<TRIPOS>BOND
     1     1     2    1
     2     1    19    1
     3     1    26    2
     4     1    27    2
     5     2     3    1
     6     2    18    1
     7     3     4    1
     8     4     5    1
     9     5     6    1
    10     5    16    1
    11     6     7    1
    12     6    14    2
    13     6    15    2
    14     7     8   ar
    15     7    12   ar
    16     8     9   ar
    17     9    10   ar
    18    10    11   ar
    19    10    13    1
    20    11    12   ar
    21    16    17    1
    22    17    18    1
    23    19    20   ar
    24    19    24   ar
    25    20    21   ar
    26    21    22   ar
    27    22    23   ar
    28    22    25    1
    29    23    24   ar
