@<TRIPOS>MOLECULE
30083_ChemDiv_3570-0631
 28 30 0 0 0
SMALL
GASTEIGER
Energy = 0

@<TRIPOS>ATOM
      1 C           2.1460   -0.2500    0.0000 C.ar    1  LIG1        0.1131
      2 C           2.7460   -1.0630    0.0000 C.ar    1  LIG1        0.1515
      3 O           2.1460   -1.8580    0.0000 O.2     1  LIG1       -0.4533
      4 C           1.2040   -1.5540    0.0000 C.ar    1  LIG1        0.1462
      5 C           1.2040   -0.5630    0.0000 C.ar    1  LIG1        0.0468
      6 C           0.3380   -0.0500    0.0000 C.ar    1  LIG1        0.0408
      7 C          -0.5290   -0.5630    0.0000 C.ar    1  LIG1        0.1457
      8 C          -0.5290   -1.5540    0.0000 C.ar    1  LIG1        0.0715
      9 C           0.3380   -2.0540    0.0000 C.ar    1  LIG1        0.0472
     10 BR         -1.3960   -2.0710    0.0000 Br      1  LIG1       -0.0457
     11 O          -1.4040   -0.0500    0.0000 O.3     1  LIG1       -0.4633
     12 C          -2.2710   -0.5630    0.0000 C.3     1  LIG1        0.3141
     13 C          -3.1420   -0.0670    0.0000 C.2     1  LIG1        0.3620
     14 O          -3.1420    0.9210    0.0000 O.2     1  LIG1       -0.2459
     15 O          -4.0040   -0.5750    0.0000 O.3     1  LIG1       -0.4459
     16 C          -4.8790   -0.0750    0.0000 C.3     1  LIG1        0.2087
     17 C          -5.7290   -0.5750    0.0000 C.3     1  LIG1        0.0513
     18 C           3.7380   -1.0670    0.0000 C.ar    1  LIG1        0.0348
     19 C           4.2250   -1.9330    0.0000 C.ar    1  LIG1        0.0030
     20 C           5.2330   -1.9460    0.0000 C.ar    1  LIG1        0.0001
     21 C           5.7250   -1.0830    0.0000 C.ar    1  LIG1        0.0000
     22 C           5.2330   -0.2130    0.0000 C.ar    1  LIG1        0.0001
     23 C           4.2380   -0.2130    0.0000 C.ar    1  LIG1        0.0030
     24 C           2.4630    0.6960    0.0000 C.2     1  LIG1        0.3443
     25 O           1.7790    1.4420    0.0000 O.2     1  LIG1       -0.2448
     26 O           3.4330    0.9040    0.0000 O.3     1  LIG1       -0.4454
     27 C           3.7380    1.8670    0.0000 C.3     1  LIG1        0.2089
     28 C           4.7330    2.0750    0.0000 C.3     1  LIG1        0.0513
@<TRIPOS>BOND
     1     1     2   ar
     2     1     5   ar
     3     1    24    1
     4     2     3   ar
     5     2    18    1
     6     3     4   ar
     7     4     5   ar
     8     4     9   ar
     9     5     6   ar
    10     6     7   ar
    11     7     8   ar
    12     7    11    1
    13     8     9   ar
    14     8    10    1
    15    11    12    1
    16    12    13    1
    17    13    14    2
    18    13    15    1
    19    15    16    1
    20    16    17    1
    21    18    19   ar
    22    18    23   ar
    23    19    20   ar
    24    20    21   ar
    25    21    22   ar
    26    22    23   ar
    27    24    25    2
    28    24    26    1
    29    26    27    1
    30    27    28    1
