@<TRIPOS>MOLECULE
30094_ChemDiv_6915-0223
 31 33 0 0 0
SMALL
GASTEIGER
Energy = 0

@<TRIPOS>ATOM
      1 S           1.9210   -0.4130    0.0000 S.O2    1  LIG1        0.0663
      2 C           2.8500   -0.0500    0.0000 C.ar    1  LIG1        0.1581
      3 C           3.6380   -0.6710    0.0000 C.ar    1  LIG1        0.0526
      4 C           4.5670   -0.3040    0.0000 C.ar    1  LIG1        0.1417
      5 C           4.7170    0.6830    0.0000 C.ar    1  LIG1        0.0328
      6 C           3.9290    1.3040    0.0000 C.ar    1  LIG1        0.0406
      7 C           3.0040    0.9380    0.0000 C.ar    1  LIG1        0.1573
      8 O           2.2170    1.5630    0.0000 O.3     1  LIG1       -0.4701
      9 C           2.3710    2.5500    0.0000 C.3     1  LIG1        0.2525
     10 F           5.3500   -0.9290    0.0000 F       1  LIG1       -0.2041
     11 N           0.9920   -0.7790    0.0000 N.3     1  LIG1       -0.1539
     12 C           0.2580   -0.1040    0.0000 C.3     1  LIG1        0.1149
     13 C          -0.7330   -0.2460    0.0000 C.3     1  LIG1        0.1149
     14 N          -1.2330   -1.1130    0.0000 N.3     1  LIG1       -0.1539
     15 S          -2.2290   -1.0420    0.0000 S.O2    1  LIG1        0.0663
     16 C          -3.2290   -0.9670    0.0000 C.ar    1  LIG1        0.1581
     17 C          -3.7960   -1.7920    0.0000 C.ar    1  LIG1        0.0526
     18 C          -4.7880   -1.7170    0.0000 C.ar    1  LIG1        0.1417
     19 C          -5.2210   -0.8170    0.0000 C.ar    1  LIG1        0.0328
     20 C          -4.6580    0.0080    0.0000 C.ar    1  LIG1        0.0406
     21 C          -3.6630   -0.0630    0.0000 C.ar    1  LIG1        0.1573
     22 O          -3.1000    0.7630    0.0000 O.3     1  LIG1       -0.4701
     23 C          -3.5290    1.6630    0.0000 C.3     1  LIG1        0.2525
     24 F          -5.3540   -2.5460    0.0000 F       1  LIG1       -0.2041
     25 O          -2.3040   -2.0420    0.0000 O.2     1  LIG1       -0.1527
     26 O          -2.1580   -0.0460    0.0000 O.2     1  LIG1       -0.1527
     27 C          -0.8670   -2.0460    0.0000 C.3     1  LIG1        0.0973
     28 C           0.0880   -2.3380    0.0000 C.3     1  LIG1        0.0383
     29 C           0.9170   -1.7790    0.0000 C.3     1  LIG1        0.0973
     30 O           2.2920   -1.3500    0.0000 O.2     1  LIG1       -0.1527
     31 O           1.5580    0.5130    0.0000 O.2     1  LIG1       -0.1527
@<TRIPOS>BOND
     1     1     2    1
     2     1    11    1
     3     1    30    2
     4     1    31    2
     5     2     3   ar
     6     2     7   ar
     7     3     4   ar
     8     4     5   ar
     9     4    10    1
    10     5     6   ar
    11     6     7   ar
    12     7     8    1
    13     8     9    1
    14    11    12    1
    15    11    29    1
    16    12    13    1
    17    13    14    1
    18    14    15    1
    19    14    27    1
    20    15    16    1
    21    15    25    2
    22    15    26    2
    23    16    17   ar
    24    16    21   ar
    25    17    18   ar
    26    18    19   ar
    27    18    24    1
    28    19    20   ar
    29    20    21   ar
    30    21    22    1
    31    22    23    1
    32    27    28    1
    33    28    29    1
