@<TRIPOS>MOLECULE
30092_ChemDiv_6049-2041
 29 31 0 0 0
SMALL
GASTEIGER
Energy = 0

@<TRIPOS>ATOM
      1 S           2.0330    0.0130    0.0000 S.O2    1  LIG1        0.0633
      2 N           1.0380   -0.0670    0.0000 N.3     1  LIG1       -0.1540
      3 C           0.4130    0.7710    0.0000 C.3     1  LIG1        0.1149
      4 C          -0.5500    0.7710    0.0000 C.3     1  LIG1        0.1149
      5 N          -1.2040   -0.0460    0.0000 N.3     1  LIG1       -0.1540
      6 S          -2.1960    0.0750    0.0000 S.O2    1  LIG1        0.0633
      7 C          -3.1920    0.1920    0.0000 C.ar    1  LIG1        0.1224
      8 C          -3.5880    1.1040    0.0000 C.ar    1  LIG1        0.0230
      9 C          -4.5830    1.2210    0.0000 C.ar    1  LIG1        0.0383
     10 C          -5.1920    0.4210    0.0000 C.ar    1  LIG1        0.1388
     11 C          -4.7920   -0.5080    0.0000 C.ar    1  LIG1        0.0383
     12 C          -3.7960   -0.6250    0.0000 C.ar    1  LIG1        0.0230
     13 O          -6.1880    0.5420    0.0000 O.3     1  LIG1       -0.4714
     14 C          -6.5880    1.4460    0.0000 C.3     1  LIG1        0.2525
     15 O          -2.0630    1.0580    0.0000 O.2     1  LIG1       -0.1528
     16 O          -2.3130   -0.9380    0.0000 O.2     1  LIG1       -0.1528
     17 C          -0.9670   -1.0000    0.0000 C.3     1  LIG1        0.0973
     18 C          -0.0920   -1.4420    0.0000 C.3     1  LIG1        0.0383
     19 C           0.8290   -0.9830    0.0000 C.3     1  LIG1        0.0973
     20 C           3.0290    0.0880    0.0000 C.ar    1  LIG1        0.1224
     21 C           3.4710    0.9710    0.0000 C.ar    1  LIG1        0.0230
     22 C           4.4670    1.0460    0.0000 C.ar    1  LIG1        0.0383
     23 C           5.0290    0.2250    0.0000 C.ar    1  LIG1        0.1388
     24 C           4.5830   -0.6710    0.0000 C.ar    1  LIG1        0.0383
     25 C           3.5880   -0.7460    0.0000 C.ar    1  LIG1        0.0230
     26 O           6.0250    0.3040    0.0000 O.3     1  LIG1       -0.4714
     27 C           6.5880   -0.5080    0.0000 C.3     1  LIG1        0.2525
     28 O           1.9420    0.9960    0.0000 O.2     1  LIG1       -0.1528
     29 O           2.1040   -1.0000    0.0000 O.2     1  LIG1       -0.1528
@<TRIPOS>BOND
     1     1     2    1
     2     1    20    1
     3     1    28    2
     4     1    29    2
     5     2     3    1
     6     2    19    1
     7     3     4    1
     8     4     5    1
     9     5     6    1
    10     5    17    1
    11     6     7    1
    12     6    15    2
    13     6    16    2
    14     7     8   ar
    15     7    12   ar
    16     8     9   ar
    17     9    10   ar
    18    10    11   ar
    19    10    13    1
    20    11    12   ar
    21    13    14    1
    22    17    18    1
    23    18    19    1
    24    20    21   ar
    25    20    25   ar
    26    21    22   ar
    27    22    23   ar
    28    23    24   ar
    29    23    26    1
    30    24    25   ar
    31    26    27    1
