@<TRIPOS>MOLECULE
30099_ChemDiv_8017-3019
 22 25 0 0 0
SMALL
GASTEIGER
Energy = 0

@<TRIPOS>ATOM
      1 C           0.6290    0.5630    0.0000 C.ar    1  LIG1        0.2747
      2 N          -0.2330    0.0580    0.0000 N.ar    1  LIG1        0.0712
      3 C          -1.0920    0.5630    0.0000 C.ar    1  LIG1        0.2974
      4 C          -1.0920    1.5580    0.0000 C.ar    1  LIG1        0.0868
      5 C          -0.2330    2.0580    0.0000 C.ar    1  LIG1        0.0966
      6 C           0.6290    1.5580    0.0000 C.ar    1  LIG1        0.0607
      7 C           1.4170    2.1830    0.0000 C.3     1  LIG1        0.0337
      8 C           2.3920    1.9670    0.0000 C.3     1  LIG1        0.0049
      9 C           2.8250    1.0580    0.0000 C.3     1  LIG1        0.0012
     10 C           2.3920    0.1580    0.0000 C.3     1  LIG1        0.0152
     11 C           1.4170   -0.0540    0.0000 C.3     1  LIG1        0.1156
     12 C           1.4170   -1.0540    0.0000 C.ar    1  LIG1       -0.0123
     13 C           2.2790   -1.5540    0.0000 C.ar    1  LIG1       -0.0038
     14 C           2.2790   -2.5540    0.0000 C.ar    1  LIG1       -0.0003
     15 C           1.4170   -3.0540    0.0000 C.ar    1  LIG1       -0.0000
     16 C           0.5540   -2.5540    0.0000 C.ar    1  LIG1       -0.0003
     17 C           0.5540   -1.5540    0.0000 C.ar    1  LIG1       -0.0038
     18 N          -0.2330    3.0580    0.0000 N.pl3   1  LIG1       -0.1280
     19 C          -1.9670    2.0580    0.0000 C.ar    1  LIG1        0.0075
     20 C          -2.8290    1.5580    0.0000 C.ar    1  LIG1        0.0004
     21 C          -2.8290    0.5630    0.0000 C.ar    1  LIG1        0.0063
     22 C          -1.9670    0.0580    0.0000 C.ar    1  LIG1        0.0762
@<TRIPOS>BOND
     1     1     2   ar
     2     1     6   ar
     3     1    11    1
     4     2     3   ar
     5     3     4   ar
     6     3    22   ar
     7     4     5   ar
     8     4    19   ar
     9     5     6   ar
    10     5    18    1
    11     6     7    1
    12     7     8    1
    13     8     9    1
    14     9    10    1
    15    10    11    1
    16    11    12    1
    17    12    13   ar
    18    12    17   ar
    19    13    14   ar
    20    14    15   ar
    21    15    16   ar
    22    16    17   ar
    23    19    20   ar
    24    20    21   ar
    25    21    22   ar
