@<TRIPOS>MOLECULE
30096_ChemDiv_3721-3848
 25 27 0 0 0
SMALL
GASTEIGER
Energy = 0

@<TRIPOS>ATOM
      1 C          -2.6460    1.0670    0.0000 C.2     1  LIG1        0.2491
      2 N          -1.5670    1.0170    0.0000 N.am    1  LIG1       -0.2743
      3 C          -1.0750    1.8460    0.0000 C.3     1  LIG1        0.1152
      4 C          -0.0670    1.9420    0.0000 C.3     1  LIG1        0.1152
      5 N           0.6380    1.2170    0.0000 N.am    1  LIG1       -0.2743
      6 C           1.4500    1.7250    0.0000 C.2     1  LIG1        0.2491
      7 C           2.2960    1.2540    0.0000 C.ar    1  LIG1        0.0533
      8 C           3.1000    1.7540    0.0000 C.ar    1  LIG1        0.0003
      9 C           3.9540    1.2920    0.0000 C.ar    1  LIG1       -0.0217
     10 C           3.9830    0.3420    0.0000 C.ar    1  LIG1       -0.0043
     11 C           3.1540   -0.1580    0.0000 C.ar    1  LIG1       -0.0002
     12 C           2.3080    0.3040    0.0000 C.ar    1  LIG1        0.0045
     13 C           4.7920    1.7920    0.0000 C.3     1  LIG1        0.0310
     14 O           1.4290    2.6790    0.0000 O.2     1  LIG1       -0.2699
     15 C           0.4500    0.2750    0.0000 C.3     1  LIG1        0.0955
     16 C          -0.2830   -0.0790    0.0000 C.3     1  LIG1        0.0430
     17 C          -1.2080    0.2380    0.0000 C.3     1  LIG1        0.0955
     18 C          -3.1830    0.1170    0.0000 C.ar    1  LIG1        0.0533
     19 C          -2.6380   -0.8040    0.0000 C.ar    1  LIG1        0.0003
     20 C          -3.1630   -1.7380    0.0000 C.ar    1  LIG1       -0.0217
     21 C          -4.2420   -1.7500    0.0000 C.ar    1  LIG1       -0.0043
     22 C          -4.7960   -0.8170    0.0000 C.ar    1  LIG1       -0.0002
     23 C          -4.2670    0.1170    0.0000 C.ar    1  LIG1        0.0045
     24 C          -2.6210   -2.6750    0.0000 C.3     1  LIG1        0.0310
     25 O          -3.1380    2.0290    0.0000 O.2     1  LIG1       -0.2699
@<TRIPOS>BOND
     1     1     2   am
     2     1    18    1
     3     1    25    2
     4     2     3    1
     5     2    17    1
     6     3     4    1
     7     4     5    1
     8     5     6   am
     9     5    15    1
    10     6     7    1
    11     6    14    2
    12     7     8   ar
    13     7    12   ar
    14     8     9   ar
    15     9    10   ar
    16     9    13    1
    17    10    11   ar
    18    11    12   ar
    19    15    16    1
    20    16    17    1
    21    18    19   ar
    22    18    23   ar
    23    19    20   ar
    24    20    21   ar
    25    20    24    1
    26    21    22   ar
    27    22    23   ar
