@<TRIPOS>MOLECULE
30097_ChemDiv_8017-3017
 21 24 0 0 0
SMALL
GASTEIGER
Energy = 0

@<TRIPOS>ATOM
      1 C           0.8670    0.5130    0.0000 C.ar    1  LIG1        0.2747
      2 N          -0.0080    0.0080    0.0000 N.ar    1  LIG1        0.0712
      3 C          -0.8710    0.5130    0.0000 C.ar    1  LIG1        0.2974
      4 C          -0.8710    1.5130    0.0000 C.ar    1  LIG1        0.0868
      5 C          -0.0080    2.0130    0.0000 C.ar    1  LIG1        0.0966
      6 C           0.8670    1.5130    0.0000 C.ar    1  LIG1        0.0607
      7 C           1.7330    2.0130    0.0000 C.3     1  LIG1        0.0337
      8 C           2.5960    1.5130    0.0000 C.3     1  LIG1        0.0058
      9 C           2.5960    0.5130    0.0000 C.3     1  LIG1        0.0155
     10 C           1.7330    0.0080    0.0000 C.3     1  LIG1        0.1156
     11 C           1.7330   -0.9920    0.0000 C.ar    1  LIG1       -0.0123
     12 C           2.5960   -1.4920    0.0000 C.ar    1  LIG1       -0.0038
     13 C           2.5960   -2.4920    0.0000 C.ar    1  LIG1       -0.0003
     14 C           1.7330   -3.0000    0.0000 C.ar    1  LIG1       -0.0000
     15 C           0.8670   -2.4920    0.0000 C.ar    1  LIG1       -0.0003
     16 C           0.8670   -1.4920    0.0000 C.ar    1  LIG1       -0.0038
     17 N          -0.0080    3.0040    0.0000 N.pl3   1  LIG1       -0.1280
     18 C          -1.7330    2.0130    0.0000 C.ar    1  LIG1        0.0075
     19 C          -2.6000    1.5130    0.0000 C.ar    1  LIG1        0.0004
     20 C          -2.6000    0.5130    0.0000 C.ar    1  LIG1        0.0063
     21 C          -1.7330    0.0080    0.0000 C.ar    1  LIG1        0.0762
@<TRIPOS>BOND
     1     1     2   ar
     2     1     6   ar
     3     1    10    1
     4     2     3   ar
     5     3     4   ar
     6     3    21   ar
     7     4     5   ar
     8     4    18   ar
     9     5     6   ar
    10     5    17    1
    11     6     7    1
    12     7     8    1
    13     8     9    1
    14     9    10    1
    15    10    11    1
    16    11    12   ar
    17    11    16   ar
    18    12    13   ar
    19    13    14   ar
    20    14    15   ar
    21    15    16   ar
    22    18    19   ar
    23    19    20   ar
    24    20    21   ar
