@<TRIPOS>MOLECULE
30093_ChemDiv_3574-0111
 21 24 0 0 0
SMALL
GASTEIGER
Energy = 0

@<TRIPOS>ATOM
      1 C          -0.5750   -0.5500    0.0000 C.ar    1  LIG1        0.2160
      2 O          -0.7750   -1.5290    0.0000 O.2     1  LIG1       -0.4472
      3 C          -1.7750   -1.6380    0.0000 C.ar    1  LIG1        0.1471
      4 C          -2.1830   -0.7210    0.0000 C.ar    1  LIG1        0.0554
      5 C          -1.4420   -0.0540    0.0000 C.ar    1  LIG1        0.1251
      6 N          -1.4420    0.9460    0.0000 N.ar    1  LIG1       -0.2206
      7 C          -0.5750    1.4460    0.0000 C.ar    1  LIG1        0.2017
      8 N           0.2960    0.9460    0.0000 N.ar    1  LIG1       -0.1864
      9 C           0.2960   -0.0540    0.0000 C.ar    1  LIG1        0.2682
     10 O           1.1540   -0.5500    0.0000 O.3     1  LIG1       -0.4337
     11 C           2.0210   -0.0540    0.0000 C.ar    1  LIG1        0.1481
     12 C           2.0210    0.9460    0.0000 C.ar    1  LIG1        0.0489
     13 C           2.8920    1.4460    0.0000 C.ar    1  LIG1        0.0607
     14 CL          2.8920    2.4460    0.0000 Cl      1  LIG1       -0.0821
     15 C           3.7580    0.9460    0.0000 C.ar    1  LIG1        0.0116
     16 C           3.7580   -0.0540    0.0000 C.ar    1  LIG1        0.0040
     17 C           2.8920   -0.5500    0.0000 C.ar    1  LIG1        0.0376
     18 C          -3.1750   -0.6170    0.0000 C.ar    1  LIG1        0.0046
     19 C          -3.7630   -1.4250    0.0000 C.ar    1  LIG1        0.0003
     20 C          -3.3580   -2.3420    0.0000 C.ar    1  LIG1        0.0031
     21 C          -2.3670   -2.4420    0.0000 C.ar    1  LIG1        0.0375
@<TRIPOS>BOND
     1     1     2   ar
     2     1     5   ar
     3     1     9   ar
     4     2     3   ar
     5     3     4   ar
     6     3    21   ar
     7     4     5   ar
     8     4    18   ar
     9     5     6   ar
    10     6     7   ar
    11     7     8   ar
    12     8     9   ar
    13     9    10    1
    14    10    11    1
    15    11    12   ar
    16    11    17   ar
    17    12    13   ar
    18    13    14    1
    19    13    15   ar
    20    15    16   ar
    21    16    17   ar
    22    18    19   ar
    23    19    20   ar
    24    20    21   ar
