@<TRIPOS>MOLECULE
30090_ChemDiv_6049-0369
 33 35 0 0 0
SMALL
GASTEIGER
Energy = 0

@<TRIPOS>ATOM
      1 S          -2.1250   -0.8080    0.0000 S.O2    1  LIG1        0.0663
      2 C          -3.1540   -0.6630    0.0000 C.ar    1  LIG1        0.1589
      3 C          -3.7960   -1.4290    0.0000 C.ar    1  LIG1        0.0599
      4 C          -4.7750   -1.2830    0.0000 C.ar    1  LIG1        0.1403
      5 C          -5.1000   -0.3460    0.0000 C.ar    1  LIG1        0.0401
      6 C          -4.5080    0.4380    0.0000 C.ar    1  LIG1        0.0414
      7 C          -3.5000    0.2670    0.0000 C.ar    1  LIG1        0.1574
      8 O          -2.8750    1.0380    0.0000 O.3     1  LIG1       -0.4701
      9 C          -3.2210    1.9580    0.0000 C.3     1  LIG1        0.2525
     10 O          -5.4460   -2.0540    0.0000 O.3     1  LIG1       -0.4714
     11 C          -6.4210   -1.8670    0.0000 C.3     1  LIG1        0.2525
     12 N          -1.1420   -0.9250    0.0000 N.3     1  LIG1       -0.1539
     13 C          -0.5290   -0.1250    0.0000 C.3     1  LIG1        0.1149
     14 C           0.4420   -0.1250    0.0000 C.3     1  LIG1        0.1149
     15 N           1.0920   -0.8830    0.0000 N.3     1  LIG1       -0.1539
     16 S           2.0960   -0.5630    0.0000 S.O2    1  LIG1        0.0663
     17 C           3.0380   -0.2460    0.0000 C.ar    1  LIG1        0.1589
     18 C           3.7790   -0.9250    0.0000 C.ar    1  LIG1        0.0599
     19 C           4.7250   -0.6170    0.0000 C.ar    1  LIG1        0.1403
     20 C           4.9380    0.3250    0.0000 C.ar    1  LIG1        0.0401
     21 C           4.2290    1.0380    0.0000 C.ar    1  LIG1        0.0414
     22 C           3.2830    0.7170    0.0000 C.ar    1  LIG1        0.1574
     23 O           2.5750    1.4130    0.0000 O.3     1  LIG1       -0.4701
     24 C           2.8080    2.3500    0.0000 C.3     1  LIG1        0.2525
     25 O           5.4630   -1.2750    0.0000 O.3     1  LIG1       -0.4714
     26 C           6.4210   -0.9830    0.0000 C.3     1  LIG1        0.2525
     27 O           1.7710    0.4000    0.0000 O.2     1  LIG1       -0.1527
     28 O           2.3880   -1.5040    0.0000 O.2     1  LIG1       -0.1527
     29 C           0.8920   -1.9130    0.0000 C.3     1  LIG1        0.0973
     30 C          -0.0130   -2.3460    0.0000 C.3     1  LIG1        0.0383
     31 C          -0.9130   -1.9000    0.0000 C.3     1  LIG1        0.0973
     32 O          -2.0080    0.1790    0.0000 O.2     1  LIG1       -0.1527
     33 O          -2.2710   -1.8080    0.0000 O.2     1  LIG1       -0.1527
@<TRIPOS>BOND
     1     1     2    1
     2     1    12    1
     3     1    32    2
     4     1    33    2
     5     2     3   ar
     6     2     7   ar
     7     3     4   ar
     8     4     5   ar
     9     4    10    1
    10     5     6   ar
    11     6     7   ar
    12     7     8    1
    13     8     9    1
    14    10    11    1
    15    12    13    1
    16    12    31    1
    17    13    14    1
    18    14    15    1
    19    15    16    1
    20    15    29    1
    21    16    17    1
    22    16    27    2
    23    16    28    2
    24    17    18   ar
    25    17    22   ar
    26    18    19   ar
    27    19    20   ar
    28    19    25    1
    29    20    21   ar
    30    21    22   ar
    31    22    23    1
    32    23    24    1
    33    25    26    1
    34    29    30    1
    35    30    31    1
