@<TRIPOS>MOLECULE
30105_ChemDiv_3647-2403
 25 28 0 0 0
SMALL
GASTEIGER
Energy = 0

@<TRIPOS>ATOM
      1 C           0.3830   -1.6500    0.0000 C.ar    1  LIG1        0.1153
      2 C          -0.4710   -1.1670    0.0000 C.ar    1  LIG1        0.0799
      3 C          -1.3330   -1.6500    0.0000 C.ar    1  LIG1        0.0853
      4 C          -1.3330   -2.6580    0.0000 C.ar    1  LIG1        0.2974
      5 N          -0.4710   -3.1460    0.0000 N.ar    1  LIG1        0.0713
      6 C           0.3830   -2.6580    0.0000 C.ar    1  LIG1        0.2779
      7 C           1.2460   -3.1460    0.0000 C.3     1  LIG1        0.1044
      8 C           2.1170   -2.6580    0.0000 C.3     1  LIG1        0.0176
      9 C           2.1170   -1.6500    0.0000 C.3     1  LIG1        0.0699
     10 C           1.2460   -1.1670    0.0000 C.2     1  LIG1        0.1799
     11 O           1.2460   -0.1580    0.0000 O.2     1  LIG1       -0.2911
     12 C           2.8580   -3.3380    0.0000 C.3     1  LIG1        0.0010
     13 C           3.0790   -2.3750    0.0000 C.3     1  LIG1        0.0010
     14 C          -2.2130   -3.1460    0.0000 C.ar    1  LIG1        0.0762
     15 C          -3.0830   -2.6580    0.0000 C.ar    1  LIG1        0.0063
     16 C          -3.0830   -1.6500    0.0000 C.ar    1  LIG1        0.0004
     17 C          -2.2130   -1.1670    0.0000 C.ar    1  LIG1        0.0074
     18 N          -0.4710   -0.1580    0.0000 N.pl3   1  LIG1       -0.2323
     19 C          -1.3330    0.3290    0.0000 C.3     1  LIG1        0.1385
     20 C          -1.3330    1.3290    0.0000 C.ar    1  LIG1       -0.0007
     21 C          -0.4710    1.8210    0.0000 C.ar    1  LIG1       -0.0026
     22 C          -0.4710    2.8290    0.0000 C.ar    1  LIG1       -0.0003
     23 C          -1.3330    3.3420    0.0000 C.ar    1  LIG1       -0.0000
     24 C          -2.2130    2.8290    0.0000 C.ar    1  LIG1       -0.0003
     25 C          -2.2130    1.8210    0.0000 C.ar    1  LIG1       -0.0026
@<TRIPOS>BOND
     1     1     2   ar
     2     1     6   ar
     3     1    10    1
     4     2     3   ar
     5     2    18    1
     6     3     4   ar
     7     3    17   ar
     8     4     5   ar
     9     4    14   ar
    10     5     6   ar
    11     6     7    1
    12     7     8    1
    13     8     9    1
    14     8    12    1
    15     8    13    1
    16     9    10    1
    17    10    11    2
    18    14    15   ar
    19    15    16   ar
    20    16    17   ar
    21    18    19    1
    22    19    20    1
    23    20    21   ar
    24    20    25   ar
    25    21    22   ar
    26    22    23   ar
    27    23    24   ar
    28    24    25   ar
