@<TRIPOS>MOLECULE
30107_ChemDiv_3647-2406
 26 29 0 0 0
SMALL
GASTEIGER
Energy = 0

@<TRIPOS>ATOM
      1 C           0.4000   -2.1920    0.0000 C.ar    1  LIG1        0.1153
      2 C          -0.4830   -1.6710    0.0000 C.ar    1  LIG1        0.0799
      3 C          -1.3420   -2.1920    0.0000 C.ar    1  LIG1        0.0853
      4 C          -1.3420   -3.2000    0.0000 C.ar    1  LIG1        0.2974
      5 N          -0.4830   -3.6830    0.0000 N.ar    1  LIG1        0.0713
      6 C           0.4000   -3.2000    0.0000 C.ar    1  LIG1        0.2779
      7 C           1.2580   -3.6830    0.0000 C.3     1  LIG1        0.1044
      8 C           2.1170   -3.2000    0.0000 C.3     1  LIG1        0.0176
      9 C           2.1170   -2.1920    0.0000 C.3     1  LIG1        0.0699
     10 C           1.2580   -1.6710    0.0000 C.2     1  LIG1        0.1799
     11 O           1.2580   -0.6630    0.0000 O.2     1  LIG1       -0.2911
     12 C           2.8710   -3.8460    0.0000 C.3     1  LIG1        0.0010
     13 C           3.0580   -2.9170    0.0000 C.3     1  LIG1        0.0010
     14 C          -2.2000   -3.6830    0.0000 C.ar    1  LIG1        0.0762
     15 C          -3.0630   -3.2000    0.0000 C.ar    1  LIG1        0.0063
     16 C          -3.0630   -2.1920    0.0000 C.ar    1  LIG1        0.0004
     17 C          -2.2000   -1.6710    0.0000 C.ar    1  LIG1        0.0074
     18 N          -0.4830   -0.6630    0.0000 N.pl3   1  LIG1       -0.2323
     19 C          -1.3420   -0.1790    0.0000 C.3     1  LIG1        0.1385
     20 C          -1.3420    0.8250    0.0000 C.ar    1  LIG1       -0.0006
     21 C          -0.4830    1.3080    0.0000 C.ar    1  LIG1       -0.0017
     22 C          -0.4830    2.3170    0.0000 C.ar    1  LIG1        0.0111
     23 C          -1.3420    2.8380    0.0000 C.ar    1  LIG1        0.0577
     24 CL         -1.3420    3.8500    0.0000 Cl      1  LIG1       -0.0822
     25 C          -2.2000    2.3170    0.0000 C.ar    1  LIG1        0.0111
     26 C          -2.2000    1.3080    0.0000 C.ar    1  LIG1       -0.0017
@<TRIPOS>BOND
     1     1     2   ar
     2     1     6   ar
     3     1    10    1
     4     2     3   ar
     5     2    18    1
     6     3     4   ar
     7     3    17   ar
     8     4     5   ar
     9     4    14   ar
    10     5     6   ar
    11     6     7    1
    12     7     8    1
    13     8     9    1
    14     8    12    1
    15     8    13    1
    16     9    10    1
    17    10    11    2
    18    14    15   ar
    19    15    16   ar
    20    16    17   ar
    21    18    19    1
    22    19    20    1
    23    20    21   ar
    24    20    26   ar
    25    21    22   ar
    26    22    23   ar
    27    23    24    1
    28    23    25   ar
    29    25    26   ar
