@<TRIPOS>MOLECULE
30103_ChemDiv_C498-1353
 21 24 0 0 0
SMALL
GASTEIGER
Energy = 0

@<TRIPOS>ATOM
      1 N          -0.8630   -0.5040    0.0000 N.pl3   1  LIG1       -0.3074
      2 C           0.0000   -0.0040    0.0000 C.ar    1  LIG1        0.0553
      3 C          -0.0040    0.9790    0.0000 C.ar    1  LIG1        0.0569
      4 C           0.8750    1.4790    0.0000 C.ar    1  LIG1        0.2711
      5 N           1.7420    0.9880    0.0000 N.ar    1  LIG1        0.0709
      6 C           1.7330   -0.0170    0.0000 C.ar    1  LIG1        0.2973
      7 C           0.8670   -0.5080    0.0000 C.ar    1  LIG1        0.0833
      8 C           0.8670   -1.5000    0.0000 C.ar    1  LIG1        0.0074
      9 C           1.7250   -2.0040    0.0000 C.ar    1  LIG1        0.0004
     10 C           2.5880   -1.5040    0.0000 C.ar    1  LIG1        0.0063
     11 C           2.5960   -0.5040    0.0000 C.ar    1  LIG1        0.0762
     12 C           0.8750    2.4880    0.0000 C.3     1  LIG1        0.1036
     13 C           0.0000    2.9920    0.0000 C.3     1  LIG1        0.0117
     14 C          -0.8710    2.4920    0.0000 C.3     1  LIG1        0.0055
     15 C          -0.8750    1.4750    0.0000 C.3     1  LIG1        0.0335
     16 C          -0.8580   -1.5040    0.0000 C.3     1  LIG1        0.0907
     17 C          -1.7210   -2.0040    0.0000 C.3     1  LIG1        0.0198
     18 C          -2.5920   -1.5130    0.0000 C.3     1  LIG1        0.0035
     19 C          -2.6000   -0.5080    0.0000 C.3     1  LIG1        0.0215
     20 C          -1.7290   -0.0040    0.0000 C.3     1  LIG1        0.0908
     21 C          -1.7130   -2.9880    0.0000 C.3     1  LIG1        0.0018
@<TRIPOS>BOND
     1     1     2    1
     2     1    16    1
     3     1    20    1
     4     2     3   ar
     5     2     7   ar
     6     3     4   ar
     7     3    15    1
     8     4     5   ar
     9     4    12    1
    10     5     6   ar
    11     6     7   ar
    12     6    11   ar
    13     7     8   ar
    14     8     9   ar
    15     9    10   ar
    16    10    11   ar
    17    12    13    1
    18    13    14    1
    19    14    15    1
    20    16    17    1
    21    17    18    1
    22    17    21    1
    23    18    19    1
    24    19    20    1
