@<TRIPOS>MOLECULE
30119_ChemDiv_5219-0202
 19 21 0 0 0
SMALL
GASTEIGER
Energy = 0

@<TRIPOS>ATOM
      1 C           0.0500   -0.0130    0.0000 C.ar    1  LIG1        0.0522
      2 C           0.0500    0.9830    0.0000 C.2     1  LIG1        0.2489
      3 N           0.9080    1.4920    0.0000 N.am    1  LIG1       -0.2726
      4 C           0.9080    2.4920    0.0000 C.3     1  LIG1        0.1152
      5 C           1.9210    1.4920    0.0000 C.3     1  LIG1        0.1152
      6 O          -0.8210    1.4920    0.0000 O.2     1  LIG1       -0.2699
      7 C           0.9080   -0.5080    0.0000 C.ar    1  LIG1       -0.0042
      8 C           0.9080   -1.5210    0.0000 C.ar    1  LIG1        0.0551
      9 N           0.0500   -2.0210    0.0000 N.ar    1  LIG1       -0.2500
     10 C          -0.8210   -1.5210    0.0000 C.ar    1  LIG1        0.0810
     11 C          -0.8210   -0.5080    0.0000 C.ar    1  LIG1        0.0217
     12 C          -1.6960   -0.0130    0.0000 C.ar    1  LIG1        0.0016
     13 C          -2.5580   -0.5080    0.0000 C.ar    1  LIG1        0.0001
     14 C          -2.5580   -1.5210    0.0000 C.ar    1  LIG1        0.0015
     15 C          -1.6960   -2.0210    0.0000 C.ar    1  LIG1        0.0191
     16 C           1.8830   -1.7830    0.0000 C.3     1  LIG1        0.0455
     17 C           2.5540   -2.4880    0.0000 C.3     1  LIG1        0.0066
     18 C           2.5540   -1.5210    0.0000 C.3     1  LIG1        0.0051
     19 C           1.5880   -1.2500    0.0000 C.3     1  LIG1        0.0277
@<TRIPOS>BOND
     1     1     2    1
     2     1     7   ar
     3     1    11   ar
     4     2     3   am
     5     2     6    2
     6     3     4    1
     7     3     5    1
     8     7     8   ar
     9     7    19    1
    10     8     9   ar
    11     8    16    1
    12     9    10   ar
    13    10    11   ar
    14    10    15   ar
    15    11    12   ar
    16    12    13   ar
    17    13    14   ar
    18    14    15   ar
    19    16    17    1
    20    17    18    1
    21    18    19    1
