@<TRIPOS>MOLECULE
30111_ChemDiv_5556-0075
 24 27 0 0 0
SMALL
GASTEIGER
Energy = 0

@<TRIPOS>ATOM
      1 C          -0.0080    1.2420    0.0000 C.ar    1  LIG1        0.0811
      2 N          -0.0080    0.2460    0.0000 N.am    1  LIG1       -0.1754
      3 C           0.8500   -0.2580    0.0000 C.2     1  LIG1        0.2687
      4 C           0.8500   -1.2500    0.0000 C.ar    1  LIG1        0.0514
      5 C           1.7130   -1.7500    0.0000 C.ar    1  LIG1       -0.0174
      6 C           2.5790   -1.2420    0.0000 C.3     1  LIG1        0.0312
      7 C           1.7170   -2.7380    0.0000 C.ar    1  LIG1       -0.0041
      8 C           0.8500   -3.2500    0.0000 C.ar    1  LIG1       -0.0003
      9 C          -0.0080   -2.7380    0.0000 C.ar    1  LIG1        0.0001
     10 C          -0.0080   -1.7500    0.0000 C.ar    1  LIG1        0.0043
     11 O           1.7170    0.2460    0.0000 O.2     1  LIG1       -0.2680
     12 C           0.8500    1.7380    0.0000 C.ar    1  LIG1        0.0590
     13 C           0.8670    2.7540    0.0000 C.ar    1  LIG1        0.2712
     14 N          -0.0080    3.2540    0.0000 N.ar    1  LIG1        0.0709
     15 C          -0.8830    2.7540    0.0000 C.ar    1  LIG1        0.2974
     16 C          -0.8830    1.7380    0.0000 C.ar    1  LIG1        0.0854
     17 C          -1.7330    1.2420    0.0000 C.ar    1  LIG1        0.0074
     18 C          -2.6000    1.7250    0.0000 C.ar    1  LIG1        0.0004
     19 C          -2.6080    2.7290    0.0000 C.ar    1  LIG1        0.0063
     20 C          -1.7500    3.2380    0.0000 C.ar    1  LIG1        0.0762
     21 C           1.7330    3.2540    0.0000 C.3     1  LIG1        0.1036
     22 C           2.6040    2.7420    0.0000 C.3     1  LIG1        0.0117
     23 C           2.5960    1.7380    0.0000 C.3     1  LIG1        0.0055
     24 C           1.7170    1.2420    0.0000 C.3     1  LIG1        0.0336
@<TRIPOS>BOND
     1     1     2    1
     2     1    12   ar
     3     1    16   ar
     4     2     3   am
     5     3     4    1
     6     3    11    2
     7     4     5   ar
     8     4    10   ar
     9     5     6    1
    10     5     7   ar
    11     7     8   ar
    12     8     9   ar
    13     9    10   ar
    14    12    13   ar
    15    12    24    1
    16    13    14   ar
    17    13    21    1
    18    14    15   ar
    19    15    16   ar
    20    15    20   ar
    21    16    17   ar
    22    17    18   ar
    23    18    19   ar
    24    19    20   ar
    25    21    22    1
    26    22    23    1
    27    23    24    1
