@<TRIPOS>MOLECULE
30116_ChemDiv_3730-2234
 35 38 0 0 0
SMALL
GASTEIGER
Energy = 0

@<TRIPOS>ATOM
      1 S          -2.6000   -1.2500    0.0000 S.O2    1  LIG1        0.0771
      2 N          -2.5830   -0.2630    0.0000 N.pl3   1  LIG1       -0.1783
      3 C          -1.7080    0.2500    0.0000 C.3     1  LIG1        0.2006
      4 C          -0.8500   -0.2630    0.0000 C.2     1  LIG1        0.2477
      5 N           0.0080    0.2500    0.0000 N.am    1  LIG1       -0.2781
      6 C           0.0080    1.2460    0.0000 C.3     1  LIG1        0.0935
      7 C           0.8710    1.7540    0.0000 C.3     1  LIG1        0.0219
      8 C           1.7460    1.2460    0.0000 C.3     1  LIG1        0.0078
      9 C           2.6040    1.7420    0.0000 C.3     1  LIG1        0.0265
     10 C           3.4540    1.2460    0.0000 C.ar    1  LIG1       -0.0222
     11 C           3.4540    0.2380    0.0000 C.ar    1  LIG1       -0.0043
     12 C           4.3130   -0.2630    0.0000 C.ar    1  LIG1       -0.0003
     13 C           5.1880    0.2250    0.0000 C.ar    1  LIG1       -0.0000
     14 C           5.1880    1.2330    0.0000 C.ar    1  LIG1       -0.0003
     15 C           4.3130    1.7420    0.0000 C.ar    1  LIG1       -0.0043
     16 C           1.7460    0.2500    0.0000 C.3     1  LIG1        0.0219
     17 C           0.8710   -0.2460    0.0000 C.3     1  LIG1        0.0935
     18 O          -0.8500   -1.2500    0.0000 O.2     1  LIG1       -0.2729
     19 C          -3.4580    0.2500    0.0000 C.ar    1  LIG1        0.1032
     20 C          -3.4580    1.2460    0.0000 C.ar    1  LIG1        0.1533
     21 O          -2.5830    1.7420    0.0000 O.3     1  LIG1       -0.4742
     22 C          -2.5750    2.7500    0.0000 C.3     1  LIG1        0.2056
     23 C          -1.7080    3.2460    0.0000 C.3     1  LIG1        0.0512
     24 C          -4.3170    1.7540    0.0000 C.ar    1  LIG1        0.0382
     25 C          -5.1830    1.2460    0.0000 C.ar    1  LIG1        0.0032
     26 C          -5.1830    0.2500    0.0000 C.ar    1  LIG1        0.0015
     27 C          -4.3170   -0.2460    0.0000 C.ar    1  LIG1        0.0192
     28 O          -1.8830   -1.9580    0.0000 O.2     1  LIG1       -0.1497
     29 O          -1.5880   -1.2500    0.0000 O.2     1  LIG1       -0.1497
     30 C          -3.4580   -1.7380    0.0000 C.ar    1  LIG1        0.1254
     31 C          -4.3170   -1.2420    0.0000 C.ar    1  LIG1        0.0202
     32 C          -5.1830   -1.7380    0.0000 C.ar    1  LIG1        0.0014
     33 C          -5.1920   -2.7460    0.0000 C.ar    1  LIG1        0.0001
     34 C          -4.3170   -3.2420    0.0000 C.ar    1  LIG1        0.0014
     35 C          -3.4580   -2.7460    0.0000 C.ar    1  LIG1        0.0202
@<TRIPOS>BOND
     1     1     2    1
     2     1    28    2
     3     1    29    2
     4     1    30    1
     5     2     3    1
     6     2    19    1
     7     3     4    1
     8     4     5   am
     9     4    18    2
    10     5     6    1
    11     5    17    1
    12     6     7    1
    13     7     8    1
    14     8     9    1
    15     8    16    1
    16     9    10    1
    17    10    11   ar
    18    10    15   ar
    19    11    12   ar
    20    12    13   ar
    21    13    14   ar
    22    14    15   ar
    23    16    17    1
    24    19    20   ar
    25    19    27   ar
    26    20    21    1
    27    20    24   ar
    28    21    22    1
    29    22    23    1
    30    24    25   ar
    31    25    26   ar
    32    26    27   ar
    33    30    31   ar
    34    30    35   ar
    35    31    32   ar
    36    32    33   ar
    37    33    34   ar
    38    34    35   ar
