@<TRIPOS>MOLECULE
30117_ChemDiv_5055-1602
 23 26 0 0 0
SMALL
GASTEIGER
Energy = 0

@<TRIPOS>ATOM
      1 C          -0.4500   -0.2630    0.0000 C.ar    1  LIG1       -0.0072
      2 C          -1.3210    0.2330    0.0000 C.ar    1  LIG1        0.0126
      3 C          -2.2000   -0.2630    0.0000 C.ar    1  LIG1        0.0185
      4 C          -2.2000   -1.2380    0.0000 C.ar    1  LIG1        0.0809
      5 N          -1.3210   -1.7420    0.0000 N.ar    1  LIG1       -0.2500
      6 C          -0.4500   -1.2380    0.0000 C.ar    1  LIG1        0.0550
      7 C           0.4290   -1.7460    0.0000 C.3     1  LIG1        0.0458
      8 C           1.2790   -1.2580    0.0000 C.3     1  LIG1        0.0110
      9 C           1.3000   -0.2630    0.0000 C.3     1  LIG1        0.0271
     10 C           0.4290    0.2460    0.0000 C.3     1  LIG1        0.0319
     11 C           2.1630    0.2170    0.0000 C.ar    1  LIG1       -0.0222
     12 C           2.1630    1.2130    0.0000 C.ar    1  LIG1       -0.0043
     13 C           3.0630    1.7210    0.0000 C.ar    1  LIG1       -0.0003
     14 C           3.9330    1.2130    0.0000 C.ar    1  LIG1       -0.0000
     15 C           3.9130    0.2080    0.0000 C.ar    1  LIG1       -0.0003
     16 C           3.0630   -0.2920    0.0000 C.ar    1  LIG1       -0.0043
     17 C          -3.0630   -1.7420    0.0000 C.ar    1  LIG1        0.0191
     18 C          -3.9380   -1.2380    0.0000 C.ar    1  LIG1        0.0015
     19 C          -3.9380   -0.2630    0.0000 C.ar    1  LIG1        0.0001
     20 C          -3.0630    0.2330    0.0000 C.ar    1  LIG1        0.0015
     21 C          -1.3210    1.2250    0.0000 C.2     1  LIG1        0.0726
     22 O          -2.1630    1.7500    0.0000 O.co2   1  LIG1       -0.5446
     23 O          -0.4750    1.7380    0.0000 O.co2   1  LIG1       -0.5446
@<TRIPOS>BOND
     1     1     2   ar
     2     1     6   ar
     3     1    10    1
     4     2     3   ar
     5     2    21    1
     6     3     4   ar
     7     3    20   ar
     8     4     5   ar
     9     4    17   ar
    10     5     6   ar
    11     6     7    1
    12     7     8    1
    13     8     9    1
    14     9    10    1
    15     9    11    1
    16    11    12   ar
    17    11    16   ar
    18    12    13   ar
    19    13    14   ar
    20    14    15   ar
    21    15    16   ar
    22    17    18   ar
    23    18    19   ar
    24    19    20   ar
    25    21    22   ar
    26    21    23   ar
