@<TRIPOS>MOLECULE
30114_ChemDiv_6008-0384
 25 27 0 0 0
SMALL
GASTEIGER
Energy = 0

@<TRIPOS>ATOM
      1 C           2.3960   -1.0000    0.0000 C.2     1  LIG1        0.2491
      2 N           1.4710   -1.3830    0.0000 N.am    1  LIG1       -0.2743
      3 C           0.7330   -0.6960    0.0000 C.3     1  LIG1        0.1152
      4 C          -0.2670   -0.8500    0.0000 C.3     1  LIG1        0.1152
      5 N          -0.7710   -1.7130    0.0000 N.am    1  LIG1       -0.2743
      6 C          -1.7580   -1.6420    0.0000 C.2     1  LIG1        0.2491
      7 C          -2.2040   -0.7380    0.0000 C.ar    1  LIG1        0.0536
      8 C          -3.1960   -0.6580    0.0000 C.ar    1  LIG1        0.0042
      9 C          -3.6250    0.2460    0.0000 C.ar    1  LIG1       -0.0041
     10 C          -3.0670    1.0670    0.0000 C.ar    1  LIG1       -0.0218
     11 C          -2.0750    0.9830    0.0000 C.ar    1  LIG1       -0.0041
     12 C          -1.6290    0.0960    0.0000 C.ar    1  LIG1        0.0042
     13 C          -3.5040    1.9710    0.0000 C.3     1  LIG1        0.0310
     14 O          -2.3330   -2.4670    0.0000 O.2     1  LIG1       -0.2699
     15 C          -0.3960   -2.6500    0.0000 C.3     1  LIG1        0.0955
     16 C           0.5670   -2.9380    0.0000 C.3     1  LIG1        0.0430
     17 C           1.3880   -2.3750    0.0000 C.3     1  LIG1        0.0955
     18 C           2.5500   -0.0290    0.0000 C.ar    1  LIG1        0.0536
     19 C           1.7670    0.6130    0.0000 C.ar    1  LIG1        0.0042
     20 C           1.9210    1.5880    0.0000 C.ar    1  LIG1       -0.0041
     21 C           2.8460    1.9540    0.0000 C.ar    1  LIG1       -0.0218
     22 C           3.6210    1.3290    0.0000 C.ar    1  LIG1       -0.0041
     23 C           3.4750    0.3540    0.0000 C.ar    1  LIG1        0.0042
     24 C           2.9920    2.9420    0.0000 C.3     1  LIG1        0.0310
     25 O           3.1880   -1.6420    0.0000 O.2     1  LIG1       -0.2699
@<TRIPOS>BOND
     1     1     2   am
     2     1    18    1
     3     1    25    2
     4     2     3    1
     5     2    17    1
     6     3     4    1
     7     4     5    1
     8     5     6   am
     9     5    15    1
    10     6     7    1
    11     6    14    2
    12     7     8   ar
    13     7    12   ar
    14     8     9   ar
    15     9    10   ar
    16    10    11   ar
    17    10    13    1
    18    11    12   ar
    19    15    16    1
    20    16    17    1
    21    18    19   ar
    22    18    23   ar
    23    19    20   ar
    24    20    21   ar
    25    21    22   ar
    26    21    24    1
    27    22    23   ar
