@<TRIPOS>MOLECULE
30115_ChemDiv_3606-0189
 15 17 0 0 0
SMALL
GASTEIGER
Energy = 0

@<TRIPOS>ATOM
      1 N           0.0000   -1.4960    0.0000 N.ar    1  LIG1       -0.2498
      2 C           0.8500   -0.9920    0.0000 C.ar    1  LIG1        0.0580
      3 C           0.8500    0.0210    0.0000 C.ar    1  LIG1        0.0303
      4 C          -0.0170    0.5080    0.0000 C.ar    1  LIG1        0.1942
      5 C          -0.8710   -0.0040    0.0000 C.ar    1  LIG1        0.0563
      6 C          -0.8710   -0.9960    0.0000 C.ar    1  LIG1        0.0839
      7 C          -1.7380   -1.4960    0.0000 C.ar    1  LIG1        0.0192
      8 C          -2.6000   -0.9960    0.0000 C.ar    1  LIG1        0.0015
      9 C          -2.6000   -0.0040    0.0000 C.ar    1  LIG1        0.0002
     10 C          -1.7380    0.5080    0.0000 C.ar    1  LIG1        0.0047
     11 O          -0.0170    1.5000    0.0000 O.3     1  LIG1       -0.2868
     12 C           1.7250    0.5250    0.0000 C.3     1  LIG1        0.0308
     13 C           2.5960    0.0210    0.0000 C.3     1  LIG1        0.0052
     14 C           2.5960   -0.9920    0.0000 C.3     1  LIG1        0.0066
     15 C           1.7380   -1.4790    0.0000 C.3     1  LIG1        0.0456
@<TRIPOS>BOND
     1     1     2   ar
     2     1     6   ar
     3     2     3   ar
     4     2    15    1
     5     3     4   ar
     6     3    12    1
     7     4     5   ar
     8     4    11    1
     9     5     6   ar
    10     5    10   ar
    11     6     7   ar
    12     7     8   ar
    13     8     9   ar
    14     9    10   ar
    15    12    13    1
    16    13    14    1
    17    14    15    1
