@<TRIPOS>MOLECULE
30123_ChemDiv_8008-2402
 17 18 0 0 0
SMALL
GASTEIGER
Energy = 0

@<TRIPOS>ATOM
      1 C           0.8880   -0.7710    0.0000 C.ar    1  LIG1        0.1090
      2 C           0.0080   -0.2710    0.0000 C.ar    1  LIG1        0.0853
      3 C          -0.8670   -0.7710    0.0000 C.ar    1  LIG1       -0.0016
      4 C          -0.8670   -1.7670    0.0000 C.ar    1  LIG1        0.0567
      5 N           0.0080   -2.2630    0.0000 N.ar    1  LIG1       -0.2316
      6 C           0.8880   -1.7670    0.0000 C.ar    1  LIG1        0.1792
      7 N           1.7500   -2.2420    0.0000 N.pl3   1  LIG1       -0.1065
      8 C          -1.7460   -2.2630    0.0000 C.3     1  LIG1        0.0455
      9 C          -2.6130   -1.7670    0.0000 C.3     1  LIG1        0.0066
     10 C          -2.6130   -0.7710    0.0000 C.3     1  LIG1        0.0051
     11 C          -1.7460   -0.2710    0.0000 C.3     1  LIG1        0.0278
     12 C           0.0080    0.7250    0.0000 C.2     1  LIG1        0.3418
     13 O           0.8710    1.1920    0.0000 O.2     1  LIG1       -0.2449
     14 O          -0.8500    1.2500    0.0000 O.3     1  LIG1       -0.4413
     15 C          -0.8210    2.2670    0.0000 C.3     1  LIG1        0.2560
     16 C           1.7500   -0.2880    0.0000 C.1     1  LIG1        0.1036
     17 N           2.6080    0.1960    0.0000 N.1     1  LIG1       -0.1907
@<TRIPOS>BOND
     1     1     2   ar
     2     1     6   ar
     3     1    16    1
     4     2     3   ar
     5     2    12    1
     6     3     4   ar
     7     3    11    1
     8     4     5   ar
     9     4     8    1
    10     5     6   ar
    11     6     7    1
    12     8     9    1
    13     9    10    1
    14    10    11    1
    15    12    13    2
    16    12    14    1
    17    14    15    1
    18    16    17    3
