@<TRIPOS>MOLECULE
30129_ChemDiv_C066-2842
 24 27 0 0 0
SMALL
GASTEIGER
Energy = 0

@<TRIPOS>ATOM
      1 C          -0.0080   -1.2500    0.0000 C.ar    1  LIG1        0.0811
      2 N          -0.0170   -0.2500    0.0000 N.am    1  LIG1       -0.1753
      3 C           0.8460    0.2580    0.0000 C.2     1  LIG1        0.2712
      4 C           0.8380    1.2580    0.0000 C.ar    1  LIG1        0.0828
      5 C          -0.0380    1.7460    0.0000 C.ar    1  LIG1        0.1445
      6 F          -0.9040    1.2540    0.0000 F       1  LIG1       -0.2040
      7 C          -0.0420    2.7500    0.0000 C.ar    1  LIG1        0.0298
      8 C           0.8210    3.2630    0.0000 C.ar    1  LIG1        0.0023
      9 C           1.6920    2.7710    0.0000 C.ar    1  LIG1        0.0003
     10 C           1.7080    1.7670    0.0000 C.ar    1  LIG1        0.0068
     11 O           1.7080   -0.2330    0.0000 O.2     1  LIG1       -0.2679
     12 C           0.8580   -1.7580    0.0000 C.ar    1  LIG1        0.0590
     13 C           0.8580   -2.7580    0.0000 C.ar    1  LIG1        0.2712
     14 N          -0.0080   -3.2500    0.0000 N.ar    1  LIG1        0.0709
     15 C          -0.8710   -2.7580    0.0000 C.ar    1  LIG1        0.2974
     16 C          -0.8710   -1.7500    0.0000 C.ar    1  LIG1        0.0854
     17 C          -1.7290   -1.2540    0.0000 C.ar    1  LIG1        0.0074
     18 C          -2.5920   -1.7580    0.0000 C.ar    1  LIG1        0.0004
     19 C          -2.6000   -2.7580    0.0000 C.ar    1  LIG1        0.0063
     20 C          -1.7290   -3.2580    0.0000 C.ar    1  LIG1        0.0762
     21 C           1.7250   -3.2500    0.0000 C.3     1  LIG1        0.1036
     22 C           2.5960   -2.7500    0.0000 C.3     1  LIG1        0.0117
     23 C           2.5880   -1.7500    0.0000 C.3     1  LIG1        0.0055
     24 C           1.7210   -1.2500    0.0000 C.3     1  LIG1        0.0336
@<TRIPOS>BOND
     1     1     2    1
     2     1    12   ar
     3     1    16   ar
     4     2     3   am
     5     3     4    1
     6     3    11    2
     7     4     5   ar
     8     4    10   ar
     9     5     6    1
    10     5     7   ar
    11     7     8   ar
    12     8     9   ar
    13     9    10   ar
    14    12    13   ar
    15    12    24    1
    16    13    14   ar
    17    13    21    1
    18    14    15   ar
    19    15    16   ar
    20    15    20   ar
    21    16    17   ar
    22    17    18   ar
    23    18    19   ar
    24    19    20   ar
    25    21    22    1
    26    22    23    1
    27    23    24    1
