@<TRIPOS>MOLECULE
30127_ChemDiv_8010-7320
 23 25 0 0 0
SMALL
GASTEIGER
Energy = 0

@<TRIPOS>ATOM
      1 C          -0.8710   -0.2460    0.0000 C.ar    1  LIG1        0.0537
      2 C           0.0080   -0.7380    0.0000 C.ar    1  LIG1       -0.0042
      3 C           0.0080   -1.7670    0.0000 C.ar    1  LIG1        0.0551
      4 N          -0.8710   -2.2670    0.0000 N.ar    1  LIG1       -0.2500
      5 C          -1.7420   -1.7380    0.0000 C.ar    1  LIG1        0.0810
      6 C          -1.7420   -0.7750    0.0000 C.ar    1  LIG1        0.0218
      7 C          -2.6080   -0.2790    0.0000 C.ar    1  LIG1        0.0016
      8 C          -3.4830   -0.7750    0.0000 C.ar    1  LIG1        0.0001
      9 C          -3.4830   -1.7380    0.0000 C.ar    1  LIG1        0.0015
     10 C          -2.6080   -2.2250    0.0000 C.ar    1  LIG1        0.0191
     11 C           0.8580   -2.2670    0.0000 C.3     1  LIG1        0.0455
     12 C           1.7250   -1.7380    0.0000 C.3     1  LIG1        0.0066
     13 C           1.7250   -0.7750    0.0000 C.3     1  LIG1        0.0051
     14 C           0.8580   -0.2460    0.0000 C.3     1  LIG1        0.0277
     15 C          -0.8710    0.7420    0.0000 C.2     1  LIG1        0.2651
     16 N           0.0080    1.2380    0.0000 N.am    1  LIG1       -0.1896
     17 C           0.8790    0.7420    0.0000 C.3     1  LIG1        0.2243
     18 C           1.7580    1.2710    0.0000 C.2     1  LIG1        0.3394
     19 O           1.7580    2.2710    0.0000 O.2     1  LIG1       -0.2481
     20 O           2.6080    0.7790    0.0000 O.3     1  LIG1       -0.4473
     21 C           2.6080   -0.2460    0.0000 C.3     1  LIG1        0.2086
     22 C           3.4790   -0.7380    0.0000 C.3     1  LIG1        0.0513
     23 O          -1.7420    1.2380    0.0000 O.2     1  LIG1       -0.2684
@<TRIPOS>BOND
     1     1     2   ar
     2     1     6   ar
     3     1    15    1
     4     2     3   ar
     5     2    14    1
     6     3     4   ar
     7     3    11    1
     8     4     5   ar
     9     5     6   ar
    10     5    10   ar
    11     6     7   ar
    12     7     8   ar
    13     8     9   ar
    14     9    10   ar
    15    11    12    1
    16    12    13    1
    17    13    14    1
    18    15    16   am
    19    15    23    2
    20    16    17    1
    21    17    18    1
    22    18    19    2
    23    18    20    1
    24    20    21    1
    25    21    22    1
