@<TRIPOS>MOLECULE
30125_ChemDiv_8009-2428
 20 22 0 0 0
SMALL
GASTEIGER
Energy = 0

@<TRIPOS>ATOM
      1 C           0.0040   -0.2630    0.0000 C.ar    1  LIG1        0.0537
      2 C           0.8880   -0.7580    0.0000 C.ar    1  LIG1       -0.0042
      3 C           0.8880   -1.7500    0.0000 C.ar    1  LIG1        0.0551
      4 N           0.0040   -2.2460    0.0000 N.ar    1  LIG1       -0.2500
      5 C          -0.8830   -1.7500    0.0000 C.ar    1  LIG1        0.0810
      6 C          -0.8830   -0.7580    0.0000 C.ar    1  LIG1        0.0218
      7 C          -1.7330   -0.2630    0.0000 C.ar    1  LIG1        0.0016
      8 C          -2.6210   -0.7880    0.0000 C.ar    1  LIG1        0.0001
      9 C          -2.6210   -1.7210    0.0000 C.ar    1  LIG1        0.0015
     10 C          -1.7330   -2.2460    0.0000 C.ar    1  LIG1        0.0191
     11 C           1.7380   -2.2460    0.0000 C.3     1  LIG1        0.0455
     12 C           2.6170   -1.7500    0.0000 C.3     1  LIG1        0.0066
     13 C           2.6170   -0.7580    0.0000 C.3     1  LIG1        0.0051
     14 C           1.7380   -0.2630    0.0000 C.3     1  LIG1        0.0277
     15 C           0.0040    0.7630    0.0000 C.2     1  LIG1        0.2646
     16 O          -0.8540    1.2580    0.0000 O.2     1  LIG1       -0.2684
     17 N           0.8880    1.2580    0.0000 N.am    1  LIG1       -0.1989
     18 C           1.7630    0.7630    0.0000 C.3     1  LIG1        0.1509
     19 C           2.6170    1.2580    0.0000 C.3     1  LIG1        0.2054
     20 O           2.6170    2.2500    0.0000 O.3     1  LIG1       -0.2184
@<TRIPOS>BOND
     1     1     2   ar
     2     1     6   ar
     3     1    15    1
     4     2     3   ar
     5     2    14    1
     6     3     4   ar
     7     3    11    1
     8     4     5   ar
     9     5     6   ar
    10     5    10   ar
    11     6     7   ar
    12     7     8   ar
    13     8     9   ar
    14     9    10   ar
    15    11    12    1
    16    12    13    1
    17    13    14    1
    18    15    16    2
    19    15    17   am
    20    17    18    1
    21    18    19    1
    22    19    20    1
