@<TRIPOS>MOLECULE
30133_ChemDiv_C498-1206
 25 28 0 0 0
SMALL
GASTEIGER
Energy = 0

@<TRIPOS>ATOM
      1 C           0.0040    1.7460    0.0000 C.ar    1  LIG1        0.0811
      2 N           0.0040    0.7500    0.0000 N.am    1  LIG1       -0.1754
      3 C          -0.8580    0.2540    0.0000 C.2     1  LIG1        0.2691
      4 C          -0.8580   -0.7540    0.0000 C.ar    1  LIG1        0.0584
      5 C          -1.7210   -1.2500    0.0000 C.ar    1  LIG1        0.0415
      6 C          -1.7210   -2.2420    0.0000 C.ar    1  LIG1        0.1389
      7 O          -2.5960   -2.7460    0.0000 O.3     1  LIG1       -0.4714
      8 C          -2.5960   -3.7540    0.0000 C.3     1  LIG1        0.2525
      9 C          -0.8580   -2.7460    0.0000 C.ar    1  LIG1        0.0369
     10 C           0.0080   -2.2420    0.0000 C.ar    1  LIG1        0.0033
     11 C           0.0080   -1.2500    0.0000 C.ar    1  LIG1        0.0048
     12 O          -1.7250    0.7500    0.0000 O.2     1  LIG1       -0.2680
     13 C          -0.8580    2.2540    0.0000 C.ar    1  LIG1        0.0590
     14 C          -0.8580    3.2540    0.0000 C.ar    1  LIG1        0.2712
     15 N           0.0040    3.7580    0.0000 N.ar    1  LIG1        0.0709
     16 C           0.8670    3.2540    0.0000 C.ar    1  LIG1        0.2974
     17 C           0.8670    2.2540    0.0000 C.ar    1  LIG1        0.0854
     18 C           1.7290    1.7500    0.0000 C.ar    1  LIG1        0.0074
     19 C           2.5920    2.2540    0.0000 C.ar    1  LIG1        0.0004
     20 C           2.5920    3.2540    0.0000 C.ar    1  LIG1        0.0063
     21 C           1.7290    3.7580    0.0000 C.ar    1  LIG1        0.0762
     22 C          -1.7250    3.7580    0.0000 C.3     1  LIG1        0.1036
     23 C          -2.5960    3.2540    0.0000 C.3     1  LIG1        0.0117
     24 C          -2.5960    2.2540    0.0000 C.3     1  LIG1        0.0055
     25 C          -1.7250    1.7500    0.0000 C.3     1  LIG1        0.0336
@<TRIPOS>BOND
     1     1     2    1
     2     1    13   ar
     3     1    17   ar
     4     2     3   am
     5     3     4    1
     6     3    12    2
     7     4     5   ar
     8     4    11   ar
     9     5     6   ar
    10     6     7    1
    11     6     9   ar
    12     7     8    1
    13     9    10   ar
    14    10    11   ar
    15    13    14   ar
    16    13    25    1
    17    14    15   ar
    18    14    22    1
    19    15    16   ar
    20    16    17   ar
    21    16    21   ar
    22    17    18   ar
    23    18    19   ar
    24    19    20   ar
    25    20    21   ar
    26    22    23    1
    27    23    24    1
    28    24    25    1
