@<TRIPOS>MOLECULE
30135_ChemDiv_C598-0595
 27 30 0 0 0
SMALL
GASTEIGER
Energy = 0

@<TRIPOS>ATOM
      1 N           0.4960   -0.8630    0.0000 N.ar    1  LIG1       -0.2499
      2 C           1.0000    0.0000    0.0000 C.ar    1  LIG1        0.0818
      3 C           2.0000    0.0000    0.0000 C.ar    1  LIG1        0.0279
      4 C           2.4960   -0.8630    0.0000 C.ar    1  LIG1        0.0562
      5 C           2.0000   -1.7290    0.0000 C.ar    1  LIG1        0.0020
      6 C           1.0000   -1.7290    0.0000 C.ar    1  LIG1        0.0558
      7 C           0.4960   -2.5960    0.0000 C.3     1  LIG1        0.0455
      8 C           1.0000   -3.4630    0.0000 C.3     1  LIG1        0.0066
      9 C           2.0000   -3.4630    0.0000 C.3     1  LIG1        0.0051
     10 C           2.4960   -2.5960    0.0000 C.3     1  LIG1        0.0284
     11 CL          3.4960   -0.8630    0.0000 Cl      1  LIG1       -0.0825
     12 C           2.4960    0.8670    0.0000 C.ar    1  LIG1        0.0025
     13 C           2.0000    1.7330    0.0000 C.ar    1  LIG1        0.0047
     14 C           1.0000    1.7330    0.0000 C.ar    1  LIG1        0.0569
     15 C           0.4960    2.6000    0.0000 C.2     1  LIG1        0.2690
     16 N          -0.5000    2.6000    0.0000 N.am    1  LIG1       -0.1753
     17 C          -1.0040    1.7330    0.0000 C.ar    1  LIG1        0.0781
     18 C          -2.0000    1.7330    0.0000 C.ar    1  LIG1        0.0720
     19 C          -2.5000    2.6000    0.0000 C.2     1  LIG1        0.2854
     20 O          -2.0000    3.4670    0.0000 O.2     1  LIG1       -0.2666
     21 N          -3.5000    2.6000    0.0000 N.am    1  LIG1       -0.0837
     22 C          -2.5000    0.8670    0.0000 C.ar    1  LIG1        0.0059
     23 C          -2.0000    0.0000    0.0000 C.ar    1  LIG1        0.0002
     24 C          -1.0040    0.0000    0.0000 C.ar    1  LIG1        0.0013
     25 C          -0.5000    0.8670    0.0000 C.ar    1  LIG1        0.0168
     26 O           1.0000    3.4670    0.0000 O.2     1  LIG1       -0.2680
     27 C           0.4960    0.8670    0.0000 C.ar    1  LIG1        0.0237
@<TRIPOS>BOND
     1     1     2   ar
     2     1     6   ar
     3     2     3   ar
     4     2    27   ar
     5     3     4   ar
     6     3    12   ar
     7     4     5   ar
     8     4    11    1
     9     5     6   ar
    10     5    10    1
    11     6     7    1
    12     7     8    1
    13     8     9    1
    14     9    10    1
    15    12    13   ar
    16    13    14   ar
    17    14    15    1
    18    14    27   ar
    19    15    16   am
    20    15    26    2
    21    16    17    1
    22    17    18   ar
    23    17    25   ar
    24    18    19    1
    25    18    22   ar
    26    19    20    2
    27    19    21   am
    28    22    23   ar
    29    23    24   ar
    30    24    25   ar
