@<TRIPOS>MOLECULE
30137_ChemDiv_3647-2431
 22 24 0 0 0
SMALL
GASTEIGER
Energy = 0

@<TRIPOS>ATOM
      1 C           0.4170   -0.4880    0.0000 C.ar    1  LIG1        0.3547
      2 C           0.4170    0.5040    0.0000 C.ar    1  LIG1        0.1028
      3 C          -0.4460    0.9960    0.0000 C.ar    1  LIG1        0.1023
      4 C          -1.3210    0.5040    0.0000 C.ar    1  LIG1        0.0872
      5 C          -1.3210   -0.4880    0.0000 C.ar    1  LIG1        0.2995
      6 N          -0.4460   -0.9880    0.0000 N.ar    1  LIG1        0.0925
      7 C          -2.1670   -0.9880    0.0000 C.ar    1  LIG1        0.0762
      8 C          -3.0380   -0.4880    0.0000 C.ar    1  LIG1        0.0063
      9 C          -3.0380    0.5040    0.0000 C.ar    1  LIG1        0.0004
     10 C          -2.1670    0.9960    0.0000 C.ar    1  LIG1        0.0075
     11 N          -0.4460    1.9960    0.0000 N.pl3   1  LIG1       -0.1276
     12 C           1.2880    0.9960    0.0000 C.ar    1  LIG1        0.0087
     13 C           2.1500    0.5040    0.0000 C.ar    1  LIG1        0.0003
     14 C           3.0330    0.9960    0.0000 C.ar    1  LIG1        0.0000
     15 C           3.0330    2.0210    0.0000 C.ar    1  LIG1        0.0000
     16 C           2.1420    2.5080    0.0000 C.ar    1  LIG1        0.0000
     17 C           1.2880    1.9960    0.0000 C.ar    1  LIG1        0.0003
     18 N           1.2880   -1.0170    0.0000 N.pl3   1  LIG1       -0.2508
     19 C           2.1500   -0.5170    0.0000 C.3     1  LIG1        0.0965
     20 C           3.0330   -1.0170    0.0000 C.3     1  LIG1        0.0234
     21 C           1.2880   -2.0170    0.0000 C.3     1  LIG1        0.0965
     22 C           2.1420   -2.5040    0.0000 C.3     1  LIG1        0.0234
@<TRIPOS>BOND
     1     1     2   ar
     2     1     6   ar
     3     1    18    1
     4     2     3   ar
     5     2    12    1
     6     3     4   ar
     7     3    11    1
     8     4     5   ar
     9     4    10   ar
    10     5     6   ar
    11     5     7   ar
    12     7     8   ar
    13     8     9   ar
    14     9    10   ar
    15    12    13   ar
    16    12    17   ar
    17    13    14   ar
    18    14    15   ar
    19    15    16   ar
    20    16    17   ar
    21    18    19    1
    22    18    21    1
    23    19    20    1
    24    21    22    1
