@<TRIPOS>MOLECULE
30147_ChemDiv_8016-3165
 28 31 0 0 0
SMALL
GASTEIGER
Energy = 0

@<TRIPOS>ATOM
      1 N          -0.8880   -3.2630    0.0000 N.ar    1  LIG1       -0.2500
      2 C          -0.0210   -2.7710    0.0000 C.ar    1  LIG1        0.0547
      3 C          -0.0210   -1.7710    0.0000 C.ar    1  LIG1       -0.0109
      4 C          -0.8880   -1.2790    0.0000 C.ar    1  LIG1       -0.0019
      5 C          -1.7630   -1.7710    0.0000 C.ar    1  LIG1        0.0151
      6 C          -1.7630   -2.7710    0.0000 C.ar    1  LIG1        0.0806
      7 C          -2.6210   -3.2630    0.0000 C.ar    1  LIG1        0.0191
      8 C          -3.4880   -2.7710    0.0000 C.ar    1  LIG1        0.0015
      9 C          -3.4880   -1.7710    0.0000 C.ar    1  LIG1        0.0001
     10 C          -2.6210   -1.2790    0.0000 C.ar    1  LIG1        0.0012
     11 C          -0.8880   -0.2580    0.0000 C.3     1  LIG1        0.1414
     12 N          -1.7630    0.2330    0.0000 N.am    1  LIG1       -0.1974
     13 C          -1.7630    1.2540    0.0000 C.2     1  LIG1        0.2862
     14 O          -2.6210    1.7460    0.0000 O.2     1  LIG1       -0.2693
     15 C          -0.8880    1.7460    0.0000 C.3     1  LIG1        0.2911
     16 O           0.0080    1.2540    0.0000 O.3     1  LIG1       -0.4659
     17 C           0.8830    1.7460    0.0000 C.ar    1  LIG1        0.1353
     18 C           1.7330    1.2540    0.0000 C.ar    1  LIG1        0.0130
     19 C           2.6080    1.7710    0.0000 C.ar    1  LIG1        0.0101
     20 C           2.6080    2.7420    0.0000 C.ar    1  LIG1        0.0576
     21 C           1.7330    3.2670    0.0000 C.ar    1  LIG1        0.0145
     22 C           0.8830    2.7710    0.0000 C.ar    1  LIG1        0.0375
     23 CL          3.4830    3.1960    0.0000 Cl      1  LIG1       -0.0823
     24 C           1.7210    0.2580    0.0000 C.3     1  LIG1        0.0342
     25 C           0.8580   -1.2790    0.0000 C.3     1  LIG1        0.0273
     26 C           1.7330   -1.7960    0.0000 C.3     1  LIG1        0.0051
     27 C           1.7330   -2.7420    0.0000 C.3     1  LIG1        0.0066
     28 C           0.8580   -3.2630    0.0000 C.3     1  LIG1        0.0455
@<TRIPOS>BOND
     1     1     2   ar
     2     1     6   ar
     3     2     3   ar
     4     2    28    1
     5     3     4   ar
     6     3    25    1
     7     4     5   ar
     8     4    11    1
     9     5     6   ar
    10     5    10   ar
    11     6     7   ar
    12     7     8   ar
    13     8     9   ar
    14     9    10   ar
    15    11    12    1
    16    12    13   am
    17    13    14    2
    18    13    15    1
    19    15    16    1
    20    16    17    1
    21    17    18   ar
    22    17    22   ar
    23    18    19   ar
    24    18    24    1
    25    19    20   ar
    26    20    21   ar
    27    20    23    1
    28    21    22   ar
    29    25    26    1
    30    26    27    1
    31    27    28    1
