@<TRIPOS>MOLECULE
30145_ChemDiv_8015-8493
 16 18 0 0 0
SMALL
GASTEIGER
Energy = 0

@<TRIPOS>ATOM
      1 N           0.0000   -2.0130    0.0000 N.ar    1  LIG1       -0.2499
      2 C           0.8670   -1.4920    0.0000 C.ar    1  LIG1        0.0556
      3 C           0.8670   -0.5170    0.0000 C.ar    1  LIG1        0.0010
      4 C           0.0000    0.0000    0.0000 C.ar    1  LIG1        0.0670
      5 C          -0.8670   -0.4920    0.0000 C.ar    1  LIG1        0.0270
      6 C          -0.8670   -1.5130    0.0000 C.ar    1  LIG1        0.0815
      7 C          -1.7290   -2.0130    0.0000 C.ar    1  LIG1        0.0191
      8 C          -2.5960   -1.4920    0.0000 C.ar    1  LIG1        0.0015
      9 C          -2.5960   -0.5170    0.0000 C.ar    1  LIG1        0.0001
     10 C          -1.7290    0.0000    0.0000 C.ar    1  LIG1        0.0022
     11 C           0.0000    0.9960    0.0000 C.1     1  LIG1        0.1002
     12 N           0.0000    2.0170    0.0000 N.1     1  LIG1       -0.1908
     13 C           1.7290   -0.0210    0.0000 C.3     1  LIG1        0.0282
     14 C           2.5920   -0.5170    0.0000 C.3     1  LIG1        0.0051
     15 C           2.5920   -1.4920    0.0000 C.3     1  LIG1        0.0066
     16 C           1.7290   -2.0130    0.0000 C.3     1  LIG1        0.0455
@<TRIPOS>BOND
     1     1     2   ar
     2     1     6   ar
     3     2     3   ar
     4     2    16    1
     5     3     4   ar
     6     3    13    1
     7     4     5   ar
     8     4    11    1
     9     5     6   ar
    10     5    10   ar
    11     6     7   ar
    12     7     8   ar
    13     8     9   ar
    14     9    10   ar
    15    11    12    3
    16    13    14    1
    17    14    15    1
    18    15    16    1
