@<TRIPOS>MOLECULE
30155_ChemDiv_C598-0474
 29 33 0 0 0
SMALL
GASTEIGER
Energy = 0

@<TRIPOS>ATOM
      1 N           1.4960   -0.8630    0.0000 N.ar    1  LIG1       -0.2499
      2 C           2.0000    0.0000    0.0000 C.ar    1  LIG1        0.0818
      3 C           3.0000    0.0000    0.0000 C.ar    1  LIG1        0.0279
      4 C           3.5000   -0.8630    0.0000 C.ar    1  LIG1        0.0562
      5 C           3.0000   -1.7290    0.0000 C.ar    1  LIG1        0.0020
      6 C           2.0000   -1.7290    0.0000 C.ar    1  LIG1        0.0558
      7 C           1.4960   -2.5960    0.0000 C.3     1  LIG1        0.0455
      8 C           2.0000   -3.4630    0.0000 C.3     1  LIG1        0.0066
      9 C           3.0000   -3.4630    0.0000 C.3     1  LIG1        0.0051
     10 C           3.5000   -2.5960    0.0000 C.3     1  LIG1        0.0284
     11 CL          4.4960   -0.8630    0.0000 Cl      1  LIG1       -0.0825
     12 C           3.5000    0.8670    0.0000 C.ar    1  LIG1        0.0025
     13 C           3.0000    1.7330    0.0000 C.ar    1  LIG1        0.0046
     14 C           2.0000    1.7330    0.0000 C.ar    1  LIG1        0.0551
     15 C           1.4960    2.6000    0.0000 C.2     1  LIG1        0.2492
     16 N           0.5000    2.6000    0.0000 N.am    1  LIG1       -0.2726
     17 C           0.0000    1.7330    0.0000 C.3     1  LIG1        0.1152
     18 C          -1.0000    1.7330    0.0000 C.3     1  LIG1        0.1151
     19 N          -1.5000    2.6000    0.0000 N.pl3   1  LIG1       -0.2747
     20 C          -2.5000    2.6000    0.0000 C.ar    1  LIG1        0.2203
     21 N          -3.0000    3.4670    0.0000 N.ar    1  LIG1       -0.2121
     22 C          -4.0000    3.4670    0.0000 C.ar    1  LIG1        0.1034
     23 C          -4.5000    2.6000    0.0000 C.ar    1  LIG1        0.0414
     24 C          -4.0000    1.7330    0.0000 C.ar    1  LIG1        0.1034
     25 N          -3.0000    1.7330    0.0000 N.ar    1  LIG1       -0.2121
     26 C          -1.0000    3.4670    0.0000 C.3     1  LIG1        0.1151
     27 C           0.0000    3.4670    0.0000 C.3     1  LIG1        0.1152
     28 O           2.0000    3.4670    0.0000 O.2     1  LIG1       -0.2699
     29 C           1.4960    0.8670    0.0000 C.ar    1  LIG1        0.0236
@<TRIPOS>BOND
     1     1     2   ar
     2     1     6   ar
     3     2     3   ar
     4     2    29   ar
     5     3     4   ar
     6     3    12   ar
     7     4     5   ar
     8     4    11    1
     9     5     6   ar
    10     5    10    1
    11     6     7    1
    12     7     8    1
    13     8     9    1
    14     9    10    1
    15    12    13   ar
    16    13    14   ar
    17    14    15    1
    18    14    29   ar
    19    15    16   am
    20    15    28    2
    21    16    17    1
    22    16    27    1
    23    17    18    1
    24    18    19    1
    25    19    20    1
    26    19    26    1
    27    20    21   ar
    28    20    25   ar
    29    21    22   ar
    30    22    23   ar
    31    23    24   ar
    32    24    25   ar
    33    26    27    1
