@<TRIPOS>MOLECULE
30157_ChemDiv_C660-0013
 25 28 0 0 0
SMALL
GASTEIGER
Energy = 0

@<TRIPOS>ATOM
      1 N           0.8670    1.0040    0.0000 N.ar    1  LIG1       -0.2499
      2 C           0.0040    1.5040    0.0000 C.ar    1  LIG1        0.0818
      3 C           0.0040    2.5040    0.0000 C.ar    1  LIG1        0.0279
      4 C           0.8670    3.0040    0.0000 C.ar    1  LIG1        0.0562
      5 C           1.7330    2.5040    0.0000 C.ar    1  LIG1        0.0020
      6 C           1.7210    1.5040    0.0000 C.ar    1  LIG1        0.0558
      7 C           2.5880    1.0040    0.0000 C.3     1  LIG1        0.0455
      8 C           3.4500    1.4920    0.0000 C.3     1  LIG1        0.0066
      9 C           3.4580    2.4920    0.0000 C.3     1  LIG1        0.0051
     10 C           2.5960    3.0040    0.0000 C.3     1  LIG1        0.0284
     11 CL          0.8580    4.0000    0.0000 Cl      1  LIG1       -0.0825
     12 C          -0.8540    3.0040    0.0000 C.ar    1  LIG1        0.0025
     13 C          -1.7250    2.5040    0.0000 C.ar    1  LIG1        0.0046
     14 C          -1.7250    1.5040    0.0000 C.ar    1  LIG1        0.0551
     15 C          -2.5880    1.0040    0.0000 C.2     1  LIG1        0.2491
     16 N          -2.5880    0.0040    0.0000 N.am    1  LIG1       -0.2760
     17 C          -3.4630   -0.5000    0.0000 C.3     1  LIG1        0.0948
     18 C          -3.4540   -1.5000    0.0000 C.3     1  LIG1        0.0367
     19 C          -2.5880   -2.0000    0.0000 C.3     1  LIG1        0.0948
     20 C          -2.5830   -3.0000    0.0000 C.1     1  LIG1        0.0722
     21 N          -2.5830   -4.0000    0.0000 N.1     1  LIG1       -0.1959
     22 C          -1.7210   -1.5000    0.0000 C.3     1  LIG1        0.0367
     23 C          -1.7210   -0.4920    0.0000 C.3     1  LIG1        0.0948
     24 O          -3.4630    1.5040    0.0000 O.2     1  LIG1       -0.2699
     25 C          -0.8540    1.0040    0.0000 C.ar    1  LIG1        0.0236
@<TRIPOS>BOND
     1     1     2   ar
     2     1     6   ar
     3     2     3   ar
     4     2    25   ar
     5     3     4   ar
     6     3    12   ar
     7     4     5   ar
     8     4    11    1
     9     5     6   ar
    10     5    10    1
    11     6     7    1
    12     7     8    1
    13     8     9    1
    14     9    10    1
    15    12    13   ar
    16    13    14   ar
    17    14    15    1
    18    14    25   ar
    19    15    16   am
    20    15    24    2
    21    16    17    1
    22    16    23    1
    23    17    18    1
    24    18    19    1
    25    19    20    1
    26    19    22    1
    27    20    21    3
    28    22    23    1
