@<TRIPOS>MOLECULE
30159_ChemDiv_C660-0018
 24 26 0 0 0
SMALL
GASTEIGER
Energy = 0

@<TRIPOS>ATOM
      1 N           2.6750   -0.9960    0.0000 N.ar    1  LIG1       -0.2499
      2 C           1.8130   -0.5000    0.0000 C.ar    1  LIG1        0.0818
      3 C           1.8130    0.5000    0.0000 C.ar    1  LIG1        0.0279
      4 C           2.6750    1.0000    0.0000 C.ar    1  LIG1        0.0562
      5 C           3.5420    0.5170    0.0000 C.ar    1  LIG1        0.0020
      6 C           3.5290   -0.4880    0.0000 C.ar    1  LIG1        0.0558
      7 C           4.4960   -0.8040    0.0000 C.3     1  LIG1        0.0458
      8 C           5.0920    0.0000    0.0000 C.3     1  LIG1        0.0110
      9 C           4.5000    0.8210    0.0000 C.3     1  LIG1        0.0288
     10 CL          2.6670    2.0000    0.0000 Cl      1  LIG1       -0.0825
     11 C           0.9540    1.0000    0.0000 C.ar    1  LIG1        0.0025
     12 C           0.0880    0.5000    0.0000 C.ar    1  LIG1        0.0047
     13 C           0.0880   -0.5000    0.0000 C.ar    1  LIG1        0.0565
     14 C          -0.7790   -0.9960    0.0000 C.2     1  LIG1        0.2650
     15 O          -0.7880   -1.9960    0.0000 O.2     1  LIG1       -0.2684
     16 N          -1.6500   -0.5000    0.0000 N.am    1  LIG1       -0.1953
     17 C          -1.6420    0.5000    0.0000 C.3     1  LIG1        0.1778
     18 C          -2.5000    1.0000    0.0000 C.3     1  LIG1        0.1624
     19 N          -3.3670    0.5000    0.0000 N.4     1  LIG1        0.3786
     20 C          -4.2290    1.0000    0.0000 C.3     1  LIG1        0.1388
     21 C          -5.0960    0.5130    0.0000 C.3     1  LIG1        0.0688
     22 C          -3.3670   -0.5000    0.0000 C.3     1  LIG1        0.1388
     23 C          -4.2420   -0.9880    0.0000 C.3     1  LIG1        0.0688
     24 C           0.9540   -0.9960    0.0000 C.ar    1  LIG1        0.0237
@<TRIPOS>BOND
     1     1     2   ar
     2     1     6   ar
     3     2     3   ar
     4     2    24   ar
     5     3     4   ar
     6     3    11   ar
     7     4     5   ar
     8     4    10    1
     9     5     6   ar
    10     5     9    1
    11     6     7    1
    12     7     8    1
    13     8     9    1
    14    11    12   ar
    15    12    13   ar
    16    13    14    1
    17    13    24   ar
    18    14    15    2
    19    14    16   am
    20    16    17    1
    21    17    18    1
    22    18    19    1
    23    19    20    1
    24    19    22    1
    25    20    21    1
    26    22    23    1
