@<TRIPOS>MOLECULE
30153_ChemDiv_C598-0458
 28 31 0 0 0
SMALL
GASTEIGER
Energy = 0

@<TRIPOS>ATOM
      1 N           1.5920   -1.8580    0.0000 N.ar    1  LIG1       -0.2499
      2 C           2.0960   -0.9920    0.0000 C.ar    1  LIG1        0.0818
      3 C           3.0960   -0.9920    0.0000 C.ar    1  LIG1        0.0279
      4 C           3.5920   -1.8580    0.0000 C.ar    1  LIG1        0.0562
      5 C           3.0960   -2.7250    0.0000 C.ar    1  LIG1        0.0020
      6 C           2.0960   -2.7250    0.0000 C.ar    1  LIG1        0.0558
      7 C           1.5920   -3.5920    0.0000 C.3     1  LIG1        0.0455
      8 C           2.0960   -4.4580    0.0000 C.3     1  LIG1        0.0066
      9 C           3.0960   -4.4580    0.0000 C.3     1  LIG1        0.0051
     10 C           3.5920   -3.5920    0.0000 C.3     1  LIG1        0.0284
     11 CL          4.5920   -1.8580    0.0000 Cl      1  LIG1       -0.0825
     12 C           3.5920   -0.1250    0.0000 C.ar    1  LIG1        0.0025
     13 C           3.0960    0.7380    0.0000 C.ar    1  LIG1        0.0047
     14 C           2.0960    0.7380    0.0000 C.ar    1  LIG1        0.0565
     15 C           1.5920    1.6040    0.0000 C.2     1  LIG1        0.2648
     16 O           2.0960    2.4710    0.0000 O.2     1  LIG1       -0.2684
     17 N           0.5960    1.6040    0.0000 N.am    1  LIG1       -0.2014
     18 C           0.0920    2.4710    0.0000 C.3     1  LIG1        0.1216
     19 C          -0.9040    2.4710    0.0000 C.3     1  LIG1        0.0861
     20 C          -1.4040    3.3380    0.0000 C.3     1  LIG1        0.1404
     21 N          -2.4040    3.3380    0.0000 N.4     1  LIG1        0.3773
     22 C          -2.8380    2.4380    0.0000 C.3     1  LIG1        0.1385
     23 C          -3.8170    2.2170    0.0000 C.3     1  LIG1        0.0627
     24 C          -4.5960    2.8380    0.0000 C.3     1  LIG1        0.0063
     25 C          -4.5960    3.8330    0.0000 C.3     1  LIG1        0.0063
     26 C          -3.8170    4.4580    0.0000 C.3     1  LIG1        0.0627
     27 C          -2.8380    4.2330    0.0000 C.3     1  LIG1        0.1385
     28 C           1.5920   -0.1250    0.0000 C.ar    1  LIG1        0.0237
@<TRIPOS>BOND
     1     1     2   ar
     2     1     6   ar
     3     2     3   ar
     4     2    28   ar
     5     3     4   ar
     6     3    12   ar
     7     4     5   ar
     8     4    11    1
     9     5     6   ar
    10     5    10    1
    11     6     7    1
    12     7     8    1
    13     8     9    1
    14     9    10    1
    15    12    13   ar
    16    13    14   ar
    17    14    15    1
    18    14    28   ar
    19    15    16    2
    20    15    17   am
    21    17    18    1
    22    18    19    1
    23    19    20    1
    24    20    21    1
    25    21    22    1
    26    21    27    1
    27    22    23    1
    28    23    24    1
    29    24    25    1
    30    25    26    1
    31    26    27    1
