@<TRIPOS>MOLECULE
30151_ChemDiv_C598-0436
 33 38 0 0 0
SMALL
GASTEIGER
Energy = 0

@<TRIPOS>ATOM
      1 N           1.4960   -2.5000    0.0000 N.ar    1  LIG1       -0.2499
      2 C           2.0000   -1.6330    0.0000 C.ar    1  LIG1        0.0818
      3 C           3.0000   -1.6330    0.0000 C.ar    1  LIG1        0.0279
      4 C           3.5000   -2.5000    0.0000 C.ar    1  LIG1        0.0562
      5 C           3.0000   -3.3670    0.0000 C.ar    1  LIG1        0.0020
      6 C           2.0000   -3.3670    0.0000 C.ar    1  LIG1        0.0558
      7 C           1.4960   -4.2330    0.0000 C.3     1  LIG1        0.0455
      8 C           2.0000   -5.1000    0.0000 C.3     1  LIG1        0.0066
      9 C           3.0000   -5.1000    0.0000 C.3     1  LIG1        0.0051
     10 C           3.5000   -4.2330    0.0000 C.3     1  LIG1        0.0284
     11 CL          4.4960   -2.5000    0.0000 Cl      1  LIG1       -0.0825
     12 C           3.5000   -0.7670    0.0000 C.ar    1  LIG1        0.0025
     13 C           3.0000    0.0960    0.0000 C.ar    1  LIG1        0.0046
     14 C           2.0000    0.0960    0.0000 C.ar    1  LIG1        0.0551
     15 C           1.4960    0.9630    0.0000 C.2     1  LIG1        0.2494
     16 N           0.5000    0.9630    0.0000 N.am    1  LIG1       -0.2645
     17 C           0.0000    0.0960    0.0000 C.3     1  LIG1        0.1567
     18 C          -1.0000    0.0960    0.0000 C.3     1  LIG1        0.1610
     19 N          -1.5000    0.9630    0.0000 N.4     1  LIG1        0.3834
     20 C          -2.5000    0.9630    0.0000 C.3     1  LIG1        0.1664
     21 C          -3.0000    1.8290    0.0000 C.ar    1  LIG1        0.0376
     22 C          -2.5000    2.6960    0.0000 C.ar    1  LIG1        0.0416
     23 C          -3.0000    3.5630    0.0000 C.ar    1  LIG1        0.1763
     24 C          -3.9960    3.5630    0.0000 C.ar    1  LIG1        0.1764
     25 O          -4.3080    4.5080    0.0000 O.3     1  LIG1       -0.4346
     26 C          -3.5000    5.1000    0.0000 C.3     1  LIG1        0.4294
     27 O          -2.6920    4.5080    0.0000 O.3     1  LIG1       -0.4346
     28 C          -4.5000    2.6960    0.0000 C.ar    1  LIG1        0.0401
     29 C          -3.9960    1.8290    0.0000 C.ar    1  LIG1        0.0048
     30 C          -1.0000    1.8290    0.0000 C.3     1  LIG1        0.1610
     31 C           0.0000    1.8290    0.0000 C.3     1  LIG1        0.1567
     32 O           2.0000    1.8290    0.0000 O.2     1  LIG1       -0.2699
     33 C           1.4960   -0.7670    0.0000 C.ar    1  LIG1        0.0236
@<TRIPOS>BOND
     1     1     2   ar
     2     1     6   ar
     3     2     3   ar
     4     2    33   ar
     5     3     4   ar
     6     3    12   ar
     7     4     5   ar
     8     4    11    1
     9     5     6   ar
    10     5    10    1
    11     6     7    1
    12     7     8    1
    13     8     9    1
    14     9    10    1
    15    12    13   ar
    16    13    14   ar
    17    14    15    1
    18    14    33   ar
    19    15    16   am
    20    15    32    2
    21    16    17    1
    22    16    31    1
    23    17    18    1
    24    18    19    1
    25    19    20    1
    26    19    30    1
    27    20    21    1
    28    21    22   ar
    29    21    29   ar
    30    22    23   ar
    31    23    24   ar
    32    23    27    1
    33    24    25    1
    34    24    28   ar
    35    25    26    1
    36    26    27    1
    37    28    29   ar
    38    30    31    1
