@<TRIPOS>MOLECULE
30179_ChemDiv_D015-0082
 18 20 0 0 0
SMALL
GASTEIGER
Energy = 0

@<TRIPOS>ATOM
      1 C           0.4290   -0.2630    0.0000 C.ar    1  LIG1       -0.0075
      2 C          -0.4420    0.2500    0.0000 C.ar    1  LIG1        0.0126
      3 C          -1.3080   -0.2630    0.0000 C.ar    1  LIG1        0.0185
      4 C          -1.3080   -1.2540    0.0000 C.ar    1  LIG1        0.0809
      5 N          -0.4420   -1.7540    0.0000 N.ar    1  LIG1       -0.2500
      6 C           0.4170   -1.2540    0.0000 C.ar    1  LIG1        0.0550
      7 C           1.2830   -1.7540    0.0000 C.3     1  LIG1        0.0455
      8 C           2.1580   -1.2710    0.0000 C.3     1  LIG1        0.0066
      9 C           2.1580   -0.2670    0.0000 C.3     1  LIG1        0.0048
     10 C           1.2960    0.2420    0.0000 C.3     1  LIG1        0.0276
     11 C           3.0290    0.2250    0.0000 C.3     1  LIG1        0.0004
     12 C          -2.1670   -1.7420    0.0000 C.ar    1  LIG1        0.0191
     13 C          -3.0330   -1.2540    0.0000 C.ar    1  LIG1        0.0015
     14 C          -3.0330   -0.2630    0.0000 C.ar    1  LIG1        0.0001
     15 C          -2.1670    0.2670    0.0000 C.ar    1  LIG1        0.0015
     16 C          -0.4330    1.2540    0.0000 C.2     1  LIG1        0.0726
     17 O          -1.2920    1.7580    0.0000 O.co2   1  LIG1       -0.5446
     18 O           0.4290    1.7460    0.0000 O.co2   1  LIG1       -0.5446
@<TRIPOS>BOND
     1     1     2   ar
     2     1     6   ar
     3     1    10    1
     4     2     3   ar
     5     2    16    1
     6     3     4   ar
     7     3    15   ar
     8     4     5   ar
     9     4    12   ar
    10     5     6   ar
    11     6     7    1
    12     7     8    1
    13     8     9    1
    14     9    10    1
    15     9    11    1
    16    12    13   ar
    17    13    14   ar
    18    14    15   ar
    19    16    17   ar
    20    16    18   ar
