@<TRIPOS>MOLECULE
30181_ChemDiv_3606-0534
 21 24 0 0 0
SMALL
GASTEIGER
Energy = 0

@<TRIPOS>ATOM
      1 C           2.9290   -0.7540    0.0000 C.2     1  LIG1        0.1116
      2 C           2.9290    0.1710    0.0000 C.2     1  LIG1       -0.0034
      3 C           1.3250    0.1880    0.0000 C.2     1  LIG1        0.0006
      4 C           1.3250   -0.7290    0.0000 C.2     1  LIG1        0.0777
      5 N           2.1040   -1.1960    0.0000 N.2     1  LIG1       -0.2431
      6 C           0.5250   -1.1830    0.0000 C.2     1  LIG1        0.0216
      7 C          -0.2580   -0.7290    0.0000 C.2     1  LIG1        0.0343
      8 C          -0.2580    0.2040    0.0000 C.2     1  LIG1        0.1210
      9 C           0.5420    0.6460    0.0000 C.3     1  LIG1        0.0914
     10 O          -1.1000    0.6830    0.0000 O.2     1  LIG1       -0.4746
     11 C          -1.9290    0.1880    0.0000 C.3     1  LIG1        0.2315
     12 C          -2.7920    0.6830    0.0000 C.ar    1  LIG1        0.0211
     13 C          -2.7920    1.6540    0.0000 C.ar    1  LIG1       -0.0007
     14 C          -3.6500    2.1500    0.0000 C.ar    1  LIG1       -0.0002
     15 C          -4.5040    1.6500    0.0000 C.ar    1  LIG1       -0.0000
     16 C          -4.5040    0.6460    0.0000 C.ar    1  LIG1       -0.0002
     17 C          -3.6380    0.1630    0.0000 C.ar    1  LIG1       -0.0007
     18 C           4.5000    0.1880    0.0000 C.3     1  LIG1        0.0359
     19 C           4.5000   -0.7420    0.0000 C.3     1  LIG1        0.0755
     20 C           3.7130   -1.1830    0.0000 C.2     1  LIG1        0.1905
     21 O           3.7130   -2.1460    0.0000 O.2     1  LIG1       -0.2897
@<TRIPOS>BOND
     1     1     2    1
     2     1     5    2
     3     1    20    1
     4     2     3    2
     5     2    18    1
     6     3     4    1
     7     3     9    1
     8     4     5    1
     9     4     6    2
    10     6     7    1
    11     7     8    2
    12     8     9    1
    13     8    10    1
    14    10    11    1
    15    11    12    1
    16    12    13   ar
    17    12    17   ar
    18    13    14   ar
    19    14    15   ar
    20    15    16   ar
    21    16    17   ar
    22    18    19    1
    23    19    20    1
    24    20    21    2
