@<TRIPOS>MOLECULE
30184_ChemDiv_3732-0010
 21 23 0 0 0
SMALL
GASTEIGER
Energy = 0

@<TRIPOS>ATOM
      1 C          -0.3710    1.3250    0.0000 C.ar    1  LIG1        0.1752
      2 N          -0.9630    0.4960    0.0000 N.ar    1  LIG1       -0.2854
      3 C          -1.9000    0.8000    0.0000 C.ar    1  LIG1        0.0834
      4 C          -1.9000    1.8040    0.0000 C.ar    1  LIG1        0.0995
      5 N          -0.9630    2.1080    0.0000 N.ar    1  LIG1       -0.2208
      6 C          -2.7750    2.3040    0.0000 C.ar    1  LIG1        0.0207
      7 C          -3.6460    1.8040    0.0000 C.ar    1  LIG1        0.0016
      8 C          -3.6460    0.8000    0.0000 C.ar    1  LIG1        0.0016
      9 C          -2.7750    0.2960    0.0000 C.ar    1  LIG1        0.0191
     10 C          -0.5920   -0.4460    0.0000 C.ar    1  LIG1        0.0658
     11 C           0.3920   -0.5960    0.0000 C.ar    1  LIG1        0.0176
     12 C           0.7420   -1.5130    0.0000 C.ar    1  LIG1        0.0015
     13 C           0.1290   -2.3000    0.0000 C.ar    1  LIG1        0.0001
     14 C          -0.8540   -2.1460    0.0000 C.ar    1  LIG1        0.0015
     15 C          -1.2210   -1.2080    0.0000 C.ar    1  LIG1        0.0176
     16 S           0.6330    1.3250    0.0000 S.3     1  LIG1       -0.0766
     17 C           1.1330    0.4710    0.0000 C.3     1  LIG1        0.0710
     18 C           2.1380    0.4710    0.0000 C.3     1  LIG1        0.0538
     19 C           2.6380   -0.4000    0.0000 C.2     1  LIG1        0.0512
     20 O           3.6420   -0.4000    0.0000 O.co2   1  LIG1       -0.5491
     21 O           2.1380   -1.2750    0.0000 O.co2   1  LIG1       -0.5491
@<TRIPOS>BOND
     1     1     2   ar
     2     1     5   ar
     3     1    16    1
     4     2     3   ar
     5     2    10    1
     6     3     4   ar
     7     3     9   ar
     8     4     5   ar
     9     4     6   ar
    10     6     7   ar
    11     7     8   ar
    12     8     9   ar
    13    10    11   ar
    14    10    15   ar
    15    11    12   ar
    16    12    13   ar
    17    13    14   ar
    18    14    15   ar
    19    16    17    1
    20    17    18    1
    21    18    19    1
    22    19    20   ar
    23    19    21   ar
