@<TRIPOS>MOLECULE
30186_ChemDiv_8010-4659
 20 22 0 0 0
SMALL
GASTEIGER
Energy = 0

@<TRIPOS>ATOM
      1 C          -0.2250    0.8960    0.0000 C.ar    1  LIG1        0.1756
      2 N          -0.3080   -0.0880    0.0000 N.ar    1  LIG1       -0.2854
      3 C          -1.2670   -0.3170    0.0000 C.ar    1  LIG1        0.0834
      4 C          -1.7920    0.5250    0.0000 C.ar    1  LIG1        0.0995
      5 N          -1.1540    1.2830    0.0000 N.ar    1  LIG1       -0.2208
      6 C          -2.8080    0.5130    0.0000 C.ar    1  LIG1        0.0207
      7 C          -3.2790   -0.3750    0.0000 C.ar    1  LIG1        0.0016
      8 C          -2.7500   -1.2000    0.0000 C.ar    1  LIG1        0.0016
      9 C          -1.7500   -1.2000    0.0000 C.ar    1  LIG1        0.0191
     10 C           0.4330   -0.7290    0.0000 C.ar    1  LIG1        0.0658
     11 C           0.2460   -1.7130    0.0000 C.ar    1  LIG1        0.0176
     12 C           1.0040   -2.3750    0.0000 C.ar    1  LIG1        0.0015
     13 C           1.9460   -2.0460    0.0000 C.ar    1  LIG1        0.0001
     14 C           2.1330   -1.0460    0.0000 C.ar    1  LIG1        0.0015
     15 C           1.3750   -0.4000    0.0000 C.ar    1  LIG1        0.0176
     16 S           0.6750    1.3960    0.0000 S.3     1  LIG1       -0.0690
     17 C           1.5460    0.8830    0.0000 C.3     1  LIG1        0.1293
     18 C           2.4170    1.3830    0.0000 C.2     1  LIG1        0.1624
     19 O           2.4170    2.3790    0.0000 O.2     1  LIG1       -0.2951
     20 C           3.2750    0.8830    0.0000 C.3     1  LIG1        0.0732
@<TRIPOS>BOND
     1     1     2   ar
     2     1     5   ar
     3     1    16    1
     4     2     3   ar
     5     2    10    1
     6     3     4   ar
     7     3     9   ar
     8     4     5   ar
     9     4     6   ar
    10     6     7   ar
    11     7     8   ar
    12     8     9   ar
    13    10    11   ar
    14    10    15   ar
    15    11    12   ar
    16    12    13   ar
    17    13    14   ar
    18    14    15   ar
    19    16    17    1
    20    17    18    1
    21    18    19    2
    22    18    20    1
