@<TRIPOS>MOLECULE
30191_ChemDiv_8009-9209
 24 26 0 0 0
SMALL
GASTEIGER
Energy = 0

@<TRIPOS>ATOM
      1 C          -1.5710    1.2750    0.0000 C.2     1  LIG1        0.2491
      2 C          -2.0380    0.4580    0.0000 C.ar    1  LIG1        0.0546
      3 C          -1.5290   -0.3790    0.0000 C.ar    1  LIG1        0.0112
      4 C          -2.0380   -1.2790    0.0000 C.ar    1  LIG1        0.0352
      5 C          -3.0380   -1.2790    0.0000 C.ar    1  LIG1        0.0134
      6 C          -3.5000   -0.3790    0.0000 C.ar    1  LIG1        0.0352
      7 C          -3.0380    0.4580    0.0000 C.ar    1  LIG1        0.0112
      8 BR         -4.5040   -0.3790    0.0000 Br      1  LIG1       -0.0490
      9 BR         -1.5460   -2.1500    0.0000 Br      1  LIG1       -0.0490
     10 N          -0.5790    1.2750    0.0000 N.am    1  LIG1       -0.2726
     11 C          -0.0670    2.1500    0.0000 C.3     1  LIG1        0.1151
     12 C           0.9420    2.1500    0.0000 C.3     1  LIG1        0.1124
     13 N           1.4540    1.2750    0.0000 N.pl3   1  LIG1       -0.3017
     14 C           2.4630    1.2750    0.0000 C.ar    1  LIG1        0.0824
     15 C           2.9750    0.4040    0.0000 C.ar    1  LIG1        0.1519
     16 O           2.4880   -0.4710    0.0000 O.3     1  LIG1       -0.4702
     17 C           1.5210   -0.4540    0.0000 C.3     1  LIG1        0.2525
     18 C           3.9830    0.4040    0.0000 C.ar    1  LIG1        0.0382
     19 C           4.5000    1.2750    0.0000 C.ar    1  LIG1        0.0032
     20 C           3.9830    2.1500    0.0000 C.ar    1  LIG1        0.0015
     21 C           2.9750    2.1500    0.0000 C.ar    1  LIG1        0.0176
     22 C           0.9420    0.4040    0.0000 C.3     1  LIG1        0.1124
     23 C          -0.0670    0.4040    0.0000 C.3     1  LIG1        0.1151
     24 O          -2.0630    2.1210    0.0000 O.2     1  LIG1       -0.2699
@<TRIPOS>BOND
     1     1     2    1
     2     1    10   am
     3     1    24    2
     4     2     3   ar
     5     2     7   ar
     6     3     4   ar
     7     4     5   ar
     8     4     9    1
     9     5     6   ar
    10     6     7   ar
    11     6     8    1
    12    10    11    1
    13    10    23    1
    14    11    12    1
    15    12    13    1
    16    13    14    1
    17    13    22    1
    18    14    15   ar
    19    14    21   ar
    20    15    16    1
    21    15    18   ar
    22    16    17    1
    23    18    19   ar
    24    19    20   ar
    25    20    21   ar
    26    22    23    1
