@<TRIPOS>MOLECULE
30214_ChemDiv_8017-2641
 25 27 0 0 0
SMALL
GASTEIGER
Energy = 0

@<TRIPOS>ATOM
      1 S           0.2920   -0.7960    0.0000 S.O2    1  LIG1        0.1389
      2 N          -0.7130   -0.7960    0.0000 N.pl3   1  LIG1       -0.0583
      3 C          -1.3080    0.0210    0.0000 C.2     1  LIG1        0.3220
      4 N          -2.2580   -0.2960    0.0000 N.2     1  LIG1       -0.0627
      5 C          -2.2580   -1.2960    0.0000 C.3     1  LIG1        0.3155
      6 C          -1.3080   -1.6080    0.0000 C.3     1  LIG1        0.2880
      7 C          -0.9960    0.9630    0.0000 C.3     1  LIG1        0.1451
      8 C          -1.6630    1.7080    0.0000 C.ar    1  LIG1       -0.0101
      9 C          -1.3500    2.6580    0.0000 C.ar    1  LIG1       -0.0037
     10 C          -2.0210    3.3960    0.0000 C.ar    1  LIG1       -0.0003
     11 C          -2.9960    3.1830    0.0000 C.ar    1  LIG1       -0.0000
     12 C          -3.3000    2.2330    0.0000 C.ar    1  LIG1       -0.0003
     13 C          -2.6330    1.4960    0.0000 C.ar    1  LIG1       -0.0037
     14 C           1.2960   -0.7960    0.0000 C.ar    1  LIG1        0.1823
     15 C           1.7960   -1.6670    0.0000 C.ar    1  LIG1        0.0622
     16 C           2.7960   -1.6670    0.0000 C.ar    1  LIG1        0.1404
     17 C           3.2960   -0.7960    0.0000 C.ar    1  LIG1        0.0401
     18 C           2.7960    0.0750    0.0000 C.ar    1  LIG1        0.0415
     19 C           1.7960    0.0750    0.0000 C.ar    1  LIG1        0.1596
     20 O           1.2960    0.9380    0.0000 O.3     1  LIG1       -0.4700
     21 C           1.7960    1.8000    0.0000 C.3     1  LIG1        0.2525
     22 O           3.2960   -2.5290    0.0000 O.3     1  LIG1       -0.4714
     23 C           2.7960   -3.3920    0.0000 C.3     1  LIG1        0.2525
     24 O           0.2920   -1.7960    0.0000 O.2     1  LIG1       -0.1301
     25 O           0.2920    0.2080    0.0000 O.2     1  LIG1       -0.1301
@<TRIPOS>BOND
     1     1     2    1
     2     1    14    1
     3     1    24    2
     4     1    25    2
     5     2     3    1
     6     2     6    1
     7     3     4    2
     8     3     7    1
     9     4     5    1
    10     5     6    1
    11     7     8    1
    12     8     9   ar
    13     8    13   ar
    14     9    10   ar
    15    10    11   ar
    16    11    12   ar
    17    12    13   ar
    18    14    15   ar
    19    14    19   ar
    20    15    16   ar
    21    16    17   ar
    22    16    22    1
    23    17    18   ar
    24    18    19   ar
    25    19    20    1
    26    20    21    1
    27    22    23    1
