@<TRIPOS>MOLECULE
30216_ChemDiv_8017-2652
 25 27 0 0 0
SMALL
GASTEIGER
Energy = 0

@<TRIPOS>ATOM
      1 S          -0.2040   -0.3670    0.0000 S.O2    1  LIG1        0.1360
      2 N          -1.2080   -0.3670    0.0000 N.pl3   1  LIG1       -0.0584
      3 C          -1.7960    0.4420    0.0000 C.2     1  LIG1        0.3220
      4 N          -2.7540    0.1330    0.0000 N.2     1  LIG1       -0.0627
      5 C          -2.7540   -0.8710    0.0000 C.3     1  LIG1        0.3155
      6 C          -1.7960   -1.1790    0.0000 C.3     1  LIG1        0.2880
      7 C          -1.4920    1.3920    0.0000 C.3     1  LIG1        0.1451
      8 C          -2.1580    2.1380    0.0000 C.ar    1  LIG1       -0.0101
      9 C          -3.1290    1.9210    0.0000 C.ar    1  LIG1       -0.0037
     10 C          -3.7960    2.6580    0.0000 C.ar    1  LIG1       -0.0003
     11 C          -3.4920    3.6170    0.0000 C.ar    1  LIG1       -0.0000
     12 C          -2.5170    3.8250    0.0000 C.ar    1  LIG1       -0.0003
     13 C          -1.8460    3.0790    0.0000 C.ar    1  LIG1       -0.0037
     14 C           0.7920   -0.3670    0.0000 C.ar    1  LIG1        0.1488
     15 C           1.2920   -1.2330    0.0000 C.ar    1  LIG1        0.0614
     16 C           2.2920   -1.2330    0.0000 C.ar    1  LIG1        0.1672
     17 C           2.7920   -0.3670    0.0000 C.ar    1  LIG1        0.1739
     18 C           2.2920    0.5040    0.0000 C.ar    1  LIG1        0.0342
     19 C           1.2920    0.5040    0.0000 C.ar    1  LIG1        0.0247
     20 F           3.7920   -0.3670    0.0000 F       1  LIG1       -0.2010
     21 O           2.7920   -2.0960    0.0000 O.3     1  LIG1       -0.4732
     22 C           2.2920   -2.9580    0.0000 C.3     1  LIG1        0.2056
     23 C           2.7920   -3.8210    0.0000 C.3     1  LIG1        0.0512
     24 O          -0.2040   -1.3710    0.0000 O.2     1  LIG1       -0.1302
     25 O          -0.2040    0.6330    0.0000 O.2     1  LIG1       -0.1302
@<TRIPOS>BOND
     1     1     2    1
     2     1    14    1
     3     1    24    2
     4     1    25    2
     5     2     3    1
     6     2     6    1
     7     3     4    2
     8     3     7    1
     9     4     5    1
    10     5     6    1
    11     7     8    1
    12     8     9   ar
    13     8    13   ar
    14     9    10   ar
    15    10    11   ar
    16    11    12   ar
    17    12    13   ar
    18    14    15   ar
    19    14    19   ar
    20    15    16   ar
    21    16    17   ar
    22    16    21    1
    23    17    18   ar
    24    17    20    1
    25    18    19   ar
    26    21    22    1
    27    22    23    1
