@<TRIPOS>MOLECULE
30210_ChemDiv_8016-6276
 27 29 0 0 0
SMALL
GASTEIGER
Energy = 0

@<TRIPOS>ATOM
      1 S          -1.9420    2.0080    0.0000 S.O2    1  LIG1        0.0781
      2 N          -0.9420    2.0080    0.0000 N.pl3   1  LIG1       -0.1671
      3 C          -0.3540    1.1960    0.0000 C.2     1  LIG1        0.1737
      4 N           0.5920    1.5000    0.0000 N.2     1  LIG1       -0.2478
      5 C           0.5920    2.5000    0.0000 C.3     1  LIG1        0.1508
      6 C          -0.3540    2.8130    0.0000 C.3     1  LIG1        0.1442
      7 S          -0.6580    0.2460    0.0000 S.3     1  LIG1       -0.0740
      8 C           0.0080   -0.4960    0.0000 C.3     1  LIG1        0.0934
      9 C           0.9790   -0.2880    0.0000 C.ar    1  LIG1        0.0166
     10 C           1.6540   -1.0330    0.0000 C.ar    1  LIG1        0.1370
     11 F           1.3420   -1.9830    0.0000 F       1  LIG1       -0.2045
     12 C           2.6290   -0.8250    0.0000 C.ar    1  LIG1        0.0293
     13 C           2.9380    0.1210    0.0000 C.ar    1  LIG1        0.0023
     14 C           2.2670    0.8710    0.0000 C.ar    1  LIG1       -0.0002
     15 C           1.2920    0.6580    0.0000 C.ar    1  LIG1       -0.0012
     16 C          -1.9420    1.0000    0.0000 C.ar    1  LIG1        0.1255
     17 C          -1.0710    0.5080    0.0000 C.ar    1  LIG1        0.0199
     18 C          -1.0710   -0.4960    0.0000 C.ar    1  LIG1       -0.0029
     19 C          -1.9420   -0.9880    0.0000 C.ar    1  LIG1       -0.0227
     20 C          -1.9420   -1.9960    0.0000 C.3     1  LIG1        0.0189
     21 C          -0.9420   -1.9960    0.0000 C.3     1  LIG1        0.0044
     22 C          -1.9420   -2.9960    0.0000 C.3     1  LIG1        0.0044
     23 C          -2.9420   -1.9960    0.0000 C.3     1  LIG1        0.0044
     24 C          -2.8040   -0.4960    0.0000 C.ar    1  LIG1       -0.0029
     25 C          -2.8040    0.5080    0.0000 C.ar    1  LIG1        0.0199
     26 O          -2.9420    2.0080    0.0000 O.2     1  LIG1       -0.1497
     27 O          -1.9420    3.0000    0.0000 O.2     1  LIG1       -0.1497
@<TRIPOS>BOND
     1     1     2    1
     2     1    16    1
     3     1    26    2
     4     1    27    2
     5     2     3    1
     6     2     6    1
     7     3     4    2
     8     3     7    1
     9     4     5    1
    10     5     6    1
    11     7     8    1
    12     8     9    1
    13     9    10   ar
    14     9    15   ar
    15    10    11    1
    16    10    12   ar
    17    12    13   ar
    18    13    14   ar
    19    14    15   ar
    20    16    17   ar
    21    16    25   ar
    22    17    18   ar
    23    18    19   ar
    24    19    20    1
    25    19    24   ar
    26    20    21    1
    27    20    22    1
    28    20    23    1
    29    24    25   ar
