@<TRIPOS>MOLECULE
30212_ChemDiv_8017-2639
 24 26 0 0 0
SMALL
GASTEIGER
Energy = 0

@<TRIPOS>ATOM
      1 S           0.2880   -1.2250    0.0000 S.O2    1  LIG1        0.1388
      2 N          -0.7080   -1.2250    0.0000 N.pl3   1  LIG1       -0.0583
      3 C          -1.3040   -0.4170    0.0000 C.2     1  LIG1        0.3220
      4 N          -2.2540   -0.7250    0.0000 N.2     1  LIG1       -0.0627
      5 C          -2.2540   -1.7290    0.0000 C.3     1  LIG1        0.3155
      6 C          -1.3040   -2.0380    0.0000 C.3     1  LIG1        0.2880
      7 C          -0.9920    0.5290    0.0000 C.3     1  LIG1        0.1451
      8 C          -1.6580    1.2710    0.0000 C.ar    1  LIG1       -0.0101
      9 C          -1.3460    2.2170    0.0000 C.ar    1  LIG1       -0.0037
     10 C          -2.0170    2.9580    0.0000 C.ar    1  LIG1       -0.0003
     11 C          -2.9920    2.7540    0.0000 C.ar    1  LIG1       -0.0000
     12 C          -3.2960    1.7960    0.0000 C.ar    1  LIG1       -0.0003
     13 C          -2.6290    1.0580    0.0000 C.ar    1  LIG1       -0.0037
     14 C           1.2920   -1.2250    0.0000 C.ar    1  LIG1        0.1801
     15 C           1.7920   -2.0920    0.0000 C.ar    1  LIG1        0.0367
     16 C           2.7920   -2.0920    0.0000 C.ar    1  LIG1        0.0593
     17 C           3.2920   -1.2250    0.0000 C.ar    1  LIG1        0.0146
     18 C           2.7920   -0.3540    0.0000 C.ar    1  LIG1        0.0392
     19 C           1.7920   -0.3540    0.0000 C.ar    1  LIG1        0.1595
     20 O           1.2920    0.5040    0.0000 O.3     1  LIG1       -0.4700
     21 C           1.7920    1.3670    0.0000 C.3     1  LIG1        0.2525
     22 CL          3.2920   -2.9540    0.0000 Cl      1  LIG1       -0.0822
     23 O           0.2880   -2.2290    0.0000 O.2     1  LIG1       -0.1301
     24 O           0.2880   -0.2210    0.0000 O.2     1  LIG1       -0.1301
@<TRIPOS>BOND
     1     1     2    1
     2     1    14    1
     3     1    23    2
     4     1    24    2
     5     2     3    1
     6     2     6    1
     7     3     4    2
     8     3     7    1
     9     4     5    1
    10     5     6    1
    11     7     8    1
    12     8     9   ar
    13     8    13   ar
    14     9    10   ar
    15    10    11   ar
    16    11    12   ar
    17    12    13   ar
    18    14    15   ar
    19    14    19   ar
    20    15    16   ar
    21    16    17   ar
    22    16    22    1
    23    17    18   ar
    24    18    19   ar
    25    19    20    1
    26    20    21    1
