@<TRIPOS>MOLECULE
30222_ChemDiv_3966-5190
 27 30 0 0 0
SMALL
GASTEIGER
Energy = 0

@<TRIPOS>ATOM
      1 C          -0.9170   -0.9790    0.0000 C.2     1  LIG1        0.0171
      2 C          -1.7710   -0.4920    0.0000 C.2     1  LIG1        0.1913
      3 C          -2.6250   -0.9790    0.0000 C.ar    1  LIG1        0.0347
      4 C          -2.6250   -2.0130    0.0000 C.ar    1  LIG1       -0.0188
      5 C          -1.7710   -2.4830    0.0000 C.3     1  LIG1        0.0312
      6 C          -0.9170   -2.0130    0.0000 C.3     1  LIG1        0.0343
      7 C          -3.5080   -2.4830    0.0000 C.ar    1  LIG1       -0.0042
      8 C          -4.3630   -2.0130    0.0000 C.ar    1  LIG1       -0.0003
      9 C          -4.3630   -0.9790    0.0000 C.ar    1  LIG1        0.0001
     10 C          -3.5080   -0.4920    0.0000 C.ar    1  LIG1        0.0029
     11 O          -1.7460    0.5040    0.0000 O.2     1  LIG1       -0.2869
     12 C          -0.0170   -0.4710    0.0000 C.2     1  LIG1       -0.0011
     13 C           0.8420   -0.9790    0.0000 C.ar    1  LIG1       -0.0001
     14 C           1.7210   -0.4920    0.0000 C.ar    1  LIG1        0.0045
     15 C           2.5750   -0.9790    0.0000 C.ar    1  LIG1        0.0683
     16 C           3.4670   -0.4920    0.0000 C.3     1  LIG1        0.1695
     17 N           3.4790    0.4920    0.0000 N.4     1  LIG1        0.3848
     18 C           4.3580    0.9750    0.0000 C.3     1  LIG1        0.1718
     19 C           4.3040    2.0250    0.0000 C.3     1  LIG1        0.2048
     20 O           3.4460    2.5080    0.0000 O.3     1  LIG1       -0.3411
     21 C           2.6250    1.9790    0.0000 C.3     1  LIG1        0.2048
     22 C           2.6500    1.0040    0.0000 C.3     1  LIG1        0.1718
     23 C           2.5750   -2.0130    0.0000 C.ar    1  LIG1        0.1402
     24 C           1.6960   -2.4830    0.0000 C.ar    1  LIG1        0.0368
     25 C           0.8420   -2.0130    0.0000 C.ar    1  LIG1        0.0031
     26 O           3.4210   -2.5040    0.0000 O.3     1  LIG1       -0.4715
     27 C           4.3000   -2.0330    0.0000 C.3     1  LIG1        0.2525
@<TRIPOS>BOND
     1     1     2    1
     2     1     6    1
     3     1    12    2
     4     2     3    1
     5     2    11    2
     6     3     4   ar
     7     3    10   ar
     8     4     5    1
     9     4     7   ar
    10     5     6    1
    11     7     8   ar
    12     8     9   ar
    13     9    10   ar
    14    12    13    1
    15    13    14   ar
    16    13    25   ar
    17    14    15   ar
    18    15    16    1
    19    15    23   ar
    20    16    17    1
    21    17    18    1
    22    17    22    1
    23    18    19    1
    24    19    20    1
    25    20    21    1
    26    21    22    1
    27    23    24   ar
    28    23    26    1
    29    24    25   ar
    30    26    27    1
