@<TRIPOS>MOLECULE
30228_ChemDiv_K895-0091
 36 40 0 0 0
SMALL
GASTEIGER
Energy = 0

@<TRIPOS>ATOM
      1 C           1.4130    0.1880    0.0000 C.ar    1  LIG1        0.0767
      2 C           2.3750    0.2170    0.0000 C.ar    1  LIG1        0.1168
      3 S           2.7210   -0.6830    0.0000 S.2     1  LIG1       -0.0636
      4 C           1.9460   -1.2880    0.0000 C.ar    1  LIG1        0.0806
      5 C           1.1460   -0.7540    0.0000 C.ar    1  LIG1       -0.0048
      6 C           0.2330   -1.0880    0.0000 C.3     1  LIG1        0.0319
      7 C           2.0420   -3.0210    0.0000 C.2     1  LIG1        0.2549
      8 N           1.1750   -3.5130    0.0000 N.am    1  LIG1       -0.2722
      9 C           0.3080   -3.0080    0.0000 C.3     1  LIG1        0.1152
     10 C          -0.5580   -3.5000    0.0000 C.3     1  LIG1        0.1137
     11 N          -0.5580   -4.5040    0.0000 N.pl3   1  LIG1       -0.2897
     12 C          -1.2630   -5.2130    0.0000 C.ar    1  LIG1        0.1318
     13 N          -1.0040   -6.1830    0.0000 N.ar    1  LIG1       -0.2292
     14 C          -1.7080   -6.9000    0.0000 C.ar    1  LIG1        0.1003
     15 C          -2.6630   -6.6170    0.0000 C.ar    1  LIG1        0.0208
     16 C          -2.9210   -5.6580    0.0000 C.ar    1  LIG1        0.0045
     17 C          -2.2080   -4.9580    0.0000 C.ar    1  LIG1        0.0343
     18 C           0.3080   -5.0040    0.0000 C.3     1  LIG1        0.1137
     19 C           1.1750   -4.5040    0.0000 C.3     1  LIG1        0.1152
     20 O           2.9170   -3.5750    0.0000 O.2     1  LIG1       -0.2694
     21 N           2.8330    1.0790    0.0000 N.ar    1  LIG1       -0.2186
     22 C           2.3170    1.9000    0.0000 C.ar    1  LIG1        0.1817
     23 N           1.3420    1.8580    0.0000 N.ar    1  LIG1       -0.2690
     24 C           0.8960    1.0040    0.0000 C.ar    1  LIG1        0.2640
     25 O          -0.0710    0.9630    0.0000 O.2     1  LIG1       -0.2669
     26 C           0.8250    2.6880    0.0000 C.3     1  LIG1        0.1956
     27 C           1.2670    3.5460    0.0000 C.2     1  LIG1        0.2489
     28 N           0.7500    4.3630    0.0000 N.am    1  LIG1       -0.2780
     29 C          -0.2080    4.3250    0.0000 C.3     1  LIG1        0.0934
     30 C          -0.7290    5.1380    0.0000 C.3     1  LIG1        0.0199
     31 C          -0.2750    5.9960    0.0000 C.3     1  LIG1        0.0034
     32 C           0.6880    6.0330    0.0000 C.3     1  LIG1        0.0199
     33 C           1.2040    5.2130    0.0000 C.3     1  LIG1        0.0934
     34 C           1.1460    6.9000    0.0000 C.3     1  LIG1        0.0018
     35 C          -1.6920    5.0920    0.0000 C.3     1  LIG1        0.0018
     36 O           2.2380    3.5920    0.0000 O.2     1  LIG1       -0.2728
@<TRIPOS>BOND
     1     1     2   ar
     2     1     5   ar
     3     1    24   ar
     4     2     3   ar
     5     2    21   ar
     6     3     4   ar
     7     4     5   ar
     8     4     7    1
     9     5     6    1
    10     7     8   am
    11     7    20    2
    12     8     9    1
    13     8    19    1
    14     9    10    1
    15    10    11    1
    16    11    12    1
    17    11    18    1
    18    12    13   ar
    19    12    17   ar
    20    13    14   ar
    21    14    15   ar
    22    15    16   ar
    23    16    17   ar
    24    18    19    1
    25    21    22   ar
    26    22    23   ar
    27    23    24   ar
    28    23    26    1
    29    24    25    2
    30    26    27    1
    31    27    28   am
    32    27    36    2
    33    28    29    1
    34    28    33    1
    35    29    30    1
    36    30    31    1
    37    30    35    1
    38    31    32    1
    39    32    33    1
    40    32    34    1
