@<TRIPOS>MOLECULE
30229_ChemDiv_7138-1503
 27 30 0 0 0
SMALL
GASTEIGER
Energy = 0

@<TRIPOS>ATOM
      1 C          -1.3630   -1.7210    0.0000 C.ar    1  LIG1        0.2320
      2 N          -1.9500   -2.5380    0.0000 N.ar    1  LIG1       -0.1890
      3 C          -2.9080   -2.2330    0.0000 C.ar    1  LIG1        0.2003
      4 C          -2.9080   -1.2210    0.0000 C.ar    1  LIG1        0.1828
      5 O          -1.9500   -0.9210    0.0000 O.2     1  LIG1       -0.4329
      6 C          -3.7750   -0.7290    0.0000 C.ar    1  LIG1        0.0423
      7 C          -4.6420   -1.2210    0.0000 C.ar    1  LIG1        0.0239
      8 C          -4.6420   -2.2330    0.0000 C.ar    1  LIG1        0.1008
      9 N          -3.7750   -2.7330    0.0000 N.ar    1  LIG1       -0.2224
     10 C          -0.3630   -1.7210    0.0000 C.ar    1  LIG1        0.0655
     11 C           0.1380   -2.5880    0.0000 C.ar    1  LIG1        0.0622
     12 C           1.1380   -2.5880    0.0000 C.ar    1  LIG1        0.0129
     13 C           1.6380   -1.7210    0.0000 C.ar    1  LIG1        0.0175
     14 C           1.1380   -0.8580    0.0000 C.ar    1  LIG1        0.0739
     15 N           1.6380    0.0040    0.0000 N.am    1  LIG1       -0.1755
     16 C           2.6380    0.0040    0.0000 C.2     1  LIG1        0.2687
     17 C           3.1380    0.8750    0.0000 C.ar    1  LIG1        0.0514
     18 C           4.1380    0.8750    0.0000 C.ar    1  LIG1       -0.0177
     19 C           4.6380    1.7420    0.0000 C.ar    1  LIG1       -0.0084
     20 C           4.1380    2.5920    0.0000 C.ar    1  LIG1       -0.0222
     21 C           3.1380    2.5920    0.0000 C.ar    1  LIG1       -0.0041
     22 C           2.6380    1.7420    0.0000 C.ar    1  LIG1        0.0039
     23 C           4.6380    3.4630    0.0000 C.3     1  LIG1        0.0310
     24 C           4.6380    0.0040    0.0000 C.3     1  LIG1        0.0312
     25 O           3.1380   -0.8580    0.0000 O.2     1  LIG1       -0.2680
     26 C           0.1380   -0.8580    0.0000 C.ar    1  LIG1        0.0221
     27 CL         -0.3630   -3.4580    0.0000 Cl      1  LIG1       -0.0821
@<TRIPOS>BOND
     1     1     2   ar
     2     1     5   ar
     3     1    10    1
     4     2     3   ar
     5     3     4   ar
     6     3     9   ar
     7     4     5   ar
     8     4     6   ar
     9     6     7   ar
    10     7     8   ar
    11     8     9   ar
    12    10    11   ar
    13    10    26   ar
    14    11    12   ar
    15    11    27    1
    16    12    13   ar
    17    13    14   ar
    18    14    15    1
    19    14    26   ar
    20    15    16   am
    21    16    17    1
    22    16    25    2
    23    17    18   ar
    24    17    22   ar
    25    18    19   ar
    26    18    24    1
    27    19    20   ar
    28    20    21   ar
    29    20    23    1
    30    21    22   ar
