@<TRIPOS>MOLECULE
30226_ChemDiv_K892-0302
 38 42 0 0 0
SMALL
GASTEIGER
Energy = 0

@<TRIPOS>ATOM
      1 C           0.6630   -0.1460    0.0000 C.ar    1  LIG1        0.0767
      2 C           1.6630   -0.1460    0.0000 C.ar    1  LIG1        0.1168
      3 S           1.9670   -1.0880    0.0000 S.2     1  LIG1       -0.0636
      4 C           1.1500   -1.6750    0.0000 C.ar    1  LIG1        0.0806
      5 C           0.3420   -1.0880    0.0000 C.ar    1  LIG1       -0.0048
      6 C          -0.6000   -1.3960    0.0000 C.3     1  LIG1        0.0319
      7 C           1.1500   -2.6670    0.0000 C.2     1  LIG1        0.2548
      8 N           0.2830   -3.1670    0.0000 N.am    1  LIG1       -0.2757
      9 C           0.2830   -4.1580    0.0000 C.3     1  LIG1        0.0937
     10 C          -0.5710   -4.6630    0.0000 C.3     1  LIG1        0.0219
     11 C          -1.4380   -4.1580    0.0000 C.3     1  LIG1        0.0078
     12 C          -2.2960   -4.6710    0.0000 C.3     1  LIG1        0.0265
     13 C          -2.2880   -5.6670    0.0000 C.ar    1  LIG1       -0.0222
     14 C          -3.1500   -6.1830    0.0000 C.ar    1  LIG1       -0.0043
     15 C          -3.1380   -7.1830    0.0000 C.ar    1  LIG1       -0.0003
     16 C          -2.2710   -7.6790    0.0000 C.ar    1  LIG1       -0.0000
     17 C          -1.4250   -7.1750    0.0000 C.ar    1  LIG1       -0.0003
     18 C          -1.4250   -6.1670    0.0000 C.ar    1  LIG1       -0.0043
     19 C          -1.4420   -3.1710    0.0000 C.3     1  LIG1        0.0219
     20 C          -0.5880   -2.6670    0.0000 C.3     1  LIG1        0.0937
     21 O           2.0170   -3.1670    0.0000 O.2     1  LIG1       -0.2694
     22 N           2.1540    0.7210    0.0000 N.ar    1  LIG1       -0.2186
     23 C           1.6630    1.5920    0.0000 C.ar    1  LIG1        0.1817
     24 N           0.6630    1.5920    0.0000 N.ar    1  LIG1       -0.2690
     25 C           0.1630    0.7210    0.0000 C.ar    1  LIG1        0.2640
     26 O          -0.8460    0.7210    0.0000 O.2     1  LIG1       -0.2669
     27 C           0.1460    2.4580    0.0000 C.3     1  LIG1        0.1975
     28 C           0.6460    3.3380    0.0000 C.2     1  LIG1        0.2688
     29 N           0.1460    4.1920    0.0000 N.am    1  LIG1       -0.1775
     30 C           0.6460    5.0580    0.0000 C.ar    1  LIG1        0.0742
     31 C           1.6540    5.0580    0.0000 C.ar    1  LIG1        0.0277
     32 C           2.1500    5.9250    0.0000 C.ar    1  LIG1        0.0550
     33 C           1.6540    6.8040    0.0000 C.ar    1  LIG1       -0.0112
     34 C           0.6460    6.8040    0.0000 C.ar    1  LIG1       -0.0021
     35 C           0.1460    5.9380    0.0000 C.ar    1  LIG1        0.0163
     36 C           2.1540    7.6790    0.0000 C.3     1  LIG1        0.0319
     37 CL          3.1460    5.9210    0.0000 Cl      1  LIG1       -0.0825
     38 O           1.6460    3.3420    0.0000 O.2     1  LIG1       -0.2709
@<TRIPOS>BOND
     1     1     2   ar
     2     1     5   ar
     3     1    25   ar
     4     2     3   ar
     5     2    22   ar
     6     3     4   ar
     7     4     5   ar
     8     4     7    1
     9     5     6    1
    10     7     8   am
    11     7    21    2
    12     8     9    1
    13     8    20    1
    14     9    10    1
    15    10    11    1
    16    11    12    1
    17    11    19    1
    18    12    13    1
    19    13    14   ar
    20    13    18   ar
    21    14    15   ar
    22    15    16   ar
    23    16    17   ar
    24    17    18   ar
    25    19    20    1
    26    22    23   ar
    27    23    24   ar
    28    24    25   ar
    29    24    27    1
    30    25    26    2
    31    27    28    1
    32    28    29   am
    33    28    38    2
    34    29    30    1
    35    30    31   ar
    36    30    35   ar
    37    31    32   ar
    38    32    33   ar
    39    32    37    1
    40    33    34   ar
    41    33    36    1
    42    34    35   ar
