@<TRIPOS>MOLECULE
30220_ChemDiv_3966-3117
 24 26 0 0 0
SMALL
GASTEIGER
Energy = 0

@<TRIPOS>ATOM
      1 N           0.0790   -1.0960    0.0000 N.am    1  LIG1       -0.2206
      2 C          -0.6290   -1.7210    0.0000 C.2     1  LIG1        0.2317
      3 C          -0.2630   -2.6540    0.0000 C.3     1  LIG1        0.0857
      4 C           0.7290   -2.5420    0.0000 C.3     1  LIG1        0.0857
      5 C           0.9540   -1.6000    0.0000 C.2     1  LIG1        0.2317
      6 O           1.8420   -1.1540    0.0000 O.2     1  LIG1       -0.2745
      7 C           1.3250   -3.4130    0.0000 C.3     1  LIG1        0.0096
      8 C           0.9080   -4.3170    0.0000 C.3     1  LIG1        0.0005
      9 C          -0.0830   -4.4290    0.0000 C.3     1  LIG1        0.0005
     10 C          -0.6750   -3.5920    0.0000 C.3     1  LIG1        0.0096
     11 O          -1.6210   -1.4960    0.0000 O.2     1  LIG1       -0.2745
     12 C          -0.0330   -0.0960    0.0000 C.3     1  LIG1        0.1877
     13 C           0.7670    0.5540    0.0000 C.2     1  LIG1        0.2663
     14 N           0.7290    1.5380    0.0000 N.am    1  LIG1       -0.1777
     15 C          -0.1380    2.0250    0.0000 C.ar    1  LIG1        0.0745
     16 C          -0.1380    2.9790    0.0000 C.ar    1  LIG1        0.0293
     17 C           0.7670    3.4330    0.0000 C.2     1  LIG1        0.0741
     18 O           0.8250    4.4290    0.0000 O.co2   1  LIG1       -0.5446
     19 O           1.5880    2.9330    0.0000 O.co2   1  LIG1       -0.5446
     20 C          -0.9880    3.4920    0.0000 C.ar    1  LIG1        0.0024
     21 C          -1.8460    3.0380    0.0000 C.ar    1  LIG1        0.0001
     22 C          -1.8460    1.9880    0.0000 C.ar    1  LIG1        0.0013
     23 C          -0.9880    1.5380    0.0000 C.ar    1  LIG1        0.0166
     24 O           1.7290    0.1290    0.0000 O.2     1  LIG1       -0.2711
@<TRIPOS>BOND
     1     1     2   am
     2     1     5   am
     3     1    12    1
     4     2     3    1
     5     2    11    2
     6     3     4    1
     7     3    10    1
     8     4     5    1
     9     4     7    1
    10     5     6    2
    11     7     8    1
    12     8     9    1
    13     9    10    1
    14    12    13    1
    15    13    14   am
    16    13    24    2
    17    14    15    1
    18    15    16   ar
    19    15    23   ar
    20    16    17    1
    21    16    20   ar
    22    17    18   ar
    23    17    19   ar
    24    20    21   ar
    25    21    22   ar
    26    22    23   ar
