@<TRIPOS>MOLECULE
30224_ChemDiv_3970-1970
 21 23 0 0 0
SMALL
GASTEIGER
Energy = 0

@<TRIPOS>ATOM
      1 N           0.5210   -0.7080    0.0000 N.ar    1  LIG1       -0.3074
      2 C          -0.2880   -1.3130    0.0000 C.ar    1  LIG1        0.0638
      3 C           0.0210   -2.2670    0.0000 C.ar    1  LIG1        0.0187
      4 C           1.0210   -2.2670    0.0000 C.ar    1  LIG1        0.0146
      5 C           1.3380   -1.3130    0.0000 C.ar    1  LIG1        0.0418
      6 C           2.2830   -1.0080    0.0000 C.3     1  LIG1        0.0504
      7 C          -1.2380   -1.0080    0.0000 C.ar    1  LIG1        0.0161
      8 C          -1.9670   -1.6750    0.0000 C.ar    1  LIG1        0.0014
      9 C          -2.9250   -1.3580    0.0000 C.ar    1  LIG1        0.0000
     10 C          -3.1380   -0.3750    0.0000 C.ar    1  LIG1        0.0000
     11 C          -2.3790    0.2830    0.0000 C.ar    1  LIG1        0.0000
     12 C          -1.4420   -0.0380    0.0000 C.ar    1  LIG1        0.0014
     13 C           0.5210    0.2670    0.0000 C.ar    1  LIG1        0.0979
     14 C           1.3960    0.7670    0.0000 C.ar    1  LIG1        0.1545
     15 O           2.2630    0.2670    0.0000 O.3     1  LIG1       -0.4740
     16 C           3.1170    0.7670    0.0000 C.3     1  LIG1        0.2056
     17 C           3.1330    1.7670    0.0000 C.3     1  LIG1        0.0512
     18 C           1.3960    1.7670    0.0000 C.ar    1  LIG1        0.0384
     19 C           0.5210    2.2710    0.0000 C.ar    1  LIG1        0.0032
     20 C          -0.3420    1.7790    0.0000 C.ar    1  LIG1        0.0017
     21 C          -0.3420    0.7670    0.0000 C.ar    1  LIG1        0.0206
@<TRIPOS>BOND
     1     1     2   ar
     2     1     5   ar
     3     1    13    1
     4     2     3   ar
     5     2     7    1
     6     3     4   ar
     7     4     5   ar
     8     5     6    1
     9     7     8   ar
    10     7    12   ar
    11     8     9   ar
    12     9    10   ar
    13    10    11   ar
    14    11    12   ar
    15    13    14   ar
    16    13    21   ar
    17    14    15    1
    18    14    18   ar
    19    15    16    1
    20    16    17    1
    21    18    19   ar
    22    19    20   ar
    23    20    21   ar
