@<TRIPOS>MOLECULE
30232_ChemDiv_K936-0070
 30 33 0 0 0
SMALL
GASTEIGER
Energy = 0

@<TRIPOS>ATOM
      1 C           0.2330    0.0830    0.0000 C.ar    1  LIG1        0.0767
      2 C           1.2290    0.0920    0.0000 C.ar    1  LIG1        0.1168
      3 S           1.5380   -0.8500    0.0000 S.2     1  LIG1       -0.0635
      4 C           0.7460   -1.4500    0.0000 C.ar    1  LIG1        0.0824
      5 C          -0.0670   -0.8670    0.0000 C.ar    1  LIG1       -0.0048
      6 C          -1.0170   -1.1790    0.0000 C.3     1  LIG1        0.0319
      7 C           0.7380   -2.4460    0.0000 C.2     1  LIG1        0.2747
      8 N          -0.1250   -2.9330    0.0000 N.am    1  LIG1       -0.1749
      9 C          -0.1250   -3.9460    0.0000 C.ar    1  LIG1        0.0769
     10 C          -0.9830   -4.4500    0.0000 C.ar    1  LIG1        0.0568
     11 C          -0.9830   -5.4460    0.0000 C.ar    1  LIG1        0.1777
     12 C          -0.1080   -5.9420    0.0000 C.ar    1  LIG1        0.1765
     13 O          -0.3210   -6.9170    0.0000 O.3     1  LIG1       -0.4346
     14 C          -1.3000   -7.0290    0.0000 C.3     1  LIG1        0.4294
     15 O          -1.7210   -6.1080    0.0000 O.3     1  LIG1       -0.4346
     16 C           0.7540   -5.4460    0.0000 C.ar    1  LIG1        0.0415
     17 C           0.7540   -4.4420    0.0000 C.ar    1  LIG1        0.0199
     18 O           1.6080   -2.9330    0.0000 O.2     1  LIG1       -0.2675
     19 N           1.7170    0.9630    0.0000 N.ar    1  LIG1       -0.2186
     20 C           1.2170    1.8250    0.0000 C.ar    1  LIG1        0.1817
     21 N           0.2210    1.8210    0.0000 N.ar    1  LIG1       -0.2690
     22 C          -0.2750    0.9460    0.0000 C.ar    1  LIG1        0.2640
     23 O          -1.2830    0.9330    0.0000 O.2     1  LIG1       -0.2669
     24 C          -0.3040    2.6880    0.0000 C.3     1  LIG1        0.1971
     25 C           0.1960    3.5630    0.0000 C.2     1  LIG1        0.2646
     26 O           1.1920    3.5750    0.0000 O.2     1  LIG1       -0.2712
     27 N          -0.3210    4.4170    0.0000 N.am    1  LIG1       -0.2038
     28 C           0.1790    5.2920    0.0000 C.3     1  LIG1        0.1152
     29 C          -0.3250    6.1540    0.0000 C.3     1  LIG1        0.0234
     30 C           0.1630    7.0290    0.0000 C.3     1  LIG1        0.0019
@<TRIPOS>BOND
     1     1     2   ar
     2     1     5   ar
     3     1    22   ar
     4     2     3   ar
     5     2    19   ar
     6     3     4   ar
     7     4     5   ar
     8     4     7    1
     9     5     6    1
    10     7     8   am
    11     7    18    2
    12     8     9    1
    13     9    10   ar
    14     9    17   ar
    15    10    11   ar
    16    11    12   ar
    17    11    15    1
    18    12    13    1
    19    12    16   ar
    20    13    14    1
    21    14    15    1
    22    16    17   ar
    23    19    20   ar
    24    20    21   ar
    25    21    22   ar
    26    21    24    1
    27    22    23    2
    28    24    25    1
    29    25    26    2
    30    25    27   am
    31    27    28    1
    32    28    29    1
    33    29    30    1
