@<TRIPOS>MOLECULE
30230_ChemDiv_K936-0038
 31 34 0 0 0
SMALL
GASTEIGER
Energy = 0

@<TRIPOS>ATOM
      1 C           0.0170    0.2880    0.0000 C.ar    1  LIG1        0.0767
      2 C           1.0130    0.2960    0.0000 C.ar    1  LIG1        0.1168
      3 S           1.3210   -0.6460    0.0000 S.2     1  LIG1       -0.0635
      4 C           0.5290   -1.2460    0.0000 C.ar    1  LIG1        0.0824
      5 C          -0.2880   -0.6630    0.0000 C.ar    1  LIG1       -0.0048
      6 C          -1.2380   -0.9750    0.0000 C.3     1  LIG1        0.0319
      7 C           0.5210   -2.2420    0.0000 C.2     1  LIG1        0.2747
      8 N          -0.3420   -2.7290    0.0000 N.am    1  LIG1       -0.1749
      9 C          -0.3420   -3.7500    0.0000 C.ar    1  LIG1        0.0769
     10 C           0.5290   -4.2460    0.0000 C.ar    1  LIG1        0.0566
     11 C           0.5290   -5.2380    0.0000 C.ar    1  LIG1        0.1737
     12 C          -0.3330   -5.7420    0.0000 C.ar    1  LIG1        0.1725
     13 O          -0.3330   -6.7380    0.0000 O.3     1  LIG1       -0.4684
     14 C           0.5330   -7.2380    0.0000 C.3     1  LIG1        0.2526
     15 C           1.3960   -6.7380    0.0000 C.3     1  LIG1        0.2526
     16 O           1.3960   -5.7380    0.0000 O.3     1  LIG1       -0.4683
     17 C          -1.2040   -5.2420    0.0000 C.ar    1  LIG1        0.0414
     18 C          -1.2040   -4.2460    0.0000 C.ar    1  LIG1        0.0199
     19 O           1.3920   -2.7290    0.0000 O.2     1  LIG1       -0.2675
     20 N           1.5000    1.1670    0.0000 N.ar    1  LIG1       -0.2186
     21 C           0.9960    2.0290    0.0000 C.ar    1  LIG1        0.1817
     22 N           0.0000    2.0250    0.0000 N.ar    1  LIG1       -0.2690
     23 C          -0.4920    1.1500    0.0000 C.ar    1  LIG1        0.2640
     24 O          -1.5040    1.1420    0.0000 O.2     1  LIG1       -0.2669
     25 C          -0.5250    2.8920    0.0000 C.3     1  LIG1        0.1971
     26 C          -0.0250    3.7670    0.0000 C.2     1  LIG1        0.2646
     27 O           0.9710    3.7830    0.0000 O.2     1  LIG1       -0.2712
     28 N          -0.5380    4.6250    0.0000 N.am    1  LIG1       -0.2038
     29 C          -0.0420    5.5000    0.0000 C.3     1  LIG1        0.1152
     30 C          -0.5420    6.3630    0.0000 C.3     1  LIG1        0.0234
     31 C          -0.0540    7.2380    0.0000 C.3     1  LIG1        0.0019
@<TRIPOS>BOND
     1     1     2   ar
     2     1     5   ar
     3     1    23   ar
     4     2     3   ar
     5     2    20   ar
     6     3     4   ar
     7     4     5   ar
     8     4     7    1
     9     5     6    1
    10     7     8   am
    11     7    19    2
    12     8     9    1
    13     9    10   ar
    14     9    18   ar
    15    10    11   ar
    16    11    12   ar
    17    11    16    1
    18    12    13    1
    19    12    17   ar
    20    13    14    1
    21    14    15    1
    22    15    16    1
    23    17    18   ar
    24    20    21   ar
    25    21    22   ar
    26    22    23   ar
    27    22    25    1
    28    23    24    2
    29    25    26    1
    30    26    27    2
    31    26    28   am
    32    28    29    1
    33    29    30    1
    34    30    31    1
