@<TRIPOS>MOLECULE
30239_ChemDiv_3823-0021
 26 29 0 0 0
SMALL
GASTEIGER
Energy = 0

@<TRIPOS>ATOM
      1 N           1.5580    0.3210    0.0000 N.ar    1  LIG1       -0.3099
      2 C           0.7500   -0.2040    0.0000 C.ar    1  LIG1        0.1320
      3 N          -0.0210    0.3960    0.0000 N.ar    1  LIG1       -0.2300
      4 C           0.3420    1.3040    0.0000 C.ar    1  LIG1        0.0984
      5 C           1.4000    1.2500    0.0000 C.ar    1  LIG1        0.0789
      6 C           1.9040    2.0790    0.0000 C.ar    1  LIG1        0.0188
      7 C           1.4750    3.0290    0.0000 C.ar    1  LIG1        0.0016
      8 C           0.4250    3.0790    0.0000 C.ar    1  LIG1        0.0016
      9 C          -0.1000    2.1710    0.0000 C.ar    1  LIG1        0.0206
     10 C           0.7420   -1.2000    0.0000 C.3     1  LIG1        0.1288
     11 S          -0.1330   -1.6880    0.0000 S.3     1  LIG1       -0.0674
     12 C          -0.9960   -1.1630    0.0000 C.ar    1  LIG1        0.1944
     13 N          -1.8580   -1.6540    0.0000 N.ar    1  LIG1       -0.2027
     14 C          -2.7210   -1.1630    0.0000 C.ar    1  LIG1        0.1766
     15 C          -2.7210   -0.1750    0.0000 C.ar    1  LIG1        0.1001
     16 C          -1.8580    0.3420    0.0000 C.ar    1  LIG1        0.2840
     17 N          -0.9960   -0.1540    0.0000 N.ar    1  LIG1       -0.1827
     18 O          -1.8580    1.3210    0.0000 O.2     1  LIG1       -0.2650
     19 N          -3.6040   -1.6750    0.0000 N.pl3   1  LIG1       -0.1070
     20 C           2.4670   -0.0670    0.0000 C.3     1  LIG1        0.1339
     21 C           2.5960   -1.0670    0.0000 C.ar    1  LIG1        0.0004
     22 C           1.7750   -1.7000    0.0000 C.ar    1  LIG1       -0.0024
     23 C           1.8920   -2.6790    0.0000 C.ar    1  LIG1       -0.0003
     24 C           2.8250   -3.0750    0.0000 C.ar    1  LIG1       -0.0000
     25 C           3.6000   -2.4670    0.0000 C.ar    1  LIG1       -0.0003
     26 C           3.5000   -1.4710    0.0000 C.ar    1  LIG1       -0.0024
@<TRIPOS>BOND
     1     1     2   ar
     2     1     5   ar
     3     1    20    1
     4     2     3   ar
     5     2    10    1
     6     3     4   ar
     7     4     5   ar
     8     4     9   ar
     9     5     6   ar
    10     6     7   ar
    11     7     8   ar
    12     8     9   ar
    13    10    11    1
    14    11    12    1
    15    12    13   ar
    16    12    17   ar
    17    13    14   ar
    18    14    15   ar
    19    14    19    1
    20    15    16   ar
    21    16    17   ar
    22    16    18    2
    23    20    21    1
    24    21    22   ar
    25    21    26   ar
    26    22    23   ar
    27    23    24   ar
    28    24    25   ar
    29    25    26   ar
