@<TRIPOS>MOLECULE
30235_ChemDiv_6408-0671
 31 33 0 0 0
SMALL
GASTEIGER
Energy = 0

@<TRIPOS>ATOM
      1 C          -5.1790   -3.5630    0.0000 C.ar    1  LIG1        0.3688
      2 N          -5.0750   -2.5750    0.0000 N.ar    1  LIG1       -0.1893
      3 C          -4.1040   -2.3580    0.0000 C.ar    1  LIG1        0.1050
      4 C          -3.6040   -3.2290    0.0000 C.ar    1  LIG1        0.1038
      5 N          -4.2670   -3.9710    0.0000 N.ar    1  LIG1       -0.1893
      6 C          -2.6040   -3.2210    0.0000 C.ar    1  LIG1        0.0221
      7 C          -2.1040   -2.3580    0.0000 C.ar    1  LIG1        0.0160
      8 C          -2.6130   -1.4920    0.0000 C.ar    1  LIG1        0.0465
      9 C          -3.6130   -1.4920    0.0000 C.ar    1  LIG1        0.0351
     10 N          -2.1130   -0.6330    0.0000 N.pl3   1  LIG1       -0.3290
     11 C          -1.1130   -0.6330    0.0000 C.3     1  LIG1        0.1144
     12 C          -0.4080    0.0670    0.0000 C.ar    1  LIG1        0.0011
     13 C           0.5630   -0.1790    0.0000 C.ar    1  LIG1        0.0073
     14 C           1.2670    0.5290    0.0000 C.ar    1  LIG1        0.0713
     15 C           1.0080    1.4960    0.0000 C.ar    1  LIG1        0.1790
     16 C           0.0380    1.7540    0.0000 C.ar    1  LIG1        0.1726
     17 C          -0.6710    1.0380    0.0000 C.ar    1  LIG1        0.0375
     18 O          -0.2250    2.7170    0.0000 O.3     1  LIG1       -0.4684
     19 C           0.4830    3.4330    0.0000 C.3     1  LIG1        0.2526
     20 O           1.7170    2.2080    0.0000 O.3     1  LIG1       -0.4620
     21 C           2.6790    1.9460    0.0000 C.3     1  LIG1        0.2913
     22 C           3.3880    2.6540    0.0000 C.2     1  LIG1        0.2858
     23 N           4.3580    2.3960    0.0000 N.am    1  LIG1       -0.2057
     24 C           5.0670    3.1040    0.0000 C.3     1  LIG1        0.0789
     25 C           4.8040    4.0710    0.0000 C.3     1  LIG1        0.0217
     26 C           5.5630    2.2460    0.0000 C.3     1  LIG1        0.0217
     27 C           6.0380    2.8460    0.0000 C.3     1  LIG1        0.0217
     28 O           3.1290    3.6210    0.0000 O.2     1  LIG1       -0.2693
     29 BR          2.2380    0.2710    0.0000 Br      1  LIG1       -0.0457
     30 O          -6.0330   -4.0710    0.0000 O.2     1  LIG1       -0.2426
     31 H          -2.6130    0.2250    0.0000 H       1  LIG1        0.1471
@<TRIPOS>BOND
     1     1     2   ar
     2     1     5   ar
     3     1    30    2
     4     2     3   ar
     5     3     4   ar
     6     3     9   ar
     7     4     5   ar
     8     4     6   ar
     9     6     7   ar
    10     7     8   ar
    11     8     9   ar
    12     8    10    1
    13    10    11    1
    14    10    31    1
    15    11    12    1
    16    12    13   ar
    17    12    17   ar
    18    13    14   ar
    19    14    15   ar
    20    14    29    1
    21    15    16   ar
    22    15    20    1
    23    16    17   ar
    24    16    18    1
    25    18    19    1
    26    20    21    1
    27    21    22    1
    28    22    23   am
    29    22    28    2
    30    23    24    1
    31    24    25    1
    32    24    26    1
    33    24    27    1
