@<TRIPOS>MOLECULE
30233_ChemDiv_6408-0022
 21 24 0 0 0
SMALL
GASTEIGER
Energy = 0

@<TRIPOS>ATOM
      1 C          -4.0830   -0.7380    0.0000 C.ar    1  LIG1        0.3688
      2 N          -3.4960    0.0710    0.0000 N.ar    1  LIG1       -0.1893
      3 C          -2.5420   -0.2420    0.0000 C.ar    1  LIG1        0.1050
      4 C          -2.5420   -1.2380    0.0000 C.ar    1  LIG1        0.1038
      5 N          -3.4960   -1.5500    0.0000 N.ar    1  LIG1       -0.1893
      6 C          -1.6710   -1.7460    0.0000 C.ar    1  LIG1        0.0221
      7 C          -0.8000   -1.2380    0.0000 C.ar    1  LIG1        0.0177
      8 C          -0.8000   -0.2420    0.0000 C.ar    1  LIG1        0.0673
      9 C          -1.6710    0.2670    0.0000 C.ar    1  LIG1        0.0369
     10 N           0.0710    0.2580    0.0000 N.pl3   1  LIG1       -0.2328
     11 C           0.9380   -0.2420    0.0000 C.3     1  LIG1        0.1386
     12 C           1.8000    0.2580    0.0000 C.ar    1  LIG1        0.0026
     13 C           2.6710   -0.2420    0.0000 C.ar    1  LIG1        0.0376
     14 C           3.5330    0.2580    0.0000 C.ar    1  LIG1        0.1762
     15 C           3.5330    1.2500    0.0000 C.ar    1  LIG1        0.1764
     16 O           4.4790    1.5580    0.0000 O.3     1  LIG1       -0.4346
     17 C           5.0750    0.7580    0.0000 C.3     1  LIG1        0.4294
     18 O           4.4790   -0.0500    0.0000 O.3     1  LIG1       -0.4346
     19 C           2.6710    1.7500    0.0000 C.ar    1  LIG1        0.0399
     20 C           1.8000    1.2500    0.0000 C.ar    1  LIG1        0.0008
     21 O          -5.0790   -0.7380    0.0000 O.2     1  LIG1       -0.2426
@<TRIPOS>BOND
     1     1     2   ar
     2     1     5   ar
     3     1    21    2
     4     2     3   ar
     5     3     4   ar
     6     3     9   ar
     7     4     5   ar
     8     4     6   ar
     9     6     7   ar
    10     7     8   ar
    11     8     9   ar
    12     8    10    1
    13    10    11    1
    14    11    12    1
    15    12    13   ar
    16    12    20   ar
    17    13    14   ar
    18    14    15   ar
    19    14    18    1
    20    15    16    1
    21    15    19   ar
    22    16    17    1
    23    17    18    1
    24    19    20   ar
