@<TRIPOS>MOLECULE
30246_ChemDiv_6060-0184
 30 32 0 0 0
SMALL
GASTEIGER
Energy = 0

@<TRIPOS>ATOM
      1 N           0.5790    1.4670    0.0000 N.ar    1  LIG1       -0.3098
      2 C          -0.2330    2.0710    0.0000 C.ar    1  LIG1        0.0637
      3 C           0.0670    3.0250    0.0000 C.ar    1  LIG1        0.0187
      4 C           1.0790    3.0250    0.0000 C.ar    1  LIG1        0.0146
      5 C           1.3880    2.0710    0.0000 C.ar    1  LIG1        0.0417
      6 C           2.3330    1.7500    0.0000 C.3     1  LIG1        0.0500
      7 C           3.0790    2.4170    0.0000 C.3     1  LIG1        0.0479
      8 C           4.0330    2.1170    0.0000 C.2     1  LIG1        0.0507
      9 O           4.2330    1.1290    0.0000 O.co2   1  LIG1       -0.5492
     10 O           4.7750    2.7790    0.0000 O.co2   1  LIG1       -0.5492
     11 C          -1.1790    1.7500    0.0000 C.ar    1  LIG1        0.0163
     12 C          -1.9290    2.4170    0.0000 C.ar    1  LIG1        0.0046
     13 C          -2.8750    2.1170    0.0000 C.ar    1  LIG1        0.0369
     14 C          -3.0830    1.1290    0.0000 C.ar    1  LIG1        0.1387
     15 C          -2.3290    0.4630    0.0000 C.ar    1  LIG1        0.0369
     16 C          -1.3830    0.7830    0.0000 C.ar    1  LIG1        0.0046
     17 O          -4.0370    0.8170    0.0000 O.3     1  LIG1       -0.4714
     18 C          -4.7790    1.4830    0.0000 C.3     1  LIG1        0.2525
     19 C           0.5790    0.4790    0.0000 C.ar    1  LIG1        0.0669
     20 C           1.4420   -0.0210    0.0000 C.ar    1  LIG1        0.0597
     21 C           1.4420   -1.0170    0.0000 C.ar    1  LIG1        0.2033
     22 C           0.5670   -1.5210    0.0000 C.ar    1  LIG1        0.1145
     23 C           0.5790   -2.5130    0.0000 C.2     1  LIG1        0.3444
     24 O           1.4420   -3.0130    0.0000 O.2     1  LIG1       -0.2448
     25 O          -0.2960   -3.0210    0.0000 O.3     1  LIG1       -0.4454
     26 C          -1.1580   -2.5290    0.0000 C.3     1  LIG1        0.2089
     27 C          -2.0250   -3.0210    0.0000 C.3     1  LIG1        0.0513
     28 C          -0.2960   -1.0170    0.0000 C.ar    1  LIG1        0.0112
     29 C          -0.2960   -0.0210    0.0000 C.ar    1  LIG1        0.0179
     30 O           2.3080   -1.5040    0.0000 O.3     1  LIG1       -0.2863
@<TRIPOS>BOND
     1     1     2   ar
     2     1     5   ar
     3     1    19    1
     4     2     3   ar
     5     2    11    1
     6     3     4   ar
     7     4     5   ar
     8     5     6    1
     9     6     7    1
    10     7     8    1
    11     8     9   ar
    12     8    10   ar
    13    11    12   ar
    14    11    16   ar
    15    12    13   ar
    16    13    14   ar
    17    14    15   ar
    18    14    17    1
    19    15    16   ar
    20    17    18    1
    21    19    20   ar
    22    19    29   ar
    23    20    21   ar
    24    21    22   ar
    25    21    30    1
    26    22    23    1
    27    22    28   ar
    28    23    24    2
    29    23    25    1
    30    25    26    1
    31    26    27    1
    32    28    29   ar
