@<TRIPOS>MOLECULE
30244_ChemDiv_6060-0054
 26 28 0 0 0
SMALL
GASTEIGER
Energy = 0

@<TRIPOS>ATOM
      1 N           0.2080    1.4670    0.0000 N.ar    1  LIG1       -0.3099
      2 C          -0.6040    2.0670    0.0000 C.ar    1  LIG1        0.0637
      3 C          -0.3000    3.0210    0.0000 C.ar    1  LIG1        0.0187
      4 C           0.7080    3.0210    0.0000 C.ar    1  LIG1        0.0146
      5 C           1.0130    2.0670    0.0000 C.ar    1  LIG1        0.0417
      6 C           1.9630    1.7500    0.0000 C.3     1  LIG1        0.0500
      7 C           2.7040    2.4170    0.0000 C.3     1  LIG1        0.0479
      8 C           3.6580    2.1130    0.0000 C.2     1  LIG1        0.0507
      9 O           3.8580    1.1290    0.0000 O.co2   1  LIG1       -0.5492
     10 O           4.4000    2.7790    0.0000 O.co2   1  LIG1       -0.5492
     11 C          -1.5500    1.7500    0.0000 C.ar    1  LIG1        0.0161
     12 C          -1.7540    0.7830    0.0000 C.ar    1  LIG1        0.0011
     13 C          -2.7000    0.4630    0.0000 C.ar    1  LIG1       -0.0042
     14 C          -3.4500    1.1290    0.0000 C.ar    1  LIG1       -0.0218
     15 C          -3.2420    2.1130    0.0000 C.ar    1  LIG1       -0.0042
     16 C          -2.3000    2.4170    0.0000 C.ar    1  LIG1        0.0011
     17 C          -4.4040    0.8170    0.0000 C.3     1  LIG1        0.0310
     18 C           0.2080    0.4790    0.0000 C.ar    1  LIG1        0.0637
     19 C          -0.6670   -0.0210    0.0000 C.ar    1  LIG1        0.0175
     20 C          -0.6670   -1.0130    0.0000 C.ar    1  LIG1        0.0026
     21 C           0.1960   -1.5210    0.0000 C.ar    1  LIG1        0.0141
     22 C           0.2080   -2.5130    0.0000 C.2     1  LIG1        0.0729
     23 O          -0.6670   -3.0170    0.0000 O.co2   1  LIG1       -0.5446
     24 O           1.0710   -3.0130    0.0000 O.co2   1  LIG1       -0.5446
     25 C           1.0710   -1.0130    0.0000 C.ar    1  LIG1        0.0026
     26 C           1.0710   -0.0210    0.0000 C.ar    1  LIG1        0.0175
@<TRIPOS>BOND
     1     1     2   ar
     2     1     5   ar
     3     1    18    1
     4     2     3   ar
     5     2    11    1
     6     3     4   ar
     7     4     5   ar
     8     5     6    1
     9     6     7    1
    10     7     8    1
    11     8     9   ar
    12     8    10   ar
    13    11    12   ar
    14    11    16   ar
    15    12    13   ar
    16    13    14   ar
    17    14    15   ar
    18    14    17    1
    19    15    16   ar
    20    18    19   ar
    21    18    26   ar
    22    19    20   ar
    23    20    21   ar
    24    21    22    1
    25    21    25   ar
    26    22    23   ar
    27    22    24   ar
    28    25    26   ar
