@<TRIPOS>MOLECULE
30242_ChemDiv_5689-0007
 25 28 0 0 0
SMALL
GASTEIGER
Energy = 0

@<TRIPOS>ATOM
      1 N           1.5000    0.7290    0.0000 N.ar    1  LIG1       -0.3099
      2 C           1.4170    1.7170    0.0000 C.ar    1  LIG1        0.0637
      3 C           2.3040    2.1130    0.0000 C.ar    1  LIG1        0.0187
      4 C           2.9750    1.3710    0.0000 C.ar    1  LIG1        0.0146
      5 C           2.4710    0.5170    0.0000 C.ar    1  LIG1        0.0418
      6 C           2.7290   -0.4500    0.0000 C.3     1  LIG1        0.0504
      7 C           0.5460    2.2170    0.0000 C.ar    1  LIG1        0.0175
      8 C          -0.3290    1.7170    0.0000 C.ar    1  LIG1        0.0195
      9 C          -1.1960    2.2170    0.0000 C.ar    1  LIG1        0.0891
     10 N          -2.0630    1.7170    0.0000 N.pl3   1  LIG1       -0.1281
     11 C          -1.1960    3.2170    0.0000 C.ar    1  LIG1        0.0181
     12 C          -0.3290    3.7170    0.0000 C.ar    1  LIG1        0.0014
     13 C           0.5460    3.2170    0.0000 C.ar    1  LIG1        0.0015
     14 C           0.7920    0.0290    0.0000 C.ar    1  LIG1        0.0638
     15 C           0.5460   -0.9420    0.0000 C.ar    1  LIG1        0.0205
     16 C          -0.4250   -1.2000    0.0000 C.ar    1  LIG1        0.0360
     17 C          -0.6960   -2.1710    0.0000 C.ar    1  LIG1        0.1449
     18 O          -1.7040   -2.1710    0.0000 O.2     1  LIG1       -0.4577
     19 C          -2.0040   -3.1210    0.0000 C.ar    1  LIG1        0.1233
     20 C          -1.1960   -3.7130    0.0000 C.ar    1  LIG1        0.0361
     21 C          -0.3920   -3.1210    0.0000 C.ar    1  LIG1        0.0403
     22 C          -2.9790   -3.3710    0.0000 C.3     1  LIG1        0.0725
     23 C          -1.1500   -0.4960    0.0000 C.ar    1  LIG1        0.0031
     24 C          -0.8920    0.4580    0.0000 C.ar    1  LIG1        0.0016
     25 C           0.0790    0.7290    0.0000 C.ar    1  LIG1        0.0175
@<TRIPOS>BOND
     1     1     2   ar
     2     1     5   ar
     3     1    14    1
     4     2     3   ar
     5     2     7    1
     6     3     4   ar
     7     4     5   ar
     8     5     6    1
     9     7     8   ar
    10     7    13   ar
    11     8     9   ar
    12     9    10    1
    13     9    11   ar
    14    11    12   ar
    15    12    13   ar
    16    14    15   ar
    17    14    25   ar
    18    15    16   ar
    19    16    17    1
    20    16    23   ar
    21    17    18   ar
    22    17    21   ar
    23    18    19   ar
    24    19    20   ar
    25    19    22    1
    26    20    21   ar
    27    23    24   ar
    28    24    25   ar
