@<TRIPOS>MOLECULE
30256_ChemDiv_3996-0113
 25 27 0 0 0
SMALL
GASTEIGER
Energy = 0

@<TRIPOS>ATOM
      1 C          -2.6540   -0.8420    0.0000 C.ar    1  LIG1        0.1684
      2 N          -1.7250   -1.2170    0.0000 N.ar    1  LIG1       -0.2019
      3 C          -0.9460   -0.6210    0.0000 C.ar    1  LIG1        0.1946
      4 N          -1.0750    0.3960    0.0000 N.ar    1  LIG1       -0.1827
      5 C          -2.0000    0.7670    0.0000 C.ar    1  LIG1        0.2836
      6 C          -2.8040    0.1500    0.0000 C.ar    1  LIG1        0.0898
      7 C          -3.7080    0.5460    0.0000 C.ar    1  LIG1       -0.0130
      8 C          -4.5130   -0.0880    0.0000 C.ar    1  LIG1        0.0108
      9 C          -4.3630   -1.0750    0.0000 C.ar    1  LIG1        0.0607
     10 N          -3.4290   -1.4540    0.0000 N.ar    1  LIG1       -0.2308
     11 C          -5.1380   -1.6960    0.0000 C.3     1  LIG1        0.0521
     12 C          -3.8500    1.5130    0.0000 C.3     1  LIG1        0.0313
     13 O          -2.1460    1.7630    0.0000 O.3     1  LIG1       -0.2650
     14 S          -0.0170   -0.9920    0.0000 S.3     1  LIG1       -0.0672
     15 C           0.7790   -0.3710    0.0000 C.3     1  LIG1        0.1340
     16 C           1.6960   -0.7710    0.0000 C.2     1  LIG1        0.1844
     17 C           2.4880   -0.1580    0.0000 C.ar    1  LIG1        0.0390
     18 C           3.4250   -0.5420    0.0000 C.ar    1  LIG1        0.0483
     19 C           4.2290    0.0630    0.0000 C.ar    1  LIG1        0.2343
     20 C           4.0880    1.0790    0.0000 C.ar    1  LIG1        0.2343
     21 C           3.1500    1.4290    0.0000 C.ar    1  LIG1        0.0455
     22 C           2.3750    0.8290    0.0000 C.ar    1  LIG1        0.0064
     23 O           4.8790    1.6790    0.0000 O.3     1  LIG1       -0.2831
     24 O           5.1330   -0.3080    0.0000 O.3     1  LIG1       -0.2831
     25 O           1.8420   -1.7580    0.0000 O.2     1  LIG1       -0.2904
@<TRIPOS>BOND
     1     1     2   ar
     2     1     6   ar
     3     1    10   ar
     4     2     3   ar
     5     3     4   ar
     6     3    14    1
     7     4     5   ar
     8     5     6   ar
     9     5    13    1
    10     6     7   ar
    11     7     8   ar
    12     7    12    1
    13     8     9   ar
    14     9    10   ar
    15     9    11    1
    16    14    15    1
    17    15    16    1
    18    16    17    1
    19    16    25    2
    20    17    18   ar
    21    17    22   ar
    22    18    19   ar
    23    19    20   ar
    24    19    24    1
    25    20    21   ar
    26    20    23    1
    27    21    22   ar
