@<TRIPOS>MOLECULE
30254_ChemDiv_3993-3999
 20 21 0 0 0
SMALL
GASTEIGER
Energy = 0

@<TRIPOS>ATOM
      1 N          -1.7330   -0.7790    0.0000 N.ar    1  LIG1       -0.2053
      2 C          -0.8750   -0.2710    0.0000 C.ar    1  LIG1        0.2928
      3 C          -0.8750    0.7330    0.0000 C.ar    1  LIG1        0.1171
      4 N          -1.7540    1.2290    0.0000 N.ar    1  LIG1       -0.2433
      5 C          -2.6080    0.7330    0.0000 C.ar    1  LIG1        0.0987
      6 C          -2.6080   -0.2710    0.0000 C.ar    1  LIG1        0.1021
      7 C          -3.4750   -0.7830    0.0000 C.ar    1  LIG1        0.0207
      8 C          -4.3330   -0.2920    0.0000 C.ar    1  LIG1        0.0016
      9 C          -4.3330    0.7170    0.0000 C.ar    1  LIG1        0.0016
     10 C          -3.4750    1.2290    0.0000 C.ar    1  LIG1        0.0206
     11 C          -0.0130    1.2330    0.0000 C.3     1  LIG1        0.0625
     12 C           0.8420    0.7460    0.0000 C.3     1  LIG1        0.1160
     13 C           1.7170    1.2500    0.0000 C.2     1  LIG1        0.3174
     14 O           1.7170    2.2460    0.0000 O.2     1  LIG1       -0.2501
     15 O           2.5920    0.7500    0.0000 O.3     1  LIG1       -0.4485
     16 C           2.5920   -0.2380    0.0000 C.3     1  LIG1        0.2084
     17 C           3.4460   -0.7330    0.0000 C.3     1  LIG1        0.0474
     18 C           3.4630   -1.7380    0.0000 C.3     1  LIG1        0.0038
     19 C           4.3290   -2.2420    0.0000 C.3     1  LIG1        0.0001
     20 O          -0.0040   -0.7790    0.0000 O.3     1  LIG1       -0.2639
@<TRIPOS>BOND
     1     1     2   ar
     2     1     6   ar
     3     2     3   ar
     4     2    20    1
     5     3     4   ar
     6     3    11    1
     7     4     5   ar
     8     5     6   ar
     9     5    10   ar
    10     6     7   ar
    11     7     8   ar
    12     8     9   ar
    13     9    10   ar
    14    11    12    1
    15    12    13    1
    16    13    14    2
    17    13    15    1
    18    15    16    1
    19    16    17    1
    20    17    18    1
    21    18    19    1
