@<TRIPOS>MOLECULE
30250_ChemDiv_3983-0252
 25 28 0 0 0
SMALL
GASTEIGER
Energy = 0

@<TRIPOS>ATOM
      1 N          -1.1790    0.7960    0.0000 N.am    1  LIG1       -0.2037
      2 C          -1.7290    1.5750    0.0000 C.2     1  LIG1        0.2564
      3 C          -2.6380    1.2790    0.0000 C.ar    1  LIG1        0.0584
      4 C          -2.6380    0.3290    0.0000 C.ar    1  LIG1        0.0584
      5 C          -1.7290    0.0080    0.0000 C.2     1  LIG1        0.2564
      6 O          -1.4040   -0.8960    0.0000 O.2     1  LIG1       -0.2694
      7 C          -3.4580   -0.1670    0.0000 C.ar    1  LIG1        0.0047
      8 C          -4.2960    0.3290    0.0000 C.ar    1  LIG1        0.0001
      9 C          -4.2960    1.2790    0.0000 C.ar    1  LIG1        0.0001
     10 C          -3.4580    1.7540    0.0000 C.ar    1  LIG1        0.0047
     11 O          -1.4040    2.5040    0.0000 O.2     1  LIG1       -0.2694
     12 C           0.9290    0.8000    0.0000 C.3     1  LIG1        0.2017
     13 N           1.3920   -0.0380    0.0000 N.pl3   1  LIG1       -0.2688
     14 C           2.3540   -0.0380    0.0000 C.ar    1  LIG1        0.0529
     15 C           2.8500    0.8000    0.0000 C.ar    1  LIG1        0.0149
     16 C           3.7880    0.8000    0.0000 C.ar    1  LIG1        0.0013
     17 C           4.2920   -0.0380    0.0000 C.ar    1  LIG1        0.0001
     18 C           3.7880   -0.8830    0.0000 C.ar    1  LIG1        0.0013
     19 C           2.8500   -0.8830    0.0000 C.ar    1  LIG1        0.0149
     20 C           0.8920   -0.8580    0.0000 C.ar    1  LIG1        0.0529
     21 C           1.3380   -1.7000    0.0000 C.ar    1  LIG1        0.0149
     22 C           0.8460   -2.5000    0.0000 C.ar    1  LIG1        0.0013
     23 C          -0.1080   -2.5000    0.0000 C.ar    1  LIG1        0.0001
     24 C          -0.5630   -1.6580    0.0000 C.ar    1  LIG1        0.0013
     25 C          -0.0580   -0.8580    0.0000 C.ar    1  LIG1        0.0149
@<TRIPOS>BOND
     1     1     2   am
     2     1     5   am
     3     1    12    1
     4     2     3    1
     5     2    11    2
     6     3     4   ar
     7     3    10   ar
     8     4     5    1
     9     4     7   ar
    10     5     6    2
    11     7     8   ar
    12     8     9   ar
    13     9    10   ar
    14    12    13    1
    15    13    14    1
    16    13    20    1
    17    14    15   ar
    18    14    19   ar
    19    15    16   ar
    20    16    17   ar
    21    17    18   ar
    22    18    19   ar
    23    20    21   ar
    24    20    25   ar
    25    21    22   ar
    26    22    23   ar
    27    23    24   ar
    28    24    25   ar
