@<TRIPOS>MOLECULE
30258_ChemDiv_K889-0508
 30 34 0 0 0
SMALL
GASTEIGER
Energy = 0

@<TRIPOS>ATOM
      1 C           1.0000    2.4920    0.0000 C.ar    1  LIG1        0.0522
      2 C           0.4920    3.3580    0.0000 C.ar    1  LIG1        0.1350
      3 N          -0.5210    3.3420    0.0000 N.pl3   1  LIG1       -0.2948
      4 C          -1.0080    4.2040    0.0000 C.3     1  LIG1        0.0742
      5 C          -0.5210    5.0710    0.0000 C.3     1  LIG1        0.0215
      6 C          -2.0040    4.2040    0.0000 C.3     1  LIG1        0.0198
      7 C          -2.4920    3.3420    0.0000 C.3     1  LIG1        0.0035
      8 C          -1.9920    2.4750    0.0000 C.3     1  LIG1        0.0215
      9 C          -0.9920    2.4750    0.0000 C.3     1  LIG1        0.0921
     10 N           0.9830    4.2210    0.0000 N.ar    1  LIG1       -0.2090
     11 C           1.9880    4.2210    0.0000 C.ar    1  LIG1        0.2005
     12 N           2.4880    3.3580    0.0000 N.ar    1  LIG1       -0.2173
     13 C           1.9960    2.4920    0.0000 C.ar    1  LIG1        0.1150
     14 S           2.3040    1.5500    0.0000 S.2     1  LIG1       -0.0636
     15 C           1.4830    0.9670    0.0000 C.ar    1  LIG1        0.0823
     16 C           0.6790    1.5500    0.0000 C.ar    1  LIG1       -0.0067
     17 C          -0.2630    1.2290    0.0000 C.3     1  LIG1        0.0319
     18 C           1.4830   -0.0250    0.0000 C.2     1  LIG1        0.2747
     19 N           0.6170   -0.5210    0.0000 N.am    1  LIG1       -0.1749
     20 C           0.6170   -1.5290    0.0000 C.ar    1  LIG1        0.0769
     21 C           1.4830   -2.0460    0.0000 C.ar    1  LIG1        0.0566
     22 C           1.4830   -3.0500    0.0000 C.ar    1  LIG1        0.1737
     23 C           0.6170   -3.5380    0.0000 C.ar    1  LIG1        0.1725
     24 O           0.6170   -4.5540    0.0000 O.3     1  LIG1       -0.4684
     25 C           1.4830   -5.0710    0.0000 C.3     1  LIG1        0.2526
     26 C           2.3500   -4.5790    0.0000 C.3     1  LIG1        0.2526
     27 O           2.3500   -3.5790    0.0000 O.3     1  LIG1       -0.4683
     28 C          -0.2380   -3.0210    0.0000 C.ar    1  LIG1        0.0414
     29 C          -0.2380   -2.0170    0.0000 C.ar    1  LIG1        0.0199
     30 O           2.3630   -0.5290    0.0000 O.2     1  LIG1       -0.2675
@<TRIPOS>BOND
     1     1     2   ar
     2     1    13   ar
     3     1    16   ar
     4     2     3    1
     5     2    10   ar
     6     3     4    1
     7     3     9    1
     8     4     5    1
     9     4     6    1
    10     6     7    1
    11     7     8    1
    12     8     9    1
    13    10    11   ar
    14    11    12   ar
    15    12    13   ar
    16    13    14   ar
    17    14    15   ar
    18    15    16   ar
    19    15    18    1
    20    16    17    1
    21    18    19   am
    22    18    30    2
    23    19    20    1
    24    20    21   ar
    25    20    29   ar
    26    21    22   ar
    27    22    23   ar
    28    22    27    1
    29    23    24    1
    30    23    28   ar
    31    24    25    1
    32    25    26    1
    33    26    27    1
    34    28    29   ar
