@<TRIPOS>MOLECULE
30252_ChemDiv_3992-1248
 26 30 0 0 0
SMALL
GASTEIGER
Energy = 0

@<TRIPOS>ATOM
      1 N           1.1750    0.0250    0.0000 N.ar    1  LIG1       -0.2489
      2 C           0.2000    0.0380    0.0000 C.ar    1  LIG1        0.1357
      3 C          -0.1130   -0.8830    0.0000 C.ar    1  LIG1        0.1096
      4 C          -1.0790   -0.8830    0.0000 C.ar    1  LIG1        0.2747
      5 N          -1.3920    0.0380    0.0000 N.ar    1  LIG1       -0.2392
      6 C          -0.6000    0.6040    0.0000 C.ar    1  LIG1        0.2839
      7 O          -0.6040    1.5790    0.0000 O.2     1  LIG1       -0.2649
      8 C          -2.3250    0.3330    0.0000 C.ar    1  LIG1        0.0811
      9 C          -3.0500   -0.3040    0.0000 C.ar    1  LIG1        0.0844
     10 C          -3.9790   -0.0210    0.0000 C.ar    1  LIG1        0.0696
     11 CL         -4.6920   -0.6580    0.0000 Cl      1  LIG1       -0.0813
     12 C          -4.1830    0.9420    0.0000 C.ar    1  LIG1        0.0123
     13 C          -3.4500    1.5920    0.0000 C.ar    1  LIG1        0.0024
     14 C          -2.5250    1.2960    0.0000 C.ar    1  LIG1        0.0186
     15 CL         -2.8380   -1.2670    0.0000 Cl      1  LIG1       -0.0798
     16 O          -1.6670   -1.6830    0.0000 O.2     1  LIG1       -0.2659
     17 S           0.6580   -1.4710    0.0000 S.2     1  LIG1       -0.0435
     18 C           1.4710   -0.8960    0.0000 C.ar    1  LIG1        0.1816
     19 N           2.4170   -1.1130    0.0000 N.ar    1  LIG1       -0.2265
     20 C           3.0750   -0.3880    0.0000 C.ar    1  LIG1        0.0617
     21 C           2.7750    0.5420    0.0000 C.ar    1  LIG1        0.0479
     22 C           1.8250    0.7460    0.0000 C.ar    1  LIG1        0.2634
     23 O           1.5290    1.6880    0.0000 O.2     1  LIG1       -0.2669
     24 C           3.4290    1.2710    0.0000 C.3     1  LIG1        0.0328
     25 C           4.3790    1.0580    0.0000 C.3     1  LIG1        0.0112
     26 C           4.6880    0.1250    0.0000 C.3     1  LIG1        0.0461
@<TRIPOS>BOND
     1     1     2   ar
     2     1    18   ar
     3     1    22   ar
     4     2     3   ar
     5     2     6   ar
     6     3     4   ar
     7     3    17   ar
     8     4     5   ar
     9     4    16    2
    10     5     6   ar
    11     5     8    1
    12     6     7    2
    13     8     9   ar
    14     8    14   ar
    15     9    10   ar
    16     9    15    1
    17    10    11    1
    18    10    12   ar
    19    12    13   ar
    20    13    14   ar
    21    17    18   ar
    22    18    19   ar
    23    19    20   ar
    24    20    21   ar
    25    20    26    1
    26    21    22   ar
    27    21    24    1
    28    22    23    2
    29    24    25    1
    30    25    26    1
