@<TRIPOS>MOLECULE
30269_ChemDiv_C327-0261
 29 31 0 0 0
SMALL
GASTEIGER
Energy = 0

@<TRIPOS>ATOM
      1 N           0.9000   -0.0670    0.0000 N.am    1  LIG1       -0.1777
      2 N           0.0830    0.5130    0.0000 N.2     1  LIG1       -0.1798
      3 C           0.3750    1.4670    0.0000 C.2     1  LIG1        0.0786
      4 C           1.3750    1.4750    0.0000 C.3     1  LIG1        0.0743
      5 C           1.7040    0.5380    0.0000 C.3     1  LIG1        0.1331
      6 C           2.6580    0.2420    0.0000 C.ar    1  LIG1        0.0276
      7 S           2.9790   -0.7040    0.0000 S.2     1  LIG1       -0.0891
      8 C           4.0130   -0.6420    0.0000 C.ar    1  LIG1        0.0352
      9 C           4.2710    0.2960    0.0000 C.ar    1  LIG1        0.0072
     10 C           3.4380    0.8420    0.0000 C.ar    1  LIG1        0.0044
     11 C          -0.2210    2.2670    0.0000 C.ar    1  LIG1        0.0165
     12 C          -1.2040    2.1460    0.0000 C.ar    1  LIG1        0.0193
     13 C          -1.8040    2.9460    0.0000 C.ar    1  LIG1        0.0907
     14 N          -2.8040    2.8250    0.0000 N.pl3   1  LIG1       -0.1006
     15 S          -3.4000    3.6210    0.0000 S.O2    1  LIG1        0.0750
     16 O          -2.5380    4.1250    0.0000 O.2     1  LIG1       -0.1528
     17 O          -3.6670    4.5830    0.0000 O.2     1  LIG1       -0.1528
     18 C          -4.2750    3.1290    0.0000 C.3     1  LIG1        0.2016
     19 C          -1.4130    3.8710    0.0000 C.ar    1  LIG1        0.0180
     20 C          -0.4170    3.9830    0.0000 C.ar    1  LIG1        0.0014
     21 C           0.1790    3.1920    0.0000 C.ar    1  LIG1        0.0013
     22 C           0.9080   -1.0670    0.0000 C.2     1  LIG1        0.2446
     23 O           1.7880   -1.5540    0.0000 O.2     1  LIG1       -0.2731
     24 C           0.0540   -1.5790    0.0000 C.3     1  LIG1        0.0874
     25 C           0.0670   -2.5790    0.0000 C.3     1  LIG1        0.0155
     26 C           0.9380   -3.0670    0.0000 C.3     1  LIG1        0.0422
     27 C           0.9500   -4.0710    0.0000 C.2     1  LIG1        0.0503
     28 O           1.8250   -4.5540    0.0000 O.co2   1  LIG1       -0.5492
     29 O           0.0880   -4.5830    0.0000 O.co2   1  LIG1       -0.5492
@<TRIPOS>BOND
     1     1     2    1
     2     1     5    1
     3     1    22   am
     4     2     3    2
     5     3     4    1
     6     3    11    1
     7     4     5    1
     8     5     6    1
     9     6     7   ar
    10     6    10   ar
    11     7     8   ar
    12     8     9   ar
    13     9    10   ar
    14    11    12   ar
    15    11    21   ar
    16    12    13   ar
    17    13    14    1
    18    13    19   ar
    19    14    15    1
    20    15    16    2
    21    15    17    2
    22    15    18    1
    23    19    20   ar
    24    20    21   ar
    25    22    23    2
    26    22    24    1
    27    24    25    1
    28    25    26    1
    29    26    27    1
    30    27    28   ar
    31    27    29   ar
