@<TRIPOS>MOLECULE
30260_ChemDiv_K895-0289
 31 34 0 0 0
SMALL
GASTEIGER
Energy = 0

@<TRIPOS>ATOM
      1 C           1.2580    1.4960    0.0000 C.ar    1  LIG1        0.0525
      2 C           0.8210    2.3670    0.0000 C.ar    1  LIG1        0.1388
      3 N          -0.1500    2.4380    0.0000 N.pl3   1  LIG1       -0.2706
      4 C          -0.5920    3.3210    0.0000 C.ar    1  LIG1        0.0527
      5 C          -0.0330    4.1250    0.0000 C.ar    1  LIG1        0.0149
      6 C          -0.4710    5.0080    0.0000 C.ar    1  LIG1        0.0013
      7 C          -1.4420    5.0670    0.0000 C.ar    1  LIG1        0.0001
      8 C          -1.9830    4.2460    0.0000 C.ar    1  LIG1        0.0013
      9 C          -1.5670    3.3880    0.0000 C.ar    1  LIG1        0.0149
     10 C          -0.7000    1.6210    0.0000 C.3     1  LIG1        0.1187
     11 N           1.3670    3.1880    0.0000 N.ar    1  LIG1       -0.2087
     12 C           2.3500    3.1130    0.0000 C.ar    1  LIG1        0.2005
     13 N           2.7830    2.2290    0.0000 N.ar    1  LIG1       -0.2173
     14 C           2.2330    1.4250    0.0000 C.ar    1  LIG1        0.1150
     15 S           2.4710    0.4790    0.0000 S.2     1  LIG1       -0.0636
     16 C           1.6250   -0.0500    0.0000 C.ar    1  LIG1        0.0823
     17 C           0.8920    0.5750    0.0000 C.ar    1  LIG1       -0.0067
     18 C          -0.0750    0.3290    0.0000 C.3     1  LIG1        0.0319
     19 C           1.5210   -1.5830    0.0000 C.2     1  LIG1        0.2747
     20 N           0.6540   -2.0750    0.0000 N.am    1  LIG1       -0.1748
     21 C           0.6540   -3.0670    0.0000 C.ar    1  LIG1        0.0799
     22 C          -0.2130   -3.5710    0.0000 C.ar    1  LIG1        0.0909
     23 C          -1.0670   -3.0540    0.0000 C.2     1  LIG1        0.3426
     24 O          -1.0630   -2.0500    0.0000 O.2     1  LIG1       -0.2448
     25 O          -1.9290   -3.5540    0.0000 O.3     1  LIG1       -0.4413
     26 C          -2.7880   -3.0540    0.0000 C.3     1  LIG1        0.2560
     27 C          -0.2130   -4.5670    0.0000 C.ar    1  LIG1        0.0078
     28 C           0.6540   -5.0670    0.0000 C.ar    1  LIG1        0.0003
     29 C           1.5210   -4.5670    0.0000 C.ar    1  LIG1        0.0013
     30 C           1.5210   -3.5710    0.0000 C.ar    1  LIG1        0.0168
     31 O           2.3080   -1.9580    0.0000 O.2     1  LIG1       -0.2675
@<TRIPOS>BOND
     1     1     2   ar
     2     1    14   ar
     3     1    17   ar
     4     2     3    1
     5     2    11   ar
     6     3     4    1
     7     3    10    1
     8     4     5   ar
     9     4     9   ar
    10     5     6   ar
    11     6     7   ar
    12     7     8   ar
    13     8     9   ar
    14    11    12   ar
    15    12    13   ar
    16    13    14   ar
    17    14    15   ar
    18    15    16   ar
    19    16    17   ar
    20    16    19    1
    21    17    18    1
    22    19    20   am
    23    19    31    2
    24    20    21    1
    25    21    22   ar
    26    21    30   ar
    27    22    23    1
    28    22    27   ar
    29    23    24    2
    30    23    25    1
    31    25    26    1
    32    27    28   ar
    33    28    29   ar
    34    29    30   ar
