@<TRIPOS>MOLECULE
30267_ChemDiv_3844-1163
 37 41 0 0 0
SMALL
GASTEIGER
Energy = 0

@<TRIPOS>ATOM
      1 C          -0.4460   -0.4040    0.0000 C.ar    1  LIG1        0.0366
      2 C           0.5330   -0.6170    0.0000 C.3     1  LIG1        0.1302
      3 N           0.9920   -1.5040    0.0000 N.am    1  LIG1       -0.1781
      4 N           1.9670   -1.3790    0.0000 N.2     1  LIG1       -0.1793
      5 C           2.1170   -0.4040    0.0000 C.2     1  LIG1        0.0845
      6 C           1.2580    0.0790    0.0000 C.3     1  LIG1        0.0744
      7 C           3.0080    0.0790    0.0000 C.ar    1  LIG1        0.0446
      8 S           3.2170    1.0630    0.0000 S.2     1  LIG1       -0.0852
      9 C           4.1960    1.1460    0.0000 C.ar    1  LIG1        0.0355
     10 C           4.5920    0.2630    0.0000 C.ar    1  LIG1        0.0075
     11 C           3.8540   -0.4040    0.0000 C.ar    1  LIG1        0.0082
     12 C           0.5330   -2.4210    0.0000 C.2     1  LIG1        0.2446
     13 O          -0.4750   -2.4830    0.0000 O.2     1  LIG1       -0.2731
     14 C           1.0830   -3.2790    0.0000 C.3     1  LIG1        0.0874
     15 C           2.0630   -3.2080    0.0000 C.3     1  LIG1        0.0155
     16 C           2.6080   -4.0420    0.0000 C.3     1  LIG1        0.0422
     17 C           3.6170   -3.9710    0.0000 C.2     1  LIG1        0.0503
     18 O           4.0750   -3.0960    0.0000 O.co2   1  LIG1       -0.5492
     19 O           4.1580   -4.8040    0.0000 O.co2   1  LIG1       -0.5492
     20 C          -0.9330    0.4790    0.0000 C.ar    1  LIG1        0.1004
     21 N          -1.9040    0.2630    0.0000 N.ar    1  LIG1       -0.1653
     22 N          -2.0250   -0.7420    0.0000 N.ar    1  LIG1       -0.2285
     23 C          -1.1130   -1.1420    0.0000 C.ar    1  LIG1        0.0993
     24 C          -2.8580   -1.2960    0.0000 C.ar    1  LIG1        0.0828
     25 C          -3.7750   -0.8380    0.0000 C.ar    1  LIG1        0.0191
     26 C          -4.5960   -1.3790    0.0000 C.ar    1  LIG1        0.0015
     27 C          -4.5380   -2.3880    0.0000 C.ar    1  LIG1        0.0001
     28 C          -3.6460   -2.8460    0.0000 C.ar    1  LIG1        0.0015
     29 C          -2.7920   -2.2920    0.0000 C.ar    1  LIG1        0.0191
     30 C          -0.4170    1.3290    0.0000 C.ar    1  LIG1        0.0193
     31 C           0.5920    1.3290    0.0000 C.ar    1  LIG1        0.0047
     32 C           1.0830    2.1880    0.0000 C.ar    1  LIG1        0.0369
     33 C           0.5920    3.0460    0.0000 C.ar    1  LIG1        0.1387
     34 C          -0.4170    3.0460    0.0000 C.ar    1  LIG1        0.0369
     35 C          -0.9330    2.1880    0.0000 C.ar    1  LIG1        0.0047
     36 O           1.1460    3.8920    0.0000 O.3     1  LIG1       -0.4714
     37 C           0.6880    4.8040    0.0000 C.3     1  LIG1        0.2525
@<TRIPOS>BOND
     1     1     2    1
     2     1    20   ar
     3     1    23   ar
     4     2     3    1
     5     2     6    1
     6     3     4    1
     7     3    12   am
     8     4     5    2
     9     5     6    1
    10     5     7    1
    11     7     8   ar
    12     7    11   ar
    13     8     9   ar
    14     9    10   ar
    15    10    11   ar
    16    12    13    2
    17    12    14    1
    18    14    15    1
    19    15    16    1
    20    16    17    1
    21    17    18   ar
    22    17    19   ar
    23    20    21   ar
    24    20    30    1
    25    21    22   ar
    26    22    23   ar
    27    22    24    1
    28    24    25   ar
    29    24    29   ar
    30    25    26   ar
    31    26    27   ar
    32    27    28   ar
    33    28    29   ar
    34    30    31   ar
    35    30    35   ar
    36    31    32   ar
    37    32    33   ar
    38    33    34   ar
    39    33    36    1
    40    34    35   ar
    41    36    37    1
