@<TRIPOS>MOLECULE
30268_ChemDiv_K913-0616
 29 33 0 0 0
SMALL
GASTEIGER
Energy = 0

@<TRIPOS>ATOM
      1 C           2.2080   -0.1830    0.0000 C.ar    1  LIG1        0.0805
      2 C           1.4000    0.4330    0.0000 C.ar    1  LIG1       -0.0067
      3 C           1.7330    1.3790    0.0000 C.ar    1  LIG1        0.0522
      4 C           2.7380    1.3460    0.0000 C.ar    1  LIG1        0.1150
      5 S           3.0210    0.3920    0.0000 S.2     1  LIG1       -0.0636
      6 N           3.2500    2.1960    0.0000 N.ar    1  LIG1       -0.2173
      7 C           2.7630    3.0880    0.0000 C.ar    1  LIG1        0.2005
      8 N           1.7670    3.1040    0.0000 N.ar    1  LIG1       -0.2090
      9 C           1.2460    2.2670    0.0000 C.ar    1  LIG1        0.1353
     10 N           0.2540    2.2880    0.0000 N.pl3   1  LIG1       -0.2887
     11 C          -0.2630    1.4380    0.0000 C.3     1  LIG1        0.1186
     12 C          -1.2750    1.4630    0.0000 C.ar    1  LIG1       -0.0063
     13 C          -1.7420    2.3460    0.0000 C.ar    1  LIG1       -0.0228
     14 C          -1.2210    3.1960    0.0000 C.3     1  LIG1        0.0475
     15 C          -0.2330    3.1750    0.0000 C.3     1  LIG1        0.0971
     16 C          -2.7420    2.3790    0.0000 C.ar    1  LIG1       -0.0045
     17 C          -3.2540    1.5130    0.0000 C.ar    1  LIG1       -0.0003
     18 C          -2.7710    0.6380    0.0000 C.ar    1  LIG1       -0.0003
     19 C          -1.7710    0.6040    0.0000 C.ar    1  LIG1       -0.0029
     20 C           0.4460    0.1380    0.0000 C.3     1  LIG1        0.0319
     21 C           2.2080   -1.1830    0.0000 C.2     1  LIG1        0.2548
     22 N           1.3420   -1.6750    0.0000 N.am    1  LIG1       -0.2757
     23 C           0.4670   -1.1960    0.0000 C.3     1  LIG1        0.0937
     24 C          -0.4040   -1.6750    0.0000 C.3     1  LIG1        0.0216
     25 C          -0.3830   -2.6750    0.0000 C.3     1  LIG1        0.0034
     26 C           0.4670   -3.1750    0.0000 C.3     1  LIG1        0.0216
     27 C           1.3380   -2.6750    0.0000 C.3     1  LIG1        0.0937
     28 C          -1.2460   -3.1920    0.0000 C.3     1  LIG1        0.0001
     29 O           3.0790   -1.6750    0.0000 O.2     1  LIG1       -0.2694
@<TRIPOS>BOND
     1     1     2   ar
     2     1     5   ar
     3     1    21    1
     4     2     3   ar
     5     2    20    1
     6     3     4   ar
     7     3     9   ar
     8     4     5   ar
     9     4     6   ar
    10     6     7   ar
    11     7     8   ar
    12     8     9   ar
    13     9    10    1
    14    10    11    1
    15    10    15    1
    16    11    12    1
    17    12    13   ar
    18    12    19   ar
    19    13    14    1
    20    13    16   ar
    21    14    15    1
    22    16    17   ar
    23    17    18   ar
    24    18    19   ar
    25    21    22   am
    26    21    29    2
    27    22    23    1
    28    22    27    1
    29    23    24    1
    30    24    25    1
    31    25    26    1
    32    25    28    1
    33    26    27    1
