@<TRIPOS>MOLECULE
30270_ChemDiv_K913-0659
 32 37 0 0 0
SMALL
GASTEIGER
Energy = 0

@<TRIPOS>ATOM
      1 C           1.7290    2.6710    0.0000 C.ar    1  LIG1        0.0522
      2 C           1.3960    1.7250    0.0000 C.ar    1  LIG1       -0.0067
      3 C           2.2040    1.1130    0.0000 C.ar    1  LIG1        0.0823
      4 S           3.0170    1.6880    0.0000 S.2     1  LIG1       -0.0636
      5 C           2.7330    2.6380    0.0000 C.ar    1  LIG1        0.1150
      6 N           3.2460    3.4830    0.0000 N.ar    1  LIG1       -0.2173
      7 C           2.7580    4.3750    0.0000 C.ar    1  LIG1        0.2005
      8 N           1.7670    4.3880    0.0000 N.ar    1  LIG1       -0.2090
      9 C           1.2460    3.5540    0.0000 C.ar    1  LIG1        0.1353
     10 N           0.2540    3.5750    0.0000 N.pl3   1  LIG1       -0.2887
     11 C          -0.2630    2.7290    0.0000 C.3     1  LIG1        0.1186
     12 C          -1.2750    2.7540    0.0000 C.ar    1  LIG1       -0.0063
     13 C          -1.7380    3.6380    0.0000 C.ar    1  LIG1       -0.0228
     14 C          -1.2210    4.4790    0.0000 C.3     1  LIG1        0.0475
     15 C          -0.2330    4.4580    0.0000 C.3     1  LIG1        0.0971
     16 C          -2.7380    3.6670    0.0000 C.ar    1  LIG1       -0.0045
     17 C          -3.2500    2.8040    0.0000 C.ar    1  LIG1       -0.0003
     18 C          -2.7670    1.9290    0.0000 C.ar    1  LIG1       -0.0003
     19 C          -1.7710    1.8960    0.0000 C.ar    1  LIG1       -0.0029
     20 C           2.2040    0.1130    0.0000 C.2     1  LIG1        0.2747
     21 N           1.3420   -0.3790    0.0000 N.am    1  LIG1       -0.1749
     22 C           1.3420   -1.3960    0.0000 C.ar    1  LIG1        0.0769
     23 C           0.4630   -1.8920    0.0000 C.ar    1  LIG1        0.0568
     24 C           0.4790   -2.8920    0.0000 C.ar    1  LIG1        0.1777
     25 C           1.3500   -3.3920    0.0000 C.ar    1  LIG1        0.1765
     26 O           1.1420   -4.3750    0.0000 O.3     1  LIG1       -0.4346
     27 C           0.1630   -4.4790    0.0000 C.3     1  LIG1        0.4294
     28 O          -0.2630   -3.5670    0.0000 O.3     1  LIG1       -0.4346
     29 C           2.2170   -2.8920    0.0000 C.ar    1  LIG1        0.0415
     30 C           2.2130   -1.8920    0.0000 C.ar    1  LIG1        0.0199
     31 O           3.0750   -0.3790    0.0000 O.2     1  LIG1       -0.2675
     32 C           0.4460    1.4290    0.0000 C.3     1  LIG1        0.0319
@<TRIPOS>BOND
     1     1     2   ar
     2     1     5   ar
     3     1     9   ar
     4     2     3   ar
     5     2    32    1
     6     3     4   ar
     7     3    20    1
     8     4     5   ar
     9     5     6   ar
    10     6     7   ar
    11     7     8   ar
    12     8     9   ar
    13     9    10    1
    14    10    11    1
    15    10    15    1
    16    11    12    1
    17    12    13   ar
    18    12    19   ar
    19    13    14    1
    20    13    16   ar
    21    14    15    1
    22    16    17   ar
    23    17    18   ar
    24    18    19   ar
    25    20    21   am
    26    20    31    2
    27    21    22    1
    28    22    23   ar
    29    22    30   ar
    30    23    24   ar
    31    24    25   ar
    32    24    28    1
    33    25    26    1
    34    25    29   ar
    35    26    27    1
    36    27    28    1
    37    29    30   ar
