@<TRIPOS>MOLECULE
30278_ChemDiv_5978-0076
 22 23 0 0 0
SMALL
GASTEIGER
Energy = 0

@<TRIPOS>ATOM
      1 C          -2.1750   -0.8130    0.0000 C.ar    1  LIG1        0.1684
      2 N          -1.2170   -1.1710    0.0000 N.ar    1  LIG1       -0.2019
      3 C          -0.4630   -0.5290    0.0000 C.ar    1  LIG1        0.1946
      4 N          -0.6250    0.4540    0.0000 N.ar    1  LIG1       -0.1827
      5 C          -1.5580    0.8000    0.0000 C.ar    1  LIG1        0.2836
      6 C          -2.3420    0.1670    0.0000 C.ar    1  LIG1        0.0898
      7 C          -3.2920    0.5000    0.0000 C.ar    1  LIG1       -0.0130
      8 C          -4.0500   -0.1330    0.0000 C.ar    1  LIG1        0.0108
      9 C          -3.8790   -1.1330    0.0000 C.ar    1  LIG1        0.0607
     10 N          -2.9420   -1.4710    0.0000 N.ar    1  LIG1       -0.2308
     11 C          -4.6330   -1.7790    0.0000 C.3     1  LIG1        0.0521
     12 C          -3.4670    1.5040    0.0000 C.3     1  LIG1        0.0313
     13 O          -1.7290    1.7830    0.0000 O.3     1  LIG1       -0.2650
     14 S           0.4710   -0.8830    0.0000 S.3     1  LIG1       -0.0657
     15 C           1.2250   -0.2380    0.0000 C.3     1  LIG1        0.1500
     16 C           2.1710   -0.5830    0.0000 C.2     1  LIG1        0.2371
     17 N           2.9290    0.0500    0.0000 N.am    1  LIG1       -0.2788
     18 C           2.7540    1.0330    0.0000 C.3     1  LIG1        0.0935
     19 C           3.5290    1.6670    0.0000 C.3     1  LIG1        0.0233
     20 C           3.8750   -0.2920    0.0000 C.3     1  LIG1        0.0935
     21 C           4.6290    0.3580    0.0000 C.3     1  LIG1        0.0233
     22 O           2.3330   -1.5580    0.0000 O.2     1  LIG1       -0.2739
@<TRIPOS>BOND
     1     1     2   ar
     2     1     6   ar
     3     1    10   ar
     4     2     3   ar
     5     3     4   ar
     6     3    14    1
     7     4     5   ar
     8     5     6   ar
     9     5    13    1
    10     6     7   ar
    11     7     8   ar
    12     7    12    1
    13     8     9   ar
    14     9    10   ar
    15     9    11    1
    16    14    15    1
    17    15    16    1
    18    16    17   am
    19    16    22    2
    20    17    18    1
    21    17    20    1
    22    18    19    1
    23    20    21    1
