@<TRIPOS>MOLECULE
30271_ChemDiv_3849-0167
 30 33 0 0 0
SMALL
GASTEIGER
Energy = 0

@<TRIPOS>ATOM
      1 C          -1.7710    0.1790    0.0000 C.3     1  LIG1        0.1964
      2 C          -1.7710   -0.8250    0.0000 C.3     1  LIG1        0.1576
      3 C          -0.8250   -1.1380    0.0000 C.2     1  LIG1        0.2432
      4 N          -0.2330   -0.3330    0.0000 N.am    1  LIG1       -0.2060
      5 C          -0.8250    0.4790    0.0000 C.2     1  LIG1        0.2593
      6 O          -0.5670    1.4460    0.0000 O.2     1  LIG1       -0.2719
      7 C           0.7710   -0.3330    0.0000 C.ar    1  LIG1        0.0637
      8 C           1.2710   -1.2210    0.0000 C.ar    1  LIG1        0.0522
      9 C           2.2750   -1.1920    0.0000 C.ar    1  LIG1        0.1400
     10 O           2.7580   -2.0630    0.0000 O.3     1  LIG1       -0.4714
     11 C           3.7630   -2.0630    0.0000 C.3     1  LIG1        0.2525
     12 C           2.7750   -0.3250    0.0000 C.ar    1  LIG1        0.0370
     13 C           2.2670    0.5460    0.0000 C.ar    1  LIG1        0.0044
     14 C           1.2670    0.5460    0.0000 C.ar    1  LIG1        0.0155
     15 O          -0.5670   -2.0960    0.0000 O.2     1  LIG1       -0.2736
     16 C          -2.6580   -1.2210    0.0000 C.2     1  LIG1        0.1638
     17 N          -3.3080   -0.4170    0.0000 N.2     1  LIG1       -0.1601
     18 N          -2.7420    0.4460    0.0000 N.pl3   1  LIG1       -0.1333
     19 C          -2.9080   -2.1790    0.0000 C.2     1  LIG1        0.3571
     20 O          -3.7670   -2.6750    0.0000 O.2     1  LIG1       -0.2435
     21 O          -2.0380   -2.6460    0.0000 O.3     1  LIG1       -0.4446
     22 C          -2.0290   -3.6330    0.0000 C.3     1  LIG1        0.2089
     23 C          -1.1710   -4.1330    0.0000 C.3     1  LIG1        0.0513
     24 C          -1.8080    1.1130    0.0000 C.ar    1  LIG1        0.0063
     25 C          -0.9420    1.6170    0.0000 C.ar    1  LIG1       -0.0013
     26 C          -0.9420    2.6170    0.0000 C.ar    1  LIG1        0.0111
     27 C          -1.8080    3.1250    0.0000 C.ar    1  LIG1        0.0577
     28 C          -2.6790    2.6170    0.0000 C.ar    1  LIG1        0.0111
     29 C          -2.6790    1.6170    0.0000 C.ar    1  LIG1       -0.0013
     30 CL         -1.8080    4.1330    0.0000 Cl      1  LIG1       -0.0822
@<TRIPOS>BOND
     1     1     2    1
     2     1     5    1
     3     1    18    1
     4     1    24    1
     5     2     3    1
     6     2    16    1
     7     3     4   am
     8     3    15    2
     9     4     5   am
    10     4     7    1
    11     5     6    2
    12     7     8   ar
    13     7    14   ar
    14     8     9   ar
    15     9    10    1
    16     9    12   ar
    17    10    11    1
    18    12    13   ar
    19    13    14   ar
    20    16    17    2
    21    16    19    1
    22    17    18    1
    23    19    20    2
    24    19    21    1
    25    21    22    1
    26    22    23    1
    27    24    25   ar
    28    24    29   ar
    29    25    26   ar
    30    26    27   ar
    31    27    28   ar
    32    27    30    1
    33    28    29   ar
