@<TRIPOS>MOLECULE
30277_ChemDiv_E612-2082
 24 26 0 0 0
SMALL
GASTEIGER
Energy = 0

@<TRIPOS>ATOM
      1 N           1.1080   -0.0080    0.0000 N.am    1  LIG1       -0.2652
      2 C           1.6960    0.8000    0.0000 C.2     1  LIG1        0.2493
      3 C           2.6500    0.4880    0.0000 C.ar    1  LIG1        0.0512
      4 C           2.6500   -0.5080    0.0000 C.ar    1  LIG1        0.0021
      5 C           1.6960   -0.8170    0.0000 C.3     1  LIG1        0.1210
      6 C           3.5170   -1.0080    0.0000 C.ar    1  LIG1       -0.0025
      7 C           4.3830   -0.5080    0.0000 C.ar    1  LIG1       -0.0003
      8 C           4.3830    0.4880    0.0000 C.ar    1  LIG1        0.0001
      9 C           3.5170    0.9880    0.0000 C.ar    1  LIG1        0.0043
     10 O           1.3880    1.7500    0.0000 O.2     1  LIG1       -0.2699
     11 C           0.1130   -0.0080    0.0000 C.3     1  LIG1        0.1544
     12 C          -0.3880   -0.8790    0.0000 C.2     1  LIG1        0.2637
     13 N          -1.3880   -0.8790    0.0000 N.am    1  LIG1       -0.1777
     14 C          -1.8880   -0.0080    0.0000 C.ar    1  LIG1        0.0779
     15 C          -2.8880   -0.0080    0.0000 C.ar    1  LIG1        0.0720
     16 C          -3.3880   -0.8790    0.0000 C.2     1  LIG1        0.2854
     17 O          -4.3880   -0.8790    0.0000 O.2     1  LIG1       -0.2666
     18 N          -2.8880   -1.7460    0.0000 N.am    1  LIG1       -0.0837
     19 C          -3.3880    0.8580    0.0000 C.ar    1  LIG1        0.0059
     20 C          -2.8880    1.7210    0.0000 C.ar    1  LIG1        0.0002
     21 C          -1.8880    1.7210    0.0000 C.ar    1  LIG1        0.0013
     22 C          -1.3880    0.8580    0.0000 C.ar    1  LIG1        0.0167
     23 O           0.1130   -1.7460    0.0000 O.2     1  LIG1       -0.2712
     24 C          -0.3880    0.8580    0.0000 C.3     1  LIG1        0.0315
@<TRIPOS>BOND
     1     1     2   am
     2     1     5    1
     3     1    11    1
     4     2     3    1
     5     2    10    2
     6     3     4   ar
     7     3     9   ar
     8     4     5    1
     9     4     6   ar
    10     6     7   ar
    11     7     8   ar
    12     8     9   ar
    13    11    12    1
    14    11    24    1
    15    12    13   am
    16    12    23    2
    17    13    14    1
    18    14    15   ar
    19    14    22   ar
    20    15    16    1
    21    15    19   ar
    22    16    17    2
    23    16    18   am
    24    19    20   ar
    25    20    21   ar
    26    21    22   ar
