@<TRIPOS>MOLECULE
30276_ChemDiv_3996-0118
 20 21 0 0 0
SMALL
GASTEIGER
Energy = 0

@<TRIPOS>ATOM
      1 C          -2.2000   -0.8330    0.0000 C.ar    1  LIG1        0.1684
      2 N          -1.2710   -1.2290    0.0000 N.ar    1  LIG1       -0.2019
      3 C          -0.4960   -0.6130    0.0000 C.ar    1  LIG1        0.1947
      4 N          -0.6080    0.3830    0.0000 N.ar    1  LIG1       -0.1827
      5 C          -1.5250    0.7670    0.0000 C.ar    1  LIG1        0.2836
      6 C          -2.3290    0.1540    0.0000 C.ar    1  LIG1        0.0898
      7 C          -3.2500    0.5540    0.0000 C.ar    1  LIG1       -0.0130
      8 C          -4.0540   -0.0880    0.0000 C.ar    1  LIG1        0.0108
      9 C          -3.9040   -1.0670    0.0000 C.ar    1  LIG1        0.0607
     10 N          -2.9750   -1.4500    0.0000 N.ar    1  LIG1       -0.2308
     11 C          -4.6790   -1.6830    0.0000 C.3     1  LIG1        0.0521
     12 C          -3.3920    1.5170    0.0000 C.3     1  LIG1        0.0313
     13 O          -1.6880    1.7540    0.0000 O.3     1  LIG1       -0.2650
     14 S           0.4420   -0.9790    0.0000 S.3     1  LIG1       -0.0636
     15 C           1.2290   -0.3830    0.0000 C.3     1  LIG1        0.1743
     16 C           2.1460   -0.7670    0.0000 C.2     1  LIG1        0.3286
     17 O           2.3080   -1.7500    0.0000 O.2     1  LIG1       -0.2491
     18 O           2.9540   -0.1500    0.0000 O.3     1  LIG1       -0.4479
     19 C           3.8710   -0.5500    0.0000 C.3     1  LIG1        0.2086
     20 C           4.6750    0.0710    0.0000 C.3     1  LIG1        0.0513
@<TRIPOS>BOND
     1     1     2   ar
     2     1     6   ar
     3     1    10   ar
     4     2     3   ar
     5     3     4   ar
     6     3    14    1
     7     4     5   ar
     8     5     6   ar
     9     5    13    1
    10     6     7   ar
    11     7     8   ar
    12     7    12    1
    13     8     9   ar
    14     9    10   ar
    15     9    11    1
    16    14    15    1
    17    15    16    1
    18    16    17    2
    19    16    18    1
    20    18    19    1
    21    19    20    1
