@<TRIPOS>MOLECULE
30272_ChemDiv_3909-9026
 35 38 0 0 0
SMALL
GASTEIGER
Energy = 0

@<TRIPOS>ATOM
      1 C          -1.2880    1.8960    0.0000 C.ar    1  LIG1        0.0728
      2 C          -0.4210    2.3790    0.0000 C.ar    1  LIG1        0.0875
      3 N          -0.4210    3.4290    0.0000 N.ar    1  LIG1       -0.2730
      4 C          -1.2880    3.9210    0.0000 C.ar    1  LIG1        0.2647
      5 C          -2.1630    3.4290    0.0000 C.ar    1  LIG1        0.0567
      6 C          -2.1630    2.4210    0.0000 C.ar    1  LIG1        0.0105
      7 C          -3.0330    1.8960    0.0000 C.ar    1  LIG1        0.0003
      8 C          -3.9000    2.4210    0.0000 C.ar    1  LIG1        0.0000
      9 C          -3.9000    3.4290    0.0000 C.ar    1  LIG1        0.0002
     10 C          -3.0330    3.9290    0.0000 C.ar    1  LIG1        0.0047
     11 O          -1.2880    4.9250    0.0000 O.2     1  LIG1       -0.2666
     12 C           0.4500    3.9460    0.0000 C.ar    1  LIG1        0.0671
     13 C           0.4420    4.9500    0.0000 C.ar    1  LIG1        0.0207
     14 C           1.2790    5.4750    0.0000 C.ar    1  LIG1        0.0384
     15 C           2.1790    5.0420    0.0000 C.ar    1  LIG1        0.1388
     16 C           2.2040    4.0000    0.0000 C.ar    1  LIG1        0.0384
     17 C           1.3580    3.4880    0.0000 C.ar    1  LIG1        0.0207
     18 O           3.0170    5.5750    0.0000 O.3     1  LIG1       -0.4714
     19 C           3.8960    5.1420    0.0000 C.3     1  LIG1        0.2525
     20 C          -1.2880    0.9000    0.0000 C.2     1  LIG1        0.2662
     21 O          -0.4250    0.4250    0.0000 O.2     1  LIG1       -0.2683
     22 N          -2.1380    0.4080    0.0000 N.am    1  LIG1       -0.2016
     23 C          -2.1380   -0.6000    0.0000 C.3     1  LIG1        0.1172
     24 C          -2.9750   -1.0750    0.0000 C.3     1  LIG1        0.0448
     25 C          -2.9750   -2.0790    0.0000 C.3     1  LIG1        0.0926
     26 N          -2.1170   -2.5750    0.0000 N.pl3   1  LIG1       -0.3074
     27 C          -2.1630   -3.5750    0.0000 C.ar    1  LIG1        0.0475
     28 C          -1.3460   -4.0960    0.0000 C.ar    1  LIG1        0.0103
     29 C          -1.3750   -5.0750    0.0000 C.ar    1  LIG1       -0.0206
     30 C          -2.2380   -5.5540    0.0000 C.ar    1  LIG1       -0.0042
     31 C          -3.0830   -5.0210    0.0000 C.ar    1  LIG1        0.0009
     32 C          -3.0500   -4.0500    0.0000 C.ar    1  LIG1        0.0145
     33 C          -0.5250   -5.5750    0.0000 C.3     1  LIG1        0.0311
     34 C          -1.2170   -2.1000    0.0000 C.3     1  LIG1        0.0908
     35 C          -1.2080   -1.1080    0.0000 C.3     1  LIG1        0.0232
@<TRIPOS>BOND
     1     1     2   ar
     2     1     6   ar
     3     1    20    1
     4     2     3   ar
     5     3     4   ar
     6     3    12    1
     7     4     5   ar
     8     4    11    2
     9     5     6   ar
    10     5    10   ar
    11     6     7   ar
    12     7     8   ar
    13     8     9   ar
    14     9    10   ar
    15    12    13   ar
    16    12    17   ar
    17    13    14   ar
    18    14    15   ar
    19    15    16   ar
    20    15    18    1
    21    16    17   ar
    22    18    19    1
    23    20    21    2
    24    20    22   am
    25    22    23    1
    26    23    24    1
    27    24    25    1
    28    25    26    1
    29    26    27    1
    30    26    34    1
    31    27    28   ar
    32    27    32   ar
    33    28    29   ar
    34    29    30   ar
    35    29    33    1
    36    30    31   ar
    37    31    32   ar
    38    34    35    1
