@<TRIPOS>MOLECULE
30279_ChemDiv_3772-1092
 28 30 0 0 0
SMALL
GASTEIGER
Energy = 0

@<TRIPOS>ATOM
      1 C           0.0540    0.2790    0.0000 C.ar    1  LIG1        0.1088
      2 C           0.0540    1.2290    0.0000 C.ar    1  LIG1        0.0938
      3 C          -1.6170    1.2290    0.0000 C.ar    1  LIG1       -0.0015
      4 C          -1.6170    0.2880    0.0000 C.ar    1  LIG1        0.1025
      5 S          -0.7880   -0.1960    0.0000 S.2     1  LIG1       -0.0641
      6 C          -2.5040   -0.1960    0.0000 C.2     1  LIG1        0.3470
      7 O          -2.5040   -1.2000    0.0000 O.2     1  LIG1       -0.2443
      8 O          -3.4040    0.3420    0.0000 O.3     1  LIG1       -0.4451
      9 C          -4.2830   -0.1790    0.0000 C.3     1  LIG1        0.2089
     10 C          -5.1710    0.3960    0.0000 C.3     1  LIG1        0.0513
     11 C          -2.4960    1.7290    0.0000 C.3     1  LIG1        0.0320
     12 C           0.8830    1.7250    0.0000 C.2     1  LIG1        0.3427
     13 O           0.8920    2.6710    0.0000 O.2     1  LIG1       -0.2448
     14 O           1.7170    1.2290    0.0000 O.3     1  LIG1       -0.4454
     15 C           2.5540    1.7250    0.0000 C.3     1  LIG1        0.2089
     16 C           3.3750    1.1920    0.0000 C.3     1  LIG1        0.0513
     17 N           0.8830   -0.1960    0.0000 N.am    1  LIG1       -0.1724
     18 C           0.8830   -1.1500    0.0000 C.2     1  LIG1        0.2459
     19 C           1.7170   -1.6290    0.0000 C.3     1  LIG1        0.0829
     20 C           2.9170   -1.6290    0.0000 C.3     1  LIG1        0.0315
     21 C           2.3250   -2.6670    0.0000 C.3     1  LIG1        0.0143
     22 C           3.6500   -1.1880    0.0000 C.ar    1  LIG1       -0.0220
     23 C           3.6500   -0.3170    0.0000 C.ar    1  LIG1       -0.0043
     24 C           4.4040    0.1170    0.0000 C.ar    1  LIG1       -0.0003
     25 C           5.1670   -0.3250    0.0000 C.ar    1  LIG1       -0.0000
     26 C           5.1670   -1.1880    0.0000 C.ar    1  LIG1       -0.0003
     27 C           4.4040   -1.6290    0.0000 C.ar    1  LIG1       -0.0043
     28 O           0.0540   -1.6290    0.0000 O.2     1  LIG1       -0.2730
@<TRIPOS>BOND
     1     1     2   ar
     2     1     5   ar
     3     1    17    1
     4     2     3   ar
     5     2    12    1
     6     3     4   ar
     7     3    11    1
     8     4     5   ar
     9     4     6    1
    10     6     7    2
    11     6     8    1
    12     8     9    1
    13     9    10    1
    14    12    13    2
    15    12    14    1
    16    14    15    1
    17    15    16    1
    18    17    18   am
    19    18    19    1
    20    18    28    2
    21    19    20    1
    22    19    21    1
    23    20    21    1
    24    20    22    1
    25    22    23   ar
    26    22    27   ar
    27    23    24   ar
    28    24    25   ar
    29    25    26   ar
    30    26    27   ar
