@<TRIPOS>MOLECULE
30282_ChemDiv_3996-0196
 20 21 0 0 0
SMALL
GASTEIGER
Energy = 0

@<TRIPOS>ATOM
      1 N          -2.5920   -1.2540    0.0000 N.ar    1  LIG1       -0.2027
      2 C          -1.7880   -0.6500    0.0000 C.ar    1  LIG1        0.1944
      3 N          -1.9380    0.3670    0.0000 N.ar    1  LIG1       -0.1827
      4 C          -2.8750    0.7170    0.0000 C.ar    1  LIG1        0.2840
      5 C          -3.6420    0.0920    0.0000 C.ar    1  LIG1        0.1001
      6 C          -3.5290   -0.8830    0.0000 C.ar    1  LIG1        0.1766
      7 N          -4.2960   -1.5080    0.0000 N.pl3   1  LIG1       -0.1070
      8 O          -3.0380    1.7130    0.0000 O.3     1  LIG1       -0.2650
      9 S          -0.8630   -0.9960    0.0000 S.3     1  LIG1       -0.0672
     10 C          -0.0790   -0.3920    0.0000 C.3     1  LIG1        0.1340
     11 C           0.8580   -0.7330    0.0000 C.2     1  LIG1        0.1844
     12 C           1.6460   -0.1380    0.0000 C.ar    1  LIG1        0.0390
     13 C           2.5880   -0.4830    0.0000 C.ar    1  LIG1        0.0483
     14 C           3.3540    0.1210    0.0000 C.ar    1  LIG1        0.2343
     15 C           3.1920    1.1170    0.0000 C.ar    1  LIG1        0.2343
     16 C           2.2540    1.4830    0.0000 C.ar    1  LIG1        0.0455
     17 C           1.4830    0.8580    0.0000 C.ar    1  LIG1        0.0064
     18 O           3.9790    1.7420    0.0000 O.3     1  LIG1       -0.2831
     19 O           4.2920   -0.2290    0.0000 O.3     1  LIG1       -0.2831
     20 O           0.9920   -1.7380    0.0000 O.2     1  LIG1       -0.2904
@<TRIPOS>BOND
     1     1     2   ar
     2     1     6   ar
     3     2     3   ar
     4     2     9    1
     5     3     4   ar
     6     4     5   ar
     7     4     8    1
     8     5     6   ar
     9     6     7    1
    10     9    10    1
    11    10    11    1
    12    11    12    1
    13    11    20    2
    14    12    13   ar
    15    12    17   ar
    16    13    14   ar
    17    14    15   ar
    18    14    19    1
    19    15    16   ar
    20    15    18    1
    21    16    17   ar
