@<TRIPOS>MOLECULE
30289_ChemDiv_3849-0168
 29 32 0 0 0
SMALL
GASTEIGER
Energy = 0

@<TRIPOS>ATOM
      1 C          -1.2670    0.1750    0.0000 C.3     1  LIG1        0.1964
      2 C          -1.2830   -0.8130    0.0000 C.3     1  LIG1        0.1576
      3 C          -0.3290   -1.1420    0.0000 C.2     1  LIG1        0.2432
      4 N           0.2580   -0.3380    0.0000 N.am    1  LIG1       -0.2061
      5 C          -0.3210    0.4830    0.0000 C.2     1  LIG1        0.2593
      6 O          -0.0630    1.4630    0.0000 O.2     1  LIG1       -0.2719
      7 C           1.2630   -0.3380    0.0000 C.ar    1  LIG1        0.0612
      8 C           1.7500    0.5500    0.0000 C.ar    1  LIG1        0.0220
      9 C           2.7710    0.5500    0.0000 C.ar    1  LIG1        0.0358
     10 BR          3.2670    1.4170    0.0000 Br      1  LIG1       -0.0490
     11 C           3.2670   -0.3210    0.0000 C.ar    1  LIG1        0.0068
     12 C           2.7710   -1.1920    0.0000 C.ar    1  LIG1        0.0018
     13 C           1.7830   -1.2130    0.0000 C.ar    1  LIG1        0.0153
     14 O          -0.0790   -2.1000    0.0000 O.2     1  LIG1       -0.2736
     15 C          -2.1330   -1.2080    0.0000 C.2     1  LIG1        0.1638
     16 N          -2.8040   -0.4130    0.0000 N.2     1  LIG1       -0.1601
     17 N          -2.2290    0.4420    0.0000 N.pl3   1  LIG1       -0.1333
     18 C          -2.3960   -2.1670    0.0000 C.2     1  LIG1        0.3571
     19 O          -3.2710   -2.6790    0.0000 O.2     1  LIG1       -0.2435
     20 O          -1.5500   -2.6540    0.0000 O.3     1  LIG1       -0.4446
     21 C          -1.5330   -3.6380    0.0000 C.3     1  LIG1        0.2089
     22 C          -0.6630   -4.1380    0.0000 C.3     1  LIG1        0.0513
     23 C          -1.3250    1.1290    0.0000 C.ar    1  LIG1        0.0063
     24 C          -0.4420    1.6290    0.0000 C.ar    1  LIG1       -0.0013
     25 C          -0.4420    2.6250    0.0000 C.ar    1  LIG1        0.0111
     26 C          -1.3250    3.1380    0.0000 C.ar    1  LIG1        0.0577
     27 C          -2.1790    2.6250    0.0000 C.ar    1  LIG1        0.0111
     28 C          -2.1790    1.6290    0.0000 C.ar    1  LIG1       -0.0013
     29 CL         -1.3250    4.1380    0.0000 Cl      1  LIG1       -0.0822
@<TRIPOS>BOND
     1     1     2    1
     2     1     5    1
     3     1    17    1
     4     1    23    1
     5     2     3    1
     6     2    15    1
     7     3     4   am
     8     3    14    2
     9     4     5   am
    10     4     7    1
    11     5     6    2
    12     7     8   ar
    13     7    13   ar
    14     8     9   ar
    15     9    10    1
    16     9    11   ar
    17    11    12   ar
    18    12    13   ar
    19    15    16    2
    20    15    18    1
    21    16    17    1
    22    18    19    2
    23    18    20    1
    24    20    21    1
    25    21    22    1
    26    23    24   ar
    27    23    28   ar
    28    24    25   ar
    29    25    26   ar
    30    26    27   ar
    31    26    29    1
    32    27    28   ar
