@<TRIPOS>MOLECULE
30287_ChemDiv_3772-5989
 21 23 0 0 0
SMALL
GASTEIGER
Energy = 0

@<TRIPOS>ATOM
      1 N          -0.4880    0.7670    0.0000 N.ar    1  LIG1       -0.1977
      2 C          -0.3170   -0.2210    0.0000 C.ar    1  LIG1        0.2108
      3 N          -1.2000   -0.6790    0.0000 N.ar    1  LIG1       -0.1375
      4 N          -1.9250    0.0250    0.0000 N.ar    1  LIG1       -0.2075
      5 C          -1.4710    0.9170    0.0000 C.ar    1  LIG1        0.2020
      6 C          -2.9000   -0.1500    0.0000 C.ar    1  LIG1        0.0846
      7 C          -3.5420    0.6130    0.0000 C.ar    1  LIG1        0.0192
      8 C          -4.5210    0.4540    0.0000 C.ar    1  LIG1        0.0015
      9 C          -4.8630   -0.4830    0.0000 C.ar    1  LIG1        0.0001
     10 C          -4.2380   -1.2540    0.0000 C.ar    1  LIG1        0.0015
     11 C          -3.2460   -1.0880    0.0000 C.ar    1  LIG1        0.0192
     12 S           0.5830   -0.6580    0.0000 S.3     1  LIG1       -0.0657
     13 C           1.3960   -0.1080    0.0000 C.3     1  LIG1        0.1340
     14 C           2.2880   -0.5540    0.0000 C.2     1  LIG1        0.1843
     15 O           2.3500   -1.5540    0.0000 O.2     1  LIG1       -0.2904
     16 C           3.1250    0.0080    0.0000 C.ar    1  LIG1        0.0356
     17 C           3.0540    1.0170    0.0000 C.ar    1  LIG1        0.0029
     18 C           3.9040    1.5580    0.0000 C.ar    1  LIG1        0.0001
     19 C           4.8040    1.1130    0.0000 C.ar    1  LIG1        0.0000
     20 C           4.8580    0.1040    0.0000 C.ar    1  LIG1        0.0001
     21 C           4.0250   -0.4380    0.0000 C.ar    1  LIG1        0.0029
@<TRIPOS>BOND
     1     1     2   ar
     2     1     5   ar
     3     2     3   ar
     4     2    12    1
     5     3     4   ar
     6     4     5   ar
     7     4     6    1
     8     6     7   ar
     9     6    11   ar
    10     7     8   ar
    11     8     9   ar
    12     9    10   ar
    13    10    11   ar
    14    12    13    1
    15    13    14    1
    16    14    15    2
    17    14    16    1
    18    16    17   ar
    19    16    21   ar
    20    17    18   ar
    21    18    19   ar
    22    19    20   ar
    23    20    21   ar
