@<TRIPOS>MOLECULE
30280_ChemDiv_5978-0088
 26 28 0 0 0
SMALL
GASTEIGER
Energy = 0

@<TRIPOS>ATOM
      1 C          -3.5920   -0.8170    0.0000 C.ar    1  LIG1        0.1684
      2 N          -2.6380   -1.1630    0.0000 N.ar    1  LIG1       -0.2019
      3 C          -1.8750   -0.5290    0.0000 C.ar    1  LIG1        0.1946
      4 N          -2.0460    0.4540    0.0000 N.ar    1  LIG1       -0.1827
      5 C          -2.9790    0.7960    0.0000 C.ar    1  LIG1        0.2836
      6 C          -3.7630    0.1710    0.0000 C.ar    1  LIG1        0.0898
      7 C          -4.6960    0.5130    0.0000 C.ar    1  LIG1       -0.0130
      8 C          -5.4580   -0.1380    0.0000 C.ar    1  LIG1        0.0108
      9 C          -5.2920   -1.1380    0.0000 C.ar    1  LIG1        0.0607
     10 N          -4.3580   -1.4630    0.0000 N.ar    1  LIG1       -0.2308
     11 C          -6.0500   -1.7790    0.0000 C.3     1  LIG1        0.0521
     12 C          -4.8710    1.4960    0.0000 C.3     1  LIG1        0.0313
     13 O          -3.1460    1.7830    0.0000 O.3     1  LIG1       -0.2650
     14 S          -0.9420   -0.8790    0.0000 S.3     1  LIG1       -0.0657
     15 C          -0.1790   -0.2290    0.0000 C.3     1  LIG1        0.1516
     16 C           0.7540   -0.5710    0.0000 C.2     1  LIG1        0.2528
     17 O           0.9250   -1.5580    0.0000 O.2     1  LIG1       -0.2724
     18 N           1.5170    0.0500    0.0000 N.am    1  LIG1       -0.2043
     19 C           2.4710   -0.2880    0.0000 C.3     1  LIG1        0.1198
     20 C           3.2330    0.3630    0.0000 C.3     1  LIG1        0.0498
     21 C           4.1670    0.0250    0.0000 C.ar    1  LIG1       -0.0204
     22 C           4.3380   -0.9880    0.0000 C.ar    1  LIG1       -0.0042
     23 C           5.2710   -1.3250    0.0000 C.ar    1  LIG1       -0.0003
     24 C           6.0500   -0.6750    0.0000 C.ar    1  LIG1       -0.0000
     25 C           5.8670    0.3040    0.0000 C.ar    1  LIG1       -0.0003
     26 C           4.9330    0.6460    0.0000 C.ar    1  LIG1       -0.0042
@<TRIPOS>BOND
     1     1     2   ar
     2     1     6   ar
     3     1    10   ar
     4     2     3   ar
     5     3     4   ar
     6     3    14    1
     7     4     5   ar
     8     5     6   ar
     9     5    13    1
    10     6     7   ar
    11     7     8   ar
    12     7    12    1
    13     8     9   ar
    14     9    10   ar
    15     9    11    1
    16    14    15    1
    17    15    16    1
    18    16    17    2
    19    16    18   am
    20    18    19    1
    21    19    20    1
    22    20    21    1
    23    21    22   ar
    24    21    26   ar
    25    22    23   ar
    26    23    24   ar
    27    24    25   ar
    28    25    26   ar
