@<TRIPOS>MOLECULE
30285_ChemDiv_3772-4102
 28 31 0 0 0
SMALL
GASTEIGER
Energy = 0

@<TRIPOS>ATOM
      1 C           0.7000   -0.8250    0.0000 C.ar    1  LIG1        0.2250
      2 N           0.9750    0.1500    0.0000 N.ar    1  LIG1       -0.1792
      3 C           0.3380    0.8630    0.0000 C.ar    1  LIG1        0.2456
      4 N          -0.6380    0.6290    0.0000 N.ar    1  LIG1       -0.1777
      5 C          -0.9460   -0.3040    0.0000 C.ar    1  LIG1        0.2456
      6 N          -0.2670   -1.0250    0.0000 N.ar    1  LIG1       -0.1792
      7 N          -1.9540   -0.5040    0.0000 N.pl3   1  LIG1       -0.1775
      8 C          -2.6000    0.2580    0.0000 C.ar    1  LIG1        0.0736
      9 C          -2.2790    1.2290    0.0000 C.ar    1  LIG1        0.0163
     10 C          -2.9250    1.9630    0.0000 C.ar    1  LIG1       -0.0029
     11 C          -3.8920    1.7580    0.0000 C.ar    1  LIG1       -0.0218
     12 C          -4.2580    0.8290    0.0000 C.ar    1  LIG1       -0.0029
     13 C          -3.5630    0.0580    0.0000 C.ar    1  LIG1        0.0163
     14 C          -4.5710    2.4750    0.0000 C.3     1  LIG1        0.0310
     15 N           0.6250    1.8710    0.0000 N.pl3   1  LIG1       -0.1775
     16 C           1.6290    2.1130    0.0000 C.ar    1  LIG1        0.0736
     17 C           2.3080    1.3920    0.0000 C.ar    1  LIG1        0.0163
     18 C           3.2830    1.5920    0.0000 C.ar    1  LIG1       -0.0029
     19 C           3.5580    2.5170    0.0000 C.ar    1  LIG1       -0.0218
     20 C           2.8790    3.2790    0.0000 C.ar    1  LIG1       -0.0029
     21 C           1.9080    3.0420    0.0000 C.ar    1  LIG1        0.0163
     22 C           4.5670    2.6750    0.0000 C.3     1  LIG1        0.0310
     23 N           1.3710   -1.5630    0.0000 N.pl3   1  LIG1       -0.2781
     24 C           1.0670   -2.5210    0.0000 C.3     1  LIG1        0.0936
     25 C           1.6790   -3.2750    0.0000 C.3     1  LIG1        0.0216
     26 C           2.6790   -3.1000    0.0000 C.3     1  LIG1        0.0035
     27 C           3.0130   -2.1330    0.0000 C.3     1  LIG1        0.0216
     28 C           2.3500   -1.3880    0.0000 C.3     1  LIG1        0.0936
@<TRIPOS>BOND
     1     1     2   ar
     2     1     6   ar
     3     1    23    1
     4     2     3   ar
     5     3     4   ar
     6     3    15    1
     7     4     5   ar
     8     5     6   ar
     9     5     7    1
    10     7     8    1
    11     8     9   ar
    12     8    13   ar
    13     9    10   ar
    14    10    11   ar
    15    11    12   ar
    16    11    14    1
    17    12    13   ar
    18    15    16    1
    19    16    17   ar
    20    16    21   ar
    21    17    18   ar
    22    18    19   ar
    23    19    20   ar
    24    19    22    1
    25    20    21   ar
    26    23    24    1
    27    23    28    1
    28    24    25    1
    29    25    26    1
    30    26    27    1
    31    27    28    1
