@<TRIPOS>MOLECULE
30284_ChemDiv_4003-0452
 20 21 0 0 0
SMALL
GASTEIGER
Energy = 0

@<TRIPOS>ATOM
      1 C           1.4670   -2.1920    0.0000 C.ar    1  LIG1        0.1176
      2 N           2.0630   -3.0080    0.0000 N.ar    1  LIG1       -0.2735
      3 N           3.0080   -2.6960    0.0000 N.ar    1  LIG1       -0.2168
      4 N           3.0080   -1.6920    0.0000 N.ar    1  LIG1       -0.2168
      5 N           2.0630   -1.3830    0.0000 N.ar    1  LIG1       -0.2735
      6 N           0.4710   -2.1920    0.0000 N.am    1  LIG1       -0.1996
      7 C          -0.0330   -1.3250    0.0000 C.2     1  LIG1        0.2400
      8 C           0.4790   -0.4710    0.0000 C.3     1  LIG1        0.0913
      9 C          -0.0170    0.3960    0.0000 C.3     1  LIG1        0.0370
     10 C           0.4790    1.2750    0.0000 C.3     1  LIG1        0.0465
     11 C          -0.0330    2.1460    0.0000 C.2     1  LIG1        0.0507
     12 O          -1.0250    2.1460    0.0000 O.co2   1  LIG1       -0.5492
     13 O           0.4710    3.0130    0.0000 O.co2   1  LIG1       -0.5492
     14 C          -1.0250    0.3960    0.0000 C.ar    1  LIG1       -0.0217
     15 C          -1.5290   -0.4710    0.0000 C.ar    1  LIG1       -0.0043
     16 C          -2.5130   -0.4710    0.0000 C.ar    1  LIG1       -0.0003
     17 C          -3.0130    0.3960    0.0000 C.ar    1  LIG1       -0.0000
     18 C          -2.5130    1.2580    0.0000 C.ar    1  LIG1       -0.0003
     19 C          -1.5290    1.2580    0.0000 C.ar    1  LIG1       -0.0043
     20 O          -1.0250   -1.3210    0.0000 O.2     1  LIG1       -0.2736
@<TRIPOS>BOND
     1     1     2   ar
     2     1     5   ar
     3     1     6    1
     4     2     3   ar
     5     3     4   ar
     6     4     5   ar
     7     6     7   am
     8     7     8    1
     9     7    20    2
    10     8     9    1
    11     9    10    1
    12     9    14    1
    13    10    11    1
    14    11    12   ar
    15    11    13   ar
    16    14    15   ar
    17    14    19   ar
    18    15    16   ar
    19    16    17   ar
    20    17    18   ar
    21    18    19   ar
