@<TRIPOS>MOLECULE
30283_ChemDiv_3772-3443
 24 26 0 0 0
SMALL
GASTEIGER
Energy = 0

@<TRIPOS>ATOM
      1 C          -1.2880    0.2880    0.0000 C.ar    1  LIG1        0.1083
      2 C          -1.2880    1.2420    0.0000 C.ar    1  LIG1        0.0933
      3 C          -2.9580    1.2420    0.0000 C.ar    1  LIG1       -0.0118
      4 C          -2.9580    0.2960    0.0000 C.ar    1  LIG1        0.0051
      5 S          -2.1250   -0.1960    0.0000 S.2     1  LIG1       -0.0749
      6 C          -3.8630   -0.1960    0.0000 C.3     1  LIG1        0.0379
      7 C          -3.8500    1.7380    0.0000 C.3     1  LIG1        0.0315
      8 C          -0.4460    1.7290    0.0000 C.2     1  LIG1        0.3427
      9 O          -0.4380    2.6880    0.0000 O.2     1  LIG1       -0.2448
     10 O           0.3920    1.2420    0.0000 O.3     1  LIG1       -0.4454
     11 C           1.2250    1.7290    0.0000 C.3     1  LIG1        0.2089
     12 C           2.0540    1.1960    0.0000 C.3     1  LIG1        0.0513
     13 N          -0.4460   -0.1960    0.0000 N.am    1  LIG1       -0.1724
     14 C          -0.4460   -1.1630    0.0000 C.2     1  LIG1        0.2459
     15 C           0.3920   -1.6420    0.0000 C.3     1  LIG1        0.0829
     16 C           1.5920   -1.6420    0.0000 C.3     1  LIG1        0.0315
     17 C           1.0040   -2.6830    0.0000 C.3     1  LIG1        0.0143
     18 C           2.3330   -1.1830    0.0000 C.ar    1  LIG1       -0.0220
     19 C           2.3330   -0.3210    0.0000 C.ar    1  LIG1       -0.0043
     20 C           3.0920    0.1170    0.0000 C.ar    1  LIG1       -0.0003
     21 C           3.8580   -0.3290    0.0000 C.ar    1  LIG1       -0.0000
     22 C           3.8580   -1.1920    0.0000 C.ar    1  LIG1       -0.0003
     23 C           3.0920   -1.6380    0.0000 C.ar    1  LIG1       -0.0043
     24 O          -1.2790   -1.6420    0.0000 O.2     1  LIG1       -0.2730
@<TRIPOS>BOND
     1     1     2   ar
     2     1     5   ar
     3     1    13    1
     4     2     3   ar
     5     2     8    1
     6     3     4   ar
     7     3     7    1
     8     4     5   ar
     9     4     6    1
    10     8     9    2
    11     8    10    1
    12    10    11    1
    13    11    12    1
    14    13    14   am
    15    14    15    1
    16    14    24    2
    17    15    16    1
    18    15    17    1
    19    16    17    1
    20    16    18    1
    21    18    19   ar
    22    18    23   ar
    23    19    20   ar
    24    20    21   ar
    25    21    22   ar
    26    22    23   ar
