@<TRIPOS>MOLECULE
30290_ChemDiv_3909-9302
 27 29 0 0 0
SMALL
GASTEIGER
Energy = 0

@<TRIPOS>ATOM
      1 N           1.2960    1.7420    0.0000 N.ar    1  LIG1       -0.2708
      2 C           0.4290    2.2460    0.0000 C.ar    1  LIG1        0.2647
      3 C          -0.4290    1.7420    0.0000 C.ar    1  LIG1        0.0567
      4 C          -0.4290    0.7460    0.0000 C.ar    1  LIG1        0.0105
      5 C           0.4290    0.2460    0.0000 C.ar    1  LIG1        0.0728
      6 C           1.2960    0.7460    0.0000 C.ar    1  LIG1        0.0875
      7 C           0.4290   -0.7540    0.0000 C.2     1  LIG1        0.2662
      8 O           1.2920   -1.2630    0.0000 O.2     1  LIG1       -0.2683
      9 N          -0.4420   -1.2540    0.0000 N.am    1  LIG1       -0.2016
     10 C          -1.3080   -0.7630    0.0000 C.3     1  LIG1        0.1159
     11 C          -2.1710   -1.2540    0.0000 C.3     1  LIG1        0.0293
     12 C          -2.1830   -2.2460    0.0000 C.3     1  LIG1        0.0435
     13 C          -3.0500   -2.7380    0.0000 C.2     1  LIG1        0.0504
     14 O          -3.0630   -3.7380    0.0000 O.co2   1  LIG1       -0.5492
     15 O          -3.9130   -2.2330    0.0000 O.co2   1  LIG1       -0.5492
     16 C          -1.2960    0.2460    0.0000 C.ar    1  LIG1        0.0003
     17 C          -2.1580    0.7460    0.0000 C.ar    1  LIG1        0.0000
     18 C          -2.1710    1.7460    0.0000 C.ar    1  LIG1        0.0002
     19 C          -1.2920    2.2420    0.0000 C.ar    1  LIG1        0.0047
     20 O           0.4290    3.2540    0.0000 O.2     1  LIG1       -0.2666
     21 C           2.1710    2.2420    0.0000 C.ar    1  LIG1        0.0942
     22 C           3.0330    1.7330    0.0000 C.ar    1  LIG1        0.1562
     23 F           3.0210    0.7330    0.0000 F       1  LIG1       -0.2026
     24 C           3.9000    2.2250    0.0000 C.ar    1  LIG1        0.0311
     25 C           3.9080    3.2290    0.0000 C.ar    1  LIG1        0.0024
     26 C           3.0380    3.7420    0.0000 C.ar    1  LIG1        0.0016
     27 C           2.1710    3.2420    0.0000 C.ar    1  LIG1        0.0199
@<TRIPOS>BOND
     1     1     2   ar
     2     1     6   ar
     3     1    21    1
     4     2     3   ar
     5     2    20    2
     6     3     4   ar
     7     3    19   ar
     8     4     5   ar
     9     4    16   ar
    10     5     6   ar
    11     5     7    1
    12     7     8    2
    13     7     9   am
    14     9    10    1
    15    10    11    1
    16    11    12    1
    17    12    13    1
    18    13    14   ar
    19    13    15   ar
    20    16    17   ar
    21    17    18   ar
    22    18    19   ar
    23    21    22   ar
    24    21    27   ar
    25    22    23    1
    26    22    24   ar
    27    24    25   ar
    28    25    26   ar
    29    26    27   ar
