@<TRIPOS>MOLECULE
30294_ChemDiv_C033-0486
 31 33 0 0 0
SMALL
GASTEIGER
Energy = 0

@<TRIPOS>ATOM
      1 N          -0.8830    2.9920    0.0000 N.ar    1  LIG1       -0.2700
      2 C          -1.7250    2.4920    0.0000 C.ar    1  LIG1        0.2648
      3 C          -1.7250    1.5000    0.0000 C.ar    1  LIG1        0.0567
      4 C          -0.8830    0.9880    0.0000 C.ar    1  LIG1        0.0105
      5 C          -0.0080    1.4920    0.0000 C.ar    1  LIG1        0.0728
      6 C          -0.0080    2.4920    0.0000 C.ar    1  LIG1        0.0876
      7 C           0.8460    0.9880    0.0000 C.2     1  LIG1        0.2667
      8 N           0.8580   -0.0130    0.0000 N.am    1  LIG1       -0.1916
      9 C           1.7250   -0.5130    0.0000 C.3     1  LIG1        0.2017
     10 C           1.7250   -1.5040    0.0000 C.2     1  LIG1        0.2635
     11 O           2.6040   -2.0080    0.0000 O.2     1  LIG1       -0.2714
     12 N           0.8580   -2.0080    0.0000 N.am    1  LIG1       -0.2038
     13 C           0.8580   -2.9920    0.0000 C.3     1  LIG1        0.1178
     14 C           1.7420   -3.5040    0.0000 C.3     1  LIG1        0.0555
     15 C           1.7250   -4.5040    0.0000 C.3     1  LIG1        0.1441
     16 O           2.5880   -5.0040    0.0000 O.3     1  LIG1       -0.3510
     17 C           2.5830   -6.0040    0.0000 C.3     1  LIG1        0.1741
     18 O           1.7250    1.4920    0.0000 O.2     1  LIG1       -0.2683
     19 C          -0.8830    0.0000    0.0000 C.ar    1  LIG1        0.0003
     20 C          -1.7420   -0.5130    0.0000 C.ar    1  LIG1        0.0000
     21 C          -2.6080   -0.0130    0.0000 C.ar    1  LIG1        0.0002
     22 C          -2.6000    0.9880    0.0000 C.ar    1  LIG1        0.0047
     23 O          -2.6080    2.9920    0.0000 O.2     1  LIG1       -0.2666
     24 C          -0.8830    3.9920    0.0000 C.ar    1  LIG1        0.1007
     25 C           0.0000    4.4960    0.0000 C.ar    1  LIG1        0.1547
     26 O           0.8580    3.9920    0.0000 O.3     1  LIG1       -0.4700
     27 C           0.8580    3.0000    0.0000 C.3     1  LIG1        0.2525
     28 C           0.0000    5.5040    0.0000 C.ar    1  LIG1        0.0384
     29 C          -0.8670    6.0040    0.0000 C.ar    1  LIG1        0.0032
     30 C          -1.7250    5.4880    0.0000 C.ar    1  LIG1        0.0017
     31 C          -1.7250    4.4880    0.0000 C.ar    1  LIG1        0.0207
@<TRIPOS>BOND
     1     1     2   ar
     2     1     6   ar
     3     1    24    1
     4     2     3   ar
     5     2    23    2
     6     3     4   ar
     7     3    22   ar
     8     4     5   ar
     9     4    19   ar
    10     5     6   ar
    11     5     7    1
    12     7     8   am
    13     7    18    2
    14     8     9    1
    15     9    10    1
    16    10    11    2
    17    10    12   am
    18    12    13    1
    19    13    14    1
    20    14    15    1
    21    15    16    1
    22    16    17    1
    23    19    20   ar
    24    20    21   ar
    25    21    22   ar
    26    24    25   ar
    27    24    31   ar
    28    25    26    1
    29    25    28   ar
    30    26    27    1
    31    28    29   ar
    32    29    30   ar
    33    30    31   ar
