@<TRIPOS>MOLECULE
30292_ChemDiv_C033-0159
 37 40 0 0 0
SMALL
GASTEIGER
Energy = 0

@<TRIPOS>ATOM
      1 C          -0.9000    3.0130    0.0000 C.ar    1  LIG1        0.0728
      2 C          -0.0330    3.5130    0.0000 C.ar    1  LIG1        0.0875
      3 N          -0.0330    4.5040    0.0000 N.ar    1  LIG1       -0.2729
      4 C          -0.9000    5.0040    0.0000 C.ar    1  LIG1        0.2647
      5 C          -1.7630    4.5040    0.0000 C.ar    1  LIG1        0.0567
      6 C          -1.7630    3.5130    0.0000 C.ar    1  LIG1        0.0105
      7 C          -2.6210    3.0130    0.0000 C.ar    1  LIG1        0.0003
      8 C          -3.4960    3.5130    0.0000 C.ar    1  LIG1        0.0000
      9 C          -3.4960    4.5040    0.0000 C.ar    1  LIG1        0.0002
     10 C          -2.6210    5.0040    0.0000 C.ar    1  LIG1        0.0047
     11 O          -0.9000    6.0000    0.0000 O.2     1  LIG1       -0.2666
     12 C           0.8290    5.0040    0.0000 C.ar    1  LIG1        0.0699
     13 C           1.6920    4.5040    0.0000 C.ar    1  LIG1        0.0545
     14 C           2.5670    5.0040    0.0000 C.ar    1  LIG1        0.1402
     15 O           3.4290    4.4880    0.0000 O.3     1  LIG1       -0.4714
     16 C           4.3040    4.9880    0.0000 C.3     1  LIG1        0.2525
     17 C           2.5670    6.0000    0.0000 C.ar    1  LIG1        0.0370
     18 C           1.6920    6.5000    0.0000 C.ar    1  LIG1        0.0046
     19 C           0.8290    6.0000    0.0000 C.ar    1  LIG1        0.0178
     20 C          -0.9000    2.0170    0.0000 C.2     1  LIG1        0.2663
     21 O          -0.0330    1.5000    0.0000 O.2     1  LIG1       -0.2683
     22 N          -1.7630    1.5000    0.0000 N.am    1  LIG1       -0.2011
     23 C          -1.7630    0.5000    0.0000 C.3     1  LIG1        0.1251
     24 C          -2.6210    0.0000    0.0000 C.3     1  LIG1        0.1105
     25 C          -2.6330   -0.9880    0.0000 C.2     1  LIG1        0.2475
     26 N          -3.4960   -1.4920    0.0000 N.am    1  LIG1       -0.1761
     27 C          -3.4960   -3.2250    0.0000 C.ar    1  LIG1        0.1074
     28 C          -2.6920   -3.6960    0.0000 C.ar    1  LIG1        0.1569
     29 C          -2.6920   -4.6250    0.0000 C.ar    1  LIG1        0.0751
     30 C          -3.4960   -5.0960    0.0000 C.ar    1  LIG1        0.1418
     31 C          -4.3080   -4.6170    0.0000 C.ar    1  LIG1        0.0384
     32 C          -4.3000   -3.6880    0.0000 C.ar    1  LIG1        0.0228
     33 O          -3.5080   -6.0330    0.0000 O.3     1  LIG1       -0.4713
     34 C          -2.6960   -6.5000    0.0000 C.3     1  LIG1        0.2525
     35 O          -1.8790   -3.2130    0.0000 O.3     1  LIG1       -0.4700
     36 C          -1.0920   -3.5580    0.0000 C.3     1  LIG1        0.2525
     37 O          -1.7630   -1.4920    0.0000 O.2     1  LIG1       -0.2729
@<TRIPOS>BOND
     1     1     2   ar
     2     1     6   ar
     3     1    20    1
     4     2     3   ar
     5     3     4   ar
     6     3    12    1
     7     4     5   ar
     8     4    11    2
     9     5     6   ar
    10     5    10   ar
    11     6     7   ar
    12     7     8   ar
    13     8     9   ar
    14     9    10   ar
    15    12    13   ar
    16    12    19   ar
    17    13    14   ar
    18    14    15    1
    19    14    17   ar
    20    15    16    1
    21    17    18   ar
    22    18    19   ar
    23    20    21    2
    24    20    22   am
    25    22    23    1
    26    23    24    1
    27    24    25    1
    28    25    26   am
    29    25    37    2
    30    26    27    1
    31    27    28   ar
    32    27    32   ar
    33    28    29   ar
    34    28    35    1
    35    29    30   ar
    36    30    31   ar
    37    30    33    1
    38    31    32   ar
    39    33    34    1
    40    35    36    1
