@<TRIPOS>MOLECULE
30299_ChemDiv_3849-0413
 31 36 0 0 0
SMALL
GASTEIGER
Energy = 0

@<TRIPOS>ATOM
      1 N           0.9500    1.7170    0.0000 N.am    1  LIG1       -0.1868
      2 C           1.0630    0.8670    0.0000 C.2     1  LIG1        0.2374
      3 C           0.2580    0.2420    0.0000 C.3     1  LIG1        0.0989
      4 C          -0.1460   -1.6250    0.0000 C.3     1  LIG1        0.0976
      5 C          -1.2170   -1.9750    0.0000 C.ar    1  LIG1       -0.0175
      6 C          -1.2040   -1.0040    0.0000 C.ar    1  LIG1       -0.0215
      7 C          -0.4290   -0.5580    0.0000 C.3     1  LIG1        0.0531
      8 C          -0.2790    0.7880    0.0000 C.3     1  LIG1        0.0949
      9 C          -0.0250    1.7170    0.0000 C.2     1  LIG1        0.2372
     10 O          -0.5210    2.5580    0.0000 O.2     1  LIG1       -0.2741
     11 C           0.5790   -1.1080    0.0000 C.ar    1  LIG1       -0.0215
     12 C           0.5790   -2.0790    0.0000 C.ar    1  LIG1       -0.0175
     13 C           1.4250   -2.5830    0.0000 C.ar    1  LIG1       -0.0041
     14 C           2.2670   -2.0920    0.0000 C.ar    1  LIG1       -0.0003
     15 C           2.2830   -1.1170    0.0000 C.ar    1  LIG1       -0.0003
     16 C           1.4380   -0.6210    0.0000 C.ar    1  LIG1       -0.0042
     17 C          -2.0500   -0.5080    0.0000 C.ar    1  LIG1       -0.0042
     18 C          -2.8920   -0.9880    0.0000 C.ar    1  LIG1       -0.0003
     19 C          -2.9000   -1.9630    0.0000 C.ar    1  LIG1       -0.0003
     20 C          -2.0580   -2.4500    0.0000 C.ar    1  LIG1       -0.0041
     21 C          -0.1460   -2.4290    0.0000 C.3     1  LIG1        0.2432
     22 O           0.6880   -2.9210    0.0000 O.3     1  LIG1       -0.3273
     23 C           0.6880   -3.8920    0.0000 C.3     1  LIG1        0.1769
     24 O          -0.9920   -2.9040    0.0000 O.3     1  LIG1       -0.3273
     25 C          -0.9920   -3.8750    0.0000 C.3     1  LIG1        0.1769
     26 O           1.9920    0.6170    0.0000 O.2     1  LIG1       -0.2741
     27 C           1.6330    2.4080    0.0000 C.ar    1  LIG1        0.1748
     28 N           1.3380    3.3290    0.0000 N.ar    1  LIG1       -0.2218
     29 C           2.1210    3.8960    0.0000 C.ar    1  LIG1        0.1079
     30 C           2.8960    3.3290    0.0000 C.ar    1  LIG1        0.0588
     31 S           2.6040    2.4080    0.0000 S.2     1  LIG1       -0.0502
@<TRIPOS>BOND
     1     1     2   am
     2     1     9   am
     3     1    27    1
     4     2     3    1
     5     2    26    2
     6     3     4    1
     7     3     8    1
     8     4     5    1
     9     4    12    1
    10     4    21    1
    11     5     6   ar
    12     5    20   ar
    13     6     7    1
    14     6    17   ar
    15     7     8    1
    16     7    11    1
    17     8     9    1
    18     9    10    2
    19    11    12   ar
    20    11    16   ar
    21    12    13   ar
    22    13    14   ar
    23    14    15   ar
    24    15    16   ar
    25    17    18   ar
    26    18    19   ar
    27    19    20   ar
    28    21    22    1
    29    21    24    1
    30    22    23    1
    31    24    25    1
    32    27    28   ar
    33    27    31   ar
    34    28    29   ar
    35    29    30   ar
    36    30    31   ar
