@<TRIPOS>MOLECULE
30305_ChemDiv_7199-0095
 17 18 0 0 0
SMALL
GASTEIGER
Energy = 0

@<TRIPOS>ATOM
      1 N          -2.1540    0.1380    0.0000 N.ar    1  LIG1       -0.2054
      2 C          -1.8380    1.0880    0.0000 C.ar    1  LIG1        0.1936
      3 N          -2.6380    1.6830    0.0000 N.ar    1  LIG1       -0.1976
      4 C          -3.4540    1.1040    0.0000 C.ar    1  LIG1        0.2217
      5 N          -3.1500    0.1380    0.0000 N.ar    1  LIG1       -0.1406
      6 S          -0.8790    1.3830    0.0000 S.3     1  LIG1       -0.0612
      7 C          -0.0210    0.8830    0.0000 C.3     1  LIG1        0.1407
      8 C           0.8540    1.3880    0.0000 C.1     1  LIG1       -0.0761
      9 C           1.7170    1.8960    0.0000 C.1     1  LIG1       -0.0544
     10 C           2.5830    2.4000    0.0000 C.3     1  LIG1        0.2575
     11 O           3.4500    1.9000    0.0000 O.3     1  LIG1       -0.2049
     12 C          -1.5790   -0.6750    0.0000 C.ar    1  LIG1        0.0850
     13 C          -1.9880   -1.5880    0.0000 C.ar    1  LIG1        0.0192
     14 C          -1.4040   -2.3960    0.0000 C.ar    1  LIG1        0.0015
     15 C          -0.4130   -2.2960    0.0000 C.ar    1  LIG1        0.0001
     16 C          -0.0040   -1.3790    0.0000 C.ar    1  LIG1        0.0015
     17 C          -0.5790   -0.5750    0.0000 C.ar    1  LIG1        0.0192
@<TRIPOS>BOND
     1     1     2   ar
     2     1     5   ar
     3     1    12    1
     4     2     3   ar
     5     2     6    1
     6     3     4   ar
     7     4     5   ar
     8     6     7    1
     9     7     8    1
    10     8     9    3
    11     9    10    1
    12    10    11    1
    13    12    13   ar
    14    12    17   ar
    15    13    14   ar
    16    14    15   ar
    17    15    16   ar
    18    16    17   ar
