@<TRIPOS>MOLECULE
30304_ChemDiv_E456-1567
 38 41 0 0 0
SMALL
GASTEIGER
Energy = 0

@<TRIPOS>ATOM
      1 C           0.9960   -3.0250    0.0000 C.ar    1  LIG1        0.0731
      2 C           0.5000   -2.1580    0.0000 C.ar    1  LIG1        0.0875
      3 N           0.9960   -1.2960    0.0000 N.ar    1  LIG1       -0.2730
      4 C           2.0000   -1.2960    0.0000 C.ar    1  LIG1        0.2647
      5 C           2.4960   -2.1580    0.0000 C.ar    1  LIG1        0.0567
      6 C           2.0000   -3.0250    0.0000 C.ar    1  LIG1        0.0105
      7 C           2.4960   -3.8920    0.0000 C.ar    1  LIG1        0.0003
      8 C           3.4960   -3.8920    0.0000 C.ar    1  LIG1        0.0000
      9 C           4.0000   -3.0250    0.0000 C.ar    1  LIG1        0.0002
     10 C           3.4960   -2.1580    0.0000 C.ar    1  LIG1        0.0047
     11 O           2.4960   -0.4250    0.0000 O.2     1  LIG1       -0.2666
     12 C           0.5000   -0.4250    0.0000 C.ar    1  LIG1        0.0671
     13 C           0.9960    0.4330    0.0000 C.ar    1  LIG1        0.0207
     14 C           0.5000    1.3000    0.0000 C.ar    1  LIG1        0.0384
     15 C          -0.5040    1.3000    0.0000 C.ar    1  LIG1        0.1388
     16 C          -1.0040    0.4330    0.0000 C.ar    1  LIG1        0.0384
     17 C          -0.5040   -0.4250    0.0000 C.ar    1  LIG1        0.0207
     18 O          -1.0040    2.1670    0.0000 O.3     1  LIG1       -0.4714
     19 C          -0.5040    3.0290    0.0000 C.3     1  LIG1        0.2525
     20 C           0.5000   -3.8920    0.0000 C.2     1  LIG1        0.2704
     21 N          -0.5040   -3.8920    0.0000 N.am    1  LIG1       -0.1754
     22 C          -1.0040   -3.0250    0.0000 C.ar    1  LIG1        0.0737
     23 C          -0.5040   -2.1580    0.0000 C.ar    1  LIG1        0.0168
     24 C          -1.0040   -1.2960    0.0000 C.ar    1  LIG1        0.0078
     25 C          -2.0040   -1.2960    0.0000 C.ar    1  LIG1        0.0757
     26 C          -2.5040   -0.4250    0.0000 C.2     1  LIG1        0.3414
     27 O          -3.5040   -0.4250    0.0000 O.2     1  LIG1       -0.2449
     28 O          -2.0040    0.4330    0.0000 O.3     1  LIG1       -0.4389
     29 C          -2.5040    1.3000    0.0000 C.3     1  LIG1        0.2708
     30 C          -2.0040    2.1670    0.0000 C.3     1  LIG1        0.1868
     31 N          -2.5040    3.0290    0.0000 N.4     1  LIG1        0.3802
     32 C          -3.5040    3.0290    0.0000 C.3     1  LIG1        0.1389
     33 C          -4.0040    3.9000    0.0000 C.3     1  LIG1        0.0688
     34 C          -2.0040    3.9000    0.0000 C.3     1  LIG1        0.1389
     35 C          -2.5040    4.7580    0.0000 C.3     1  LIG1        0.0688
     36 C          -2.5040   -2.1580    0.0000 C.ar    1  LIG1        0.0078
     37 C          -2.0040   -3.0250    0.0000 C.ar    1  LIG1        0.0168
     38 O           0.9960   -4.7580    0.0000 O.2     1  LIG1       -0.2680
@<TRIPOS>BOND
     1     1     2   ar
     2     1     6   ar
     3     1    20    1
     4     2     3   ar
     5     3     4   ar
     6     3    12    1
     7     4     5   ar
     8     4    11    2
     9     5     6   ar
    10     5    10   ar
    11     6     7   ar
    12     7     8   ar
    13     8     9   ar
    14     9    10   ar
    15    12    13   ar
    16    12    17   ar
    17    13    14   ar
    18    14    15   ar
    19    15    16   ar
    20    15    18    1
    21    16    17   ar
    22    18    19    1
    23    20    21   am
    24    20    38    2
    25    21    22    1
    26    22    23   ar
    27    22    37   ar
    28    23    24   ar
    29    24    25   ar
    30    25    26    1
    31    25    36   ar
    32    26    27    2
    33    26    28    1
    34    28    29    1
    35    29    30    1
    36    30    31    1
    37    31    32    1
    38    31    34    1
    39    32    33    1
    40    34    35    1
    41    36    37   ar
