@<TRIPOS>MOLECULE
30307_ChemDiv_3772-6578
 42 44 0 0 0
SMALL
GASTEIGER
Energy = 0

@<TRIPOS>ATOM
      1 C           4.0290   -0.0040    0.0000 C.ar    1  LIG1        0.1095
      2 C           3.5130    0.8830    0.0000 C.2     1  LIG1        0.3442
      3 O           2.4960    0.8830    0.0000 O.2     1  LIG1       -0.2448
      4 O           4.0130    1.7420    0.0000 O.3     1  LIG1       -0.4454
      5 C           5.0210    1.7420    0.0000 C.3     1  LIG1        0.2088
      6 C           5.5210    2.6130    0.0000 C.3     1  LIG1        0.0475
      7 C           6.5040    2.6130    0.0000 C.3     1  LIG1        0.0038
      8 C           7.0040    3.4630    0.0000 C.3     1  LIG1        0.0001
      9 C           3.5290   -0.8830    0.0000 C.ar    1  LIG1        0.1448
     10 O           2.5210   -0.8830    0.0000 O.3     1  LIG1       -0.4725
     11 C           2.0290   -1.7460    0.0000 C.3     1  LIG1        0.2395
     12 C           1.0040   -1.7460    0.0000 C.3     1  LIG1        0.2112
     13 C           0.5290   -2.6040    0.0000 C.3     1  LIG1        0.1096
     14 N          -0.5040   -2.6040    0.0000 N.3     1  LIG1       -0.2604
     15 C          -0.9710   -1.7580    0.0000 C.3     1  LIG1        0.1359
     16 C          -1.9960   -1.7460    0.0000 C.3     1  LIG1        0.1564
     17 N          -2.4880   -2.6040    0.0000 N.4     1  LIG1        0.3816
     18 C          -3.4960   -2.6040    0.0000 C.3     1  LIG1        0.1759
     19 C          -3.9960   -1.7460    0.0000 C.3     1  LIG1        0.2514
     20 C          -3.4960   -0.8830    0.0000 C.3     1  LIG1        0.2443
     21 O          -2.4880   -0.8830    0.0000 O.3     1  LIG1       -0.4723
     22 C          -1.9960   -0.0290    0.0000 C.ar    1  LIG1        0.1448
     23 C          -2.4960    0.8460    0.0000 C.ar    1  LIG1        0.1095
     24 C          -3.4960    0.8460    0.0000 C.2     1  LIG1        0.3442
     25 O          -3.9960   -0.0290    0.0000 O.2     1  LIG1       -0.2448
     26 O          -4.0170    1.7040    0.0000 O.3     1  LIG1       -0.4454
     27 C          -5.0250    1.7040    0.0000 C.3     1  LIG1        0.2088
     28 C          -5.5250    2.5630    0.0000 C.3     1  LIG1        0.0475
     29 C          -6.5130    2.5630    0.0000 C.3     1  LIG1        0.0038
     30 C          -7.0040    3.4210    0.0000 C.3     1  LIG1        0.0001
     31 C          -2.0040    1.7210    0.0000 C.ar    1  LIG1        0.0095
     32 C          -0.9960    1.7210    0.0000 C.ar    1  LIG1        0.0004
     33 C          -0.4710    0.8460    0.0000 C.ar    1  LIG1        0.0031
     34 C          -0.9710   -0.0040    0.0000 C.ar    1  LIG1        0.0371
     35 O          -4.9830   -1.7460    0.0000 O.3     1  LIG1       -0.2127
     36 C          -1.9960   -3.4580    0.0000 C.3     1  LIG1        0.1564
     37 C          -0.9960   -3.4580    0.0000 C.3     1  LIG1        0.1359
     38 O           0.5290   -0.8830    0.0000 O.3     1  LIG1       -0.2176
     39 C           4.0290   -1.7460    0.0000 C.ar    1  LIG1        0.0371
     40 C           5.0500   -1.7130    0.0000 C.ar    1  LIG1        0.0031
     41 C           5.5210   -0.8830    0.0000 C.ar    1  LIG1        0.0004
     42 C           5.0210   -0.0040    0.0000 C.ar    1  LIG1        0.0095
@<TRIPOS>BOND
     1     1     2    1
     2     1     9   ar
     3     1    42   ar
     4     2     3    2
     5     2     4    1
     6     4     5    1
     7     5     6    1
     8     6     7    1
     9     7     8    1
    10     9    10    1
    11     9    39   ar
    12    10    11    1
    13    11    12    1
    14    12    13    1
    15    12    38    1
    16    13    14    1
    17    14    15    1
    18    14    37    1
    19    15    16    1
    20    16    17    1
    21    17    18    1
    22    17    36    1
    23    18    19    1
    24    19    20    1
    25    19    35    1
    26    20    21    1
    27    21    22    1
    28    22    23   ar
    29    22    34   ar
    30    23    24    1
    31    23    31   ar
    32    24    25    2
    33    24    26    1
    34    26    27    1
    35    27    28    1
    36    28    29    1
    37    29    30    1
    38    31    32   ar
    39    32    33   ar
    40    33    34   ar
    41    36    37    1
    42    39    40   ar
    43    40    41   ar
    44    41    42   ar
