@<TRIPOS>MOLECULE
30303_ChemDiv_5056-0015
 28 31 0 0 0
SMALL
GASTEIGER
Energy = 0

@<TRIPOS>ATOM
      1 N          -1.9880   -0.6880    0.0000 N.am    1  LIG1       -0.2476
      2 C          -1.3000    0.0170    0.0000 C.2     1  LIG1        0.2618
      3 C          -1.7630    0.8960    0.0000 C.3     1  LIG1        0.2217
      4 C          -2.7330    0.7250    0.0000 C.ar    1  LIG1        0.0275
      5 C          -2.8630   -0.2460    0.0000 C.ar    1  LIG1        0.0531
      6 C          -3.7880   -0.6210    0.0000 C.ar    1  LIG1        0.0147
      7 C          -4.5540   -0.0130    0.0000 C.ar    1  LIG1        0.0013
      8 C          -4.4080    0.9580    0.0000 C.ar    1  LIG1       -0.0002
      9 C          -3.5170    1.3170    0.0000 C.ar    1  LIG1       -0.0002
     10 C          -0.6540    1.6330    0.0000 C.3     1  LIG1        0.1128
     11 C           0.2960    1.1500    0.0000 C.2     1  LIG1        0.1764
     12 C           1.1380    1.6790    0.0000 C.ar    1  LIG1        0.0345
     13 C           2.0080    1.2170    0.0000 C.ar    1  LIG1       -0.0017
     14 C           2.8380    1.7500    0.0000 C.ar    1  LIG1       -0.0260
     15 C           2.8000    2.7380    0.0000 C.ar    1  LIG1       -0.0261
     16 C           1.9170    3.1960    0.0000 C.ar    1  LIG1       -0.0045
     17 C           1.0880    2.6670    0.0000 C.ar    1  LIG1        0.0025
     18 C           3.6290    3.2670    0.0000 C.3     1  LIG1        0.0260
     19 C           4.5130    2.8040    0.0000 C.3     1  LIG1        0.0050
     20 C           4.5500    1.8170    0.0000 C.3     1  LIG1        0.0050
     21 C           3.7210    1.2880    0.0000 C.3     1  LIG1        0.0260
     22 O           0.3380    0.3290    0.0000 O.2     1  LIG1       -0.2912
     23 O          -2.0750    2.0080    0.0000 O.3     1  LIG1       -0.2113
     24 O          -0.3250   -0.1170    0.0000 O.2     1  LIG1       -0.2715
     25 C          -1.8130   -1.6580    0.0000 C.3     1  LIG1        0.1867
     26 C          -2.5790   -2.2880    0.0000 C.2     1  LIG1        0.2813
     27 O          -2.4040   -3.2630    0.0000 O.2     1  LIG1       -0.2698
     28 N          -3.5000   -1.9580    0.0000 N.am    1  LIG1       -0.0863
@<TRIPOS>BOND
     1     1     2   am
     2     1     5    1
     3     1    25    1
     4     2     3    1
     5     2    24    2
     6     3     4    1
     7     3    10    1
     8     3    23    1
     9     4     5   ar
    10     4     9   ar
    11     5     6   ar
    12     6     7   ar
    13     7     8   ar
    14     8     9   ar
    15    10    11    1
    16    11    12    1
    17    11    22    2
    18    12    13   ar
    19    12    17   ar
    20    13    14   ar
    21    14    15   ar
    22    14    21    1
    23    15    16   ar
    24    15    18    1
    25    16    17   ar
    26    18    19    1
    27    19    20    1
    28    20    21    1
    29    25    26    1
    30    26    27    2
    31    26    28   am
