@<TRIPOS>MOLECULE
30301_ChemDiv_3850-0110
 20 22 0 0 0
SMALL
GASTEIGER
Energy = 0

@<TRIPOS>ATOM
      1 C           0.4330   -0.1210    0.0000 C.3     1  LIG1        0.2224
      2 C           0.4330   -1.0460    0.0000 C.2     1  LIG1        0.2775
      3 N          -0.3920   -1.5080    0.0000 N.am    1  LIG1       -0.1771
      4 C          -1.2000   -1.0460    0.0000 C.ar    1  LIG1        0.0722
      5 C          -1.2000   -0.1210    0.0000 C.ar    1  LIG1        0.0297
      6 C          -2.0130    0.3420    0.0000 C.ar    1  LIG1        0.0065
      7 C          -2.8210   -0.1210    0.0000 C.ar    1  LIG1        0.0344
      8 C          -2.8210   -1.0460    0.0000 C.ar    1  LIG1        0.0080
      9 C          -2.0130   -1.5080    0.0000 C.ar    1  LIG1        0.0169
     10 BR         -3.6670    0.3710    0.0000 Br      1  LIG1       -0.0490
     11 O           1.2330   -1.5080    0.0000 O.2     1  LIG1       -0.2700
     12 C           1.4920   -0.1210    0.0000 C.3     1  LIG1        0.0981
     13 C           1.9330    0.7380    0.0000 C.2     1  LIG1        0.1534
     14 O           1.3040    1.5130    0.0000 O.2     1  LIG1       -0.2960
     15 C           2.8790    0.9960    0.0000 C.3     1  LIG1        0.0646
     16 C           3.6630    0.3420    0.0000 C.3     1  LIG1        0.0078
     17 C           3.6630   -0.6630    0.0000 C.3     1  LIG1        0.0005
     18 C           2.8790   -1.2830    0.0000 C.3     1  LIG1        0.0006
     19 C           1.9170   -1.0290    0.0000 C.3     1  LIG1        0.0107
     20 O           0.4330    0.9420    0.0000 O.3     1  LIG1       -0.2112
@<TRIPOS>BOND
     1     1     2    1
     2     1     5    1
     3     1    12    1
     4     1    20    1
     5     2     3   am
     6     2    11    2
     7     3     4    1
     8     4     5   ar
     9     4     9   ar
    10     5     6   ar
    11     6     7   ar
    12     7     8   ar
    13     7    10    1
    14     8     9   ar
    15    12    13    1
    16    12    19    1
    17    13    14    2
    18    13    15    1
    19    15    16    1
    20    16    17    1
    21    17    18    1
    22    18    19    1
