@<TRIPOS>MOLECULE
30318_ChemDiv_4029-0265
 19 21 0 0 0
SMALL
GASTEIGER
Energy = 0

@<TRIPOS>ATOM
      1 N          -0.5170   -0.2500    0.0000 N.am    1  LIG1       -0.2753
      2 C          -1.3830    0.2540    0.0000 C.2     1  LIG1        0.2551
      3 C          -2.2500   -0.2500    0.0000 C.ar    1  LIG1        0.0830
      4 S          -2.3540   -1.2330    0.0000 S.2     1  LIG1       -0.0819
      5 C          -3.3330   -1.4500    0.0000 C.ar    1  LIG1        0.0356
      6 C          -3.8210   -0.5830    0.0000 C.ar    1  LIG1        0.0076
      7 C          -3.1540    0.1670    0.0000 C.ar    1  LIG1        0.0116
      8 O          -1.3830    1.2540    0.0000 O.2     1  LIG1       -0.2694
      9 C           0.3500    0.2540    0.0000 C.3     1  LIG1        0.0980
     10 C           1.2170   -0.2500    0.0000 C.3     1  LIG1        0.0422
     11 C           2.0830    0.2540    0.0000 C.ar    1  LIG1       -0.0208
     12 C           2.0830    1.2540    0.0000 C.ar    1  LIG1       -0.0042
     13 C           2.9500    1.7500    0.0000 C.ar    1  LIG1       -0.0003
     14 C           3.8170    1.2500    0.0000 C.ar    1  LIG1       -0.0000
     15 C           3.8170    0.2500    0.0000 C.ar    1  LIG1       -0.0003
     16 C           2.9500   -0.2500    0.0000 C.ar    1  LIG1       -0.0042
     17 C           1.2170   -1.2500    0.0000 C.3     1  LIG1        0.0078
     18 C           0.3500   -1.7460    0.0000 C.3     1  LIG1        0.0219
     19 C          -0.5170   -1.2500    0.0000 C.3     1  LIG1        0.0937
@<TRIPOS>BOND
     1     1     2   am
     2     1     9    1
     3     1    19    1
     4     2     3    1
     5     2     8    2
     6     3     4   ar
     7     3     7   ar
     8     4     5   ar
     9     5     6   ar
    10     6     7   ar
    11     9    10    1
    12    10    11    1
    13    10    17    1
    14    11    12   ar
    15    11    16   ar
    16    12    13   ar
    17    13    14   ar
    18    14    15   ar
    19    15    16   ar
    20    17    18    1
    21    18    19    1
