@<TRIPOS>MOLECULE
30317_ChemDiv_3785-0286
 33 37 0 0 0
SMALL
GASTEIGER
Energy = 0

@<TRIPOS>ATOM
      1 S          -2.7080    0.1830    0.0000 S.O2    1  LIG1       -0.0559
      2 N          -3.6880    0.4290    0.0000 N.pl3   1  LIG1       -0.5049
      3 C          -3.9670    1.3790    0.0000 C.ar    1  LIG1        0.0590
      4 N          -4.9420    1.6210    0.0000 N.ar    1  LIG1       -0.2485
      5 C          -5.2250    2.5710    0.0000 C.ar    1  LIG1        0.1000
      6 C          -4.5080    3.2880    0.0000 C.ar    1  LIG1        0.0412
      7 C          -3.5580    3.0500    0.0000 C.ar    1  LIG1        0.1000
      8 N          -3.2750    2.0960    0.0000 N.ar    1  LIG1       -0.2485
      9 C          -1.7330   -0.0540    0.0000 C.ar    1  LIG1        0.0894
     10 C          -1.0380    0.6630    0.0000 C.ar    1  LIG1        0.0182
     11 C          -0.0920    0.4000    0.0000 C.ar    1  LIG1        0.0179
     12 C           0.1960   -0.5750    0.0000 C.ar    1  LIG1        0.0750
     13 N           1.1500   -0.8290    0.0000 N.am    1  LIG1       -0.1617
     14 C           1.8630   -0.1130    0.0000 C.2     1  LIG1        0.3351
     15 N           2.8380   -0.3790    0.0000 N.am    1  LIG1       -0.2194
     16 C           3.1040   -1.3540    0.0000 C.ar    1  LIG1        0.0656
     17 C           4.0790   -1.6130    0.0000 C.ar    1  LIG1        0.0435
     18 S           4.7710   -0.9000    0.0000 S.3     1  LIG1       -0.0844
     19 C           4.5130    0.0540    0.0000 C.ar    1  LIG1        0.0435
     20 C           3.5380    0.3380    0.0000 C.ar    1  LIG1        0.0656
     21 C           3.2710    1.2960    0.0000 C.ar    1  LIG1        0.0158
     22 C           3.9880    2.0040    0.0000 C.ar    1  LIG1        0.0013
     23 C           4.9880    1.7290    0.0000 C.ar    1  LIG1        0.0006
     24 C           5.2210    0.7710    0.0000 C.ar    1  LIG1        0.0077
     25 C           4.3380   -2.5670    0.0000 C.ar    1  LIG1        0.0077
     26 C           3.6460   -3.2830    0.0000 C.ar    1  LIG1        0.0006
     27 C           2.6710   -3.0000    0.0000 C.ar    1  LIG1        0.0013
     28 C           2.4040   -2.0460    0.0000 C.ar    1  LIG1        0.0158
     29 O           1.6040    0.8380    0.0000 O.2     1  LIG1       -0.2497
     30 C          -0.5250   -1.2670    0.0000 C.ar    1  LIG1        0.0179
     31 C          -1.4710   -1.0080    0.0000 C.ar    1  LIG1        0.0182
     32 O          -2.9500   -0.8130    0.0000 O.2     1  LIG1       -0.1841
     33 O          -2.4750    1.1630    0.0000 O.2     1  LIG1       -0.1841
@<TRIPOS>BOND
     1     1     2    1
     2     1     9    1
     3     1    32    2
     4     1    33    2
     5     2     3    1
     6     3     4   ar
     7     3     8   ar
     8     4     5   ar
     9     5     6   ar
    10     6     7   ar
    11     7     8   ar
    12     9    10   ar
    13     9    31   ar
    14    10    11   ar
    15    11    12   ar
    16    12    13    1
    17    12    30   ar
    18    13    14   am
    19    14    15   am
    20    14    29    2
    21    15    16    1
    22    15    20    1
    23    16    17   ar
    24    16    28   ar
    25    17    18    1
    26    17    25   ar
    27    18    19    1
    28    19    20   ar
    29    19    24   ar
    30    20    21   ar
    31    21    22   ar
    32    22    23   ar
    33    23    24   ar
    34    25    26   ar
    35    26    27   ar
    36    27    28   ar
    37    30    31   ar
