@<TRIPOS>MOLECULE
30313_ChemDiv_6042-0056
 20 22 0 0 0
SMALL
GASTEIGER
Energy = 0

@<TRIPOS>ATOM
      1 N          -0.6040   -1.2210    0.0000 N.ar    1  LIG1       -0.3272
      2 C           0.2080   -0.5710    0.0000 C.ar    1  LIG1        0.0599
      3 C          -0.1290    0.3420    0.0000 C.ar    1  LIG1        0.0173
      4 C          -1.1000    0.3420    0.0000 C.ar    1  LIG1        0.0172
      5 C          -1.4380   -0.6380    0.0000 C.ar    1  LIG1        0.0599
      6 C          -2.3960   -0.8580    0.0000 C.ar    1  LIG1        0.0172
      7 C          -3.0670   -0.0830    0.0000 C.ar    1  LIG1        0.0015
      8 C          -2.7630    0.8670    0.0000 C.ar    1  LIG1        0.0001
      9 C          -1.7630    1.1080    0.0000 C.ar    1  LIG1        0.0015
     10 C           0.4830    1.1290    0.0000 C.ar    1  LIG1        0.0043
     11 C           1.4830    0.9540    0.0000 C.ar    1  LIG1        0.0348
     12 C           2.1420    1.6830    0.0000 C.2     1  LIG1        0.1735
     13 O           1.9380    2.7040    0.0000 O.2     1  LIG1       -0.2913
     14 C           3.0630    1.4790    0.0000 C.3     1  LIG1        0.0773
     15 C           1.8170    0.0210    0.0000 C.ar    1  LIG1        0.0043
     16 C           1.1790   -0.7460    0.0000 C.ar    1  LIG1        0.0173
     17 C          -0.6040   -2.2170    0.0000 C.3     1  LIG1        0.1060
     18 C           0.2540   -2.7000    0.0000 C.3     1  LIG1        0.0245
     19 C           1.1130   -2.2000    0.0000 C.3     1  LIG1        0.0020
     20 C           1.9580   -2.6920    0.0000 C.3     1  LIG1        0.0001
@<TRIPOS>BOND
     1     1     2   ar
     2     1     5   ar
     3     1    17    1
     4     2     3   ar
     5     2    16   ar
     6     3     4   ar
     7     3    10   ar
     8     4     5   ar
     9     4     9   ar
    10     5     6   ar
    11     6     7   ar
    12     7     8   ar
    13     8     9   ar
    14    10    11   ar
    15    11    12    1
    16    11    15   ar
    17    12    13    2
    18    12    14    1
    19    15    16   ar
    20    17    18    1
    21    18    19    1
    22    19    20    1
