@<TRIPOS>MOLECULE
30319_ChemDiv_3785-0287
 35 39 0 0 0
SMALL
GASTEIGER
Energy = 0

@<TRIPOS>ATOM
      1 S          -2.1380   -0.2960    0.0000 S.O2    1  LIG1       -0.0559
      2 N          -3.1290   -0.1670    0.0000 N.pl3   1  LIG1       -0.5049
      3 C          -3.5000    0.7960    0.0000 C.ar    1  LIG1        0.0581
      4 N          -4.4670    0.9130    0.0000 N.ar    1  LIG1       -0.2544
      5 C          -4.8830    1.8420    0.0000 C.ar    1  LIG1        0.0601
      6 C          -4.2250    2.6250    0.0000 C.ar    1  LIG1        0.0294
      7 C          -3.2580    2.4670    0.0000 C.ar    1  LIG1        0.0601
      8 N          -2.8750    1.5380    0.0000 N.ar    1  LIG1       -0.2544
      9 C          -2.6330    3.3000    0.0000 C.3     1  LIG1        0.0521
     10 C          -5.8920    1.9210    0.0000 C.3     1  LIG1        0.0521
     11 C          -1.1290   -0.4540    0.0000 C.ar    1  LIG1        0.0894
     12 C          -0.7540   -1.3830    0.0000 C.ar    1  LIG1        0.0182
     13 C           0.2540   -1.5500    0.0000 C.ar    1  LIG1        0.0179
     14 C           0.9170   -0.7920    0.0000 C.ar    1  LIG1        0.0750
     15 N           1.8790   -0.9670    0.0000 N.am    1  LIG1       -0.1617
     16 C           2.5500   -0.2130    0.0000 C.2     1  LIG1        0.3351
     17 N           3.5500   -0.4210    0.0000 N.am    1  LIG1       -0.2194
     18 C           4.2540    0.2500    0.0000 C.ar    1  LIG1        0.0656
     19 C           5.2210   -0.0040    0.0000 C.ar    1  LIG1        0.0435
     20 S           5.4710   -0.9250    0.0000 S.3     1  LIG1       -0.0844
     21 C           4.8000   -1.6290    0.0000 C.ar    1  LIG1        0.0435
     22 C           3.8000   -1.3420    0.0000 C.ar    1  LIG1        0.0656
     23 C           3.0790   -2.0460    0.0000 C.ar    1  LIG1        0.0158
     24 C           3.2880   -3.0130    0.0000 C.ar    1  LIG1        0.0013
     25 C           4.2880   -3.2960    0.0000 C.ar    1  LIG1        0.0006
     26 C           5.0080   -2.6380    0.0000 C.ar    1  LIG1        0.0077
     27 C           5.8880    0.7040    0.0000 C.ar    1  LIG1        0.0077
     28 C           5.6380    1.6330    0.0000 C.ar    1  LIG1        0.0006
     29 C           4.6710    1.9210    0.0000 C.ar    1  LIG1        0.0013
     30 C           3.9670    1.2170    0.0000 C.ar    1  LIG1        0.0158
     31 O           2.2460    0.7460    0.0000 O.2     1  LIG1       -0.2497
     32 C           0.5420    0.1210    0.0000 C.ar    1  LIG1        0.0179
     33 C          -0.4170    0.2830    0.0000 C.ar    1  LIG1        0.0182
     34 O          -2.2500   -1.2880    0.0000 O.2     1  LIG1       -0.1841
     35 O          -1.9630    0.7040    0.0000 O.2     1  LIG1       -0.1841
@<TRIPOS>BOND
     1     1     2    1
     2     1    11    1
     3     1    34    2
     4     1    35    2
     5     2     3    1
     6     3     4   ar
     7     3     8   ar
     8     4     5   ar
     9     5     6   ar
    10     5    10    1
    11     6     7   ar
    12     7     8   ar
    13     7     9    1
    14    11    12   ar
    15    11    33   ar
    16    12    13   ar
    17    13    14   ar
    18    14    15    1
    19    14    32   ar
    20    15    16   am
    21    16    17   am
    22    16    31    2
    23    17    18    1
    24    17    22    1
    25    18    19   ar
    26    18    30   ar
    27    19    20    1
    28    19    27   ar
    29    20    21    1
    30    21    22   ar
    31    21    26   ar
    32    22    23   ar
    33    23    24   ar
    34    24    25   ar
    35    25    26   ar
    36    27    28   ar
    37    28    29   ar
    38    29    30   ar
    39    32    33   ar
