@<TRIPOS>MOLECULE
30312_ChemDiv_4029-0131
 24 26 0 0 0
SMALL
GASTEIGER
Energy = 0

@<TRIPOS>ATOM
      1 C          -0.4380    0.5040    0.0000 C.3     1  LIG1        0.0900
      2 C          -1.3000    1.0080    0.0000 C.3     1  LIG1        0.1147
      3 C          -1.3000    2.0080    0.0000 C.2     1  LIG1        0.3172
      4 O          -2.1670    2.5040    0.0000 O.2     1  LIG1       -0.2501
      5 O          -0.4380    2.5040    0.0000 O.3     1  LIG1       -0.4485
      6 C          -0.4380    3.5040    0.0000 C.3     1  LIG1        0.2086
      7 C           0.4290    4.0040    0.0000 C.3     1  LIG1        0.0513
      8 C          -2.1670    0.5040    0.0000 C.3     1  LIG1        0.0743
      9 C          -2.1670   -0.4960    0.0000 C.3     1  LIG1        0.1396
     10 N          -1.3000   -1.0080    0.0000 N.4     1  LIG1        0.3810
     11 C          -0.4380   -0.4960    0.0000 C.3     1  LIG1        0.1438
     12 C          -1.3000   -1.9880    0.0000 C.3     1  LIG1        0.1662
     13 C          -0.4380   -2.4960    0.0000 C.ar    1  LIG1        0.0344
     14 C           0.4290   -2.0040    0.0000 C.ar    1  LIG1        0.0014
     15 C           1.2960   -2.4960    0.0000 C.ar    1  LIG1       -0.0001
     16 C           1.2960   -3.4960    0.0000 C.ar    1  LIG1       -0.0000
     17 C           0.4290   -4.0040    0.0000 C.ar    1  LIG1       -0.0001
     18 C          -0.4380   -3.4960    0.0000 C.ar    1  LIG1        0.0014
     19 C           0.4290    1.0080    0.0000 C.ar    1  LIG1       -0.0162
     20 C           1.2960    0.5040    0.0000 C.ar    1  LIG1       -0.0041
     21 C           2.1630    1.0080    0.0000 C.ar    1  LIG1       -0.0003
     22 C           2.1630    2.0080    0.0000 C.ar    1  LIG1       -0.0000
     23 C           1.2960    2.4880    0.0000 C.ar    1  LIG1       -0.0003
     24 C           0.4290    2.0210    0.0000 C.ar    1  LIG1       -0.0041
@<TRIPOS>BOND
     1     1     2    1
     2     1    11    1
     3     1    19    1
     4     2     3    1
     5     2     8    1
     6     3     4    2
     7     3     5    1
     8     5     6    1
     9     6     7    1
    10     8     9    1
    11     9    10    1
    12    10    11    1
    13    10    12    1
    14    12    13    1
    15    13    14   ar
    16    13    18   ar
    17    14    15   ar
    18    15    16   ar
    19    16    17   ar
    20    17    18   ar
    21    19    20   ar
    22    19    24   ar
    23    20    21   ar
    24    21    22   ar
    25    22    23   ar
    26    23    24   ar
