@<TRIPOS>MOLECULE
30311_ChemDiv_3773-4241
 26 29 0 0 0
SMALL
GASTEIGER
Energy = 0

@<TRIPOS>ATOM
      1 N          -1.6040   -1.3750    0.0000 N.ar    1  LIG1       -0.3212
      2 C          -2.2040   -0.5750    0.0000 C.ar    1  LIG1        0.0601
      3 C          -3.1330   -0.8790    0.0000 C.ar    1  LIG1        0.0172
      4 C          -3.1330   -1.8670    0.0000 C.ar    1  LIG1        0.0172
      5 C          -2.1830   -2.1710    0.0000 C.ar    1  LIG1        0.0601
      6 C          -1.9710   -3.1670    0.0000 C.ar    1  LIG1        0.0172
      7 C          -2.7040   -3.8250    0.0000 C.ar    1  LIG1        0.0015
      8 C          -3.6710   -3.5040    0.0000 C.ar    1  LIG1        0.0001
      9 C          -3.8790   -2.5380    0.0000 C.ar    1  LIG1        0.0015
     10 C          -3.8790   -0.2210    0.0000 C.ar    1  LIG1        0.0015
     11 C          -3.6960    0.7670    0.0000 C.ar    1  LIG1        0.0001
     12 C          -2.7920    1.1000    0.0000 C.ar    1  LIG1        0.0015
     13 C          -2.0130    0.4250    0.0000 C.ar    1  LIG1        0.0172
     14 C          -0.6000   -1.3750    0.0000 C.3     1  LIG1        0.1854
     15 C          -0.1080   -0.5040    0.0000 C.3     1  LIG1        0.3406
     16 O           0.9080   -0.5040    0.0000 O.3     1  LIG1       -0.4494
     17 C           1.4040    0.3500    0.0000 C.ar    1  LIG1        0.1414
     18 C           2.4130    0.3500    0.0000 C.ar    1  LIG1        0.0370
     19 C           2.9000    1.2250    0.0000 C.ar    1  LIG1        0.0042
     20 C           2.3830    2.0920    0.0000 C.ar    1  LIG1        0.0142
     21 C           2.8500    2.9630    0.0000 C.2     1  LIG1        0.0729
     22 O           2.3630    3.8290    0.0000 O.co2   1  LIG1       -0.5446
     23 O           3.8750    2.9250    0.0000 O.co2   1  LIG1       -0.5446
     24 C           1.3880    2.0920    0.0000 C.ar    1  LIG1        0.0042
     25 C           0.8960    1.2250    0.0000 C.ar    1  LIG1        0.0370
     26 O          -0.6000    0.3500    0.0000 O.3     1  LIG1       -0.1722
@<TRIPOS>BOND
     1     1     2   ar
     2     1     5   ar
     3     1    14    1
     4     2     3   ar
     5     2    13   ar
     6     3     4   ar
     7     3    10   ar
     8     4     5   ar
     9     4     9   ar
    10     5     6   ar
    11     6     7   ar
    12     7     8   ar
    13     8     9   ar
    14    10    11   ar
    15    11    12   ar
    16    12    13   ar
    17    14    15    1
    18    15    16    1
    19    15    26    1
    20    16    17    1
    21    17    18   ar
    22    17    25   ar
    23    18    19   ar
    24    19    20   ar
    25    20    21    1
    26    20    24   ar
    27    21    22   ar
    28    21    23   ar
    29    24    25   ar
