@<TRIPOS>MOLECULE
30328_ChemDiv_E456-1614
 33 37 0 0 0
SMALL
GASTEIGER
Energy = 0

@<TRIPOS>ATOM
      1 C           1.6960   -0.9380    0.0000 C.ar    1  LIG1        0.0728
      2 C           1.2000   -0.0710    0.0000 C.ar    1  LIG1        0.0875
      3 N           1.6960    0.7920    0.0000 N.ar    1  LIG1       -0.2730
      4 C           2.6960    0.7920    0.0000 C.ar    1  LIG1        0.2647
      5 C           3.1960   -0.0710    0.0000 C.ar    1  LIG1        0.0567
      6 C           2.6960   -0.9380    0.0000 C.ar    1  LIG1        0.0105
      7 C           3.1960   -1.8040    0.0000 C.ar    1  LIG1        0.0003
      8 C           4.1960   -1.8040    0.0000 C.ar    1  LIG1        0.0000
      9 C           4.7000   -0.9380    0.0000 C.ar    1  LIG1        0.0002
     10 C           4.1960   -0.0710    0.0000 C.ar    1  LIG1        0.0047
     11 O           3.1960    1.6630    0.0000 O.2     1  LIG1       -0.2666
     12 C           1.2000    1.6630    0.0000 C.ar    1  LIG1        0.0671
     13 C           1.6960    2.5250    0.0000 C.ar    1  LIG1        0.0207
     14 C           1.2000    3.3920    0.0000 C.ar    1  LIG1        0.0384
     15 C           0.1960    3.3920    0.0000 C.ar    1  LIG1        0.1388
     16 C          -0.3040    2.5250    0.0000 C.ar    1  LIG1        0.0384
     17 C           0.1960    1.6630    0.0000 C.ar    1  LIG1        0.0207
     18 O          -0.3040    4.2540    0.0000 O.3     1  LIG1       -0.4714
     19 C           0.1960    5.1170    0.0000 C.3     1  LIG1        0.2525
     20 C           1.2000   -1.8040    0.0000 C.2     1  LIG1        0.2663
     21 O           1.6960   -2.6710    0.0000 O.2     1  LIG1       -0.2683
     22 N           0.1960   -1.8040    0.0000 N.am    1  LIG1       -0.2013
     23 C          -0.3040   -2.6710    0.0000 C.3     1  LIG1        0.1202
     24 C          -1.3000   -2.6710    0.0000 C.3     1  LIG1        0.0514
     25 C          -1.8040   -3.5330    0.0000 C.ar    1  LIG1        0.0002
     26 C          -1.3960   -4.4500    0.0000 C.ar    1  LIG1        0.0946
     27 N          -2.1380   -5.1170    0.0000 N.ar    1  LIG1       -0.2442
     28 C          -3.0040   -4.6170    0.0000 C.ar    1  LIG1        0.0810
     29 C          -2.7960   -3.6420    0.0000 C.ar    1  LIG1        0.0152
     30 C          -3.5420   -2.9710    0.0000 C.ar    1  LIG1        0.0012
     31 C          -4.4920   -3.2790    0.0000 C.ar    1  LIG1        0.0001
     32 C          -4.7040   -4.2580    0.0000 C.ar    1  LIG1        0.0015
     33 C          -3.9540   -4.9250    0.0000 C.ar    1  LIG1        0.0191
@<TRIPOS>BOND
     1     1     2   ar
     2     1     6   ar
     3     1    20    1
     4     2     3   ar
     5     3     4   ar
     6     3    12    1
     7     4     5   ar
     8     4    11    2
     9     5     6   ar
    10     5    10   ar
    11     6     7   ar
    12     7     8   ar
    13     8     9   ar
    14     9    10   ar
    15    12    13   ar
    16    12    17   ar
    17    13    14   ar
    18    14    15   ar
    19    15    16   ar
    20    15    18    1
    21    16    17   ar
    22    18    19    1
    23    20    21    2
    24    20    22   am
    25    22    23    1
    26    23    24    1
    27    24    25    1
    28    25    26   ar
    29    25    29   ar
    30    26    27   ar
    31    27    28   ar
    32    28    29   ar
    33    28    33   ar
    34    29    30   ar
    35    30    31   ar
    36    31    32   ar
    37    32    33   ar
