@<TRIPOS>MOLECULE
30325_ChemDiv_8016-9678
 31 34 0 0 0
SMALL
GASTEIGER
Energy = 0

@<TRIPOS>ATOM
      1 C          -1.3960   -2.9920    0.0000 C.3     1  LIG1        0.2232
      2 C          -0.8000   -3.8040    0.0000 C.2     1  LIG1        0.2776
      3 N          -1.3830   -4.6170    0.0000 N.am    1  LIG1       -0.1771
      4 C          -2.3460   -4.3170    0.0000 C.ar    1  LIG1        0.0722
      5 C          -2.3500   -3.3040    0.0000 C.ar    1  LIG1        0.0289
      6 C          -3.2210   -2.8130    0.0000 C.ar    1  LIG1       -0.0044
      7 C          -4.0830   -3.3130    0.0000 C.ar    1  LIG1       -0.0220
      8 C          -4.0830   -4.3170    0.0000 C.ar    1  LIG1       -0.0029
      9 C          -3.2130   -4.8170    0.0000 C.ar    1  LIG1        0.0160
     10 C          -4.9460   -2.8170    0.0000 C.3     1  LIG1        0.0310
     11 O           0.2040   -3.7920    0.0000 O.2     1  LIG1       -0.2700
     12 C          -1.1460   -2.0170    0.0000 C.3     1  LIG1        0.1128
     13 C          -0.1830   -1.7540    0.0000 C.2     1  LIG1        0.1764
     14 C           0.0750   -0.7920    0.0000 C.ar    1  LIG1        0.0350
     15 C          -0.6330   -0.0920    0.0000 C.ar    1  LIG1        0.0060
     16 C          -0.3830    0.8750    0.0000 C.ar    1  LIG1        0.0370
     17 C           0.5830    1.1380    0.0000 C.ar    1  LIG1        0.1393
     18 O           0.8420    2.1040    0.0000 O.3     1  LIG1       -0.4656
     19 C           1.8040    2.3750    0.0000 C.3     1  LIG1        0.2896
     20 C           2.0540    3.3380    0.0000 C.2     1  LIG1        0.2702
     21 N           3.0170    3.6000    0.0000 N.am    1  LIG1       -0.2765
     22 C           3.7210    2.8960    0.0000 C.3     1  LIG1        0.0935
     23 C           4.6830    3.1540    0.0000 C.3     1  LIG1        0.0216
     24 C           4.9420    4.1080    0.0000 C.3     1  LIG1        0.0035
     25 C           4.2330    4.8170    0.0000 C.3     1  LIG1        0.0216
     26 C           3.2670    4.5540    0.0000 C.3     1  LIG1        0.0935
     27 O           1.3460    4.0290    0.0000 O.2     1  LIG1       -0.2708
     28 C           1.2960    0.4380    0.0000 C.ar    1  LIG1        0.0370
     29 C           1.0460   -0.5290    0.0000 C.ar    1  LIG1        0.0060
     30 O           0.5330   -2.4630    0.0000 O.2     1  LIG1       -0.2912
     31 O          -2.1080   -2.2790    0.0000 O.3     1  LIG1       -0.2112
@<TRIPOS>BOND
     1     1     2    1
     2     1     5    1
     3     1    12    1
     4     1    31    1
     5     2     3   am
     6     2    11    2
     7     3     4    1
     8     4     5   ar
     9     4     9   ar
    10     5     6   ar
    11     6     7   ar
    12     7     8   ar
    13     7    10    1
    14     8     9   ar
    15    12    13    1
    16    13    14    1
    17    13    30    2
    18    14    15   ar
    19    14    29   ar
    20    15    16   ar
    21    16    17   ar
    22    17    18    1
    23    17    28   ar
    24    18    19    1
    25    19    20    1
    26    20    21   am
    27    20    27    2
    28    21    22    1
    29    21    26    1
    30    22    23    1
    31    23    24    1
    32    24    25    1
    33    25    26    1
    34    28    29   ar
