@<TRIPOS>MOLECULE
30323_ChemDiv_8016-3406
 24 27 0 0 0
SMALL
GASTEIGER
Energy = 0

@<TRIPOS>ATOM
      1 C          -1.2750   -0.1080    0.0000 C.3     1  LIG1        0.2232
      2 C          -1.7250   -1.0000    0.0000 C.2     1  LIG1        0.2775
      3 N          -2.6960   -0.8500    0.0000 N.am    1  LIG1       -0.1774
      4 C          -2.8630    0.1040    0.0000 C.ar    1  LIG1        0.0682
      5 C          -1.9830    0.5790    0.0000 C.ar    1  LIG1        0.0289
      6 C          -1.9460    1.5920    0.0000 C.ar    1  LIG1       -0.0002
      7 C          -2.7880    2.1040    0.0000 C.ar    1  LIG1       -0.0005
      8 C          -3.6710    1.6540    0.0000 C.ar    1  LIG1       -0.0030
      9 C          -3.7080    0.6420    0.0000 C.ar    1  LIG1       -0.0067
     10 C          -4.6080    0.1670    0.0000 C.3     1  LIG1        0.0324
     11 O          -1.2710   -1.9250    0.0000 O.2     1  LIG1       -0.2700
     12 C          -0.4080   -0.5920    0.0000 C.3     1  LIG1        0.1128
     13 C           0.4540   -0.0960    0.0000 C.2     1  LIG1        0.1765
     14 C           1.3290   -0.5790    0.0000 C.ar    1  LIG1        0.0380
     15 C           2.1960   -0.0960    0.0000 C.ar    1  LIG1        0.0430
     16 C           3.0790   -0.6170    0.0000 C.ar    1  LIG1        0.1765
     17 C           3.0790   -1.6000    0.0000 C.ar    1  LIG1        0.1764
     18 O           4.0290   -1.9250    0.0000 O.3     1  LIG1       -0.4346
     19 C           4.6040   -1.1250    0.0000 C.3     1  LIG1        0.4294
     20 O           4.0290   -0.3040    0.0000 O.3     1  LIG1       -0.4346
     21 C           2.2170   -2.1000    0.0000 C.ar    1  LIG1        0.0403
     22 C           1.3540   -1.5920    0.0000 C.ar    1  LIG1        0.0062
     23 O           0.4540    0.9080    0.0000 O.2     1  LIG1       -0.2912
     24 O          -0.3380    0.2580    0.0000 O.3     1  LIG1       -0.2112
@<TRIPOS>BOND
     1     1     2    1
     2     1     5    1
     3     1    12    1
     4     1    24    1
     5     2     3   am
     6     2    11    2
     7     3     4    1
     8     4     5   ar
     9     4     9   ar
    10     5     6   ar
    11     6     7   ar
    12     7     8   ar
    13     8     9   ar
    14     9    10    1
    15    12    13    1
    16    13    14    1
    17    13    23    2
    18    14    15   ar
    19    14    22   ar
    20    15    16   ar
    21    16    17   ar
    22    16    20    1
    23    17    18    1
    24    17    21   ar
    25    18    19    1
    26    19    20    1
    27    21    22   ar
