@<TRIPOS>MOLECULE
30324_ChemDiv_E456-1584
 31 34 0 0 0
SMALL
GASTEIGER
Energy = 0

@<TRIPOS>ATOM
      1 C           0.7460   -1.2960    0.0000 C.ar    1  LIG1        0.0731
      2 C           0.2500   -0.4250    0.0000 C.ar    1  LIG1        0.0875
      3 N           0.7460    0.4380    0.0000 N.ar    1  LIG1       -0.2730
      4 C           1.7500    0.4380    0.0000 C.ar    1  LIG1        0.2647
      5 C           2.2460   -0.4250    0.0000 C.ar    1  LIG1        0.0567
      6 C           1.7500   -1.2960    0.0000 C.ar    1  LIG1        0.0105
      7 C           2.2460   -2.1580    0.0000 C.ar    1  LIG1        0.0003
      8 C           3.2460   -2.1580    0.0000 C.ar    1  LIG1        0.0000
      9 C           3.7500   -1.2960    0.0000 C.ar    1  LIG1        0.0002
     10 C           3.2460   -0.4250    0.0000 C.ar    1  LIG1        0.0047
     11 O           2.2460    1.3040    0.0000 O.2     1  LIG1       -0.2666
     12 C           0.2500    1.3040    0.0000 C.ar    1  LIG1        0.0671
     13 C          -0.7540    1.3040    0.0000 C.ar    1  LIG1        0.0207
     14 C          -1.2540    2.1670    0.0000 C.ar    1  LIG1        0.0384
     15 C          -0.7540    3.0330    0.0000 C.ar    1  LIG1        0.1388
     16 C           0.2500    3.0330    0.0000 C.ar    1  LIG1        0.0384
     17 C           0.7460    2.1670    0.0000 C.ar    1  LIG1        0.0207
     18 O          -1.2540    3.9000    0.0000 O.3     1  LIG1       -0.4714
     19 C          -0.7540    4.7580    0.0000 C.3     1  LIG1        0.2525
     20 C           0.2500   -2.1580    0.0000 C.2     1  LIG1        0.2704
     21 N          -0.7540   -2.1580    0.0000 N.am    1  LIG1       -0.1753
     22 C          -1.2540   -3.0250    0.0000 C.ar    1  LIG1        0.0781
     23 C          -2.2500   -3.0250    0.0000 C.ar    1  LIG1        0.0720
     24 C          -2.7540   -2.1580    0.0000 C.2     1  LIG1        0.2854
     25 O          -3.7540   -2.1580    0.0000 O.2     1  LIG1       -0.2666
     26 N          -2.2500   -1.2960    0.0000 N.am    1  LIG1       -0.0837
     27 C          -2.7540   -3.8920    0.0000 C.ar    1  LIG1        0.0059
     28 C          -2.2500   -4.7580    0.0000 C.ar    1  LIG1        0.0002
     29 C          -1.2540   -4.7580    0.0000 C.ar    1  LIG1        0.0013
     30 C          -0.7540   -3.8920    0.0000 C.ar    1  LIG1        0.0168
     31 O           0.7460   -3.0250    0.0000 O.2     1  LIG1       -0.2680
@<TRIPOS>BOND
     1     1     2   ar
     2     1     6   ar
     3     1    20    1
     4     2     3   ar
     5     3     4   ar
     6     3    12    1
     7     4     5   ar
     8     4    11    2
     9     5     6   ar
    10     5    10   ar
    11     6     7   ar
    12     7     8   ar
    13     8     9   ar
    14     9    10   ar
    15    12    13   ar
    16    12    17   ar
    17    13    14   ar
    18    14    15   ar
    19    15    16   ar
    20    15    18    1
    21    16    17   ar
    22    18    19    1
    23    20    21   am
    24    20    31    2
    25    21    22    1
    26    22    23   ar
    27    22    30   ar
    28    23    24    1
    29    23    27   ar
    30    24    25    2
    31    24    26   am
    32    27    28   ar
    33    28    29   ar
    34    29    30   ar
