@<TRIPOS>MOLECULE
30326_ChemDiv_E456-1596
 32 35 0 0 0
SMALL
GASTEIGER
Energy = 0

@<TRIPOS>ATOM
      1 C           0.6790   -2.1630    0.0000 C.ar    1  LIG1        0.0731
      2 C           0.1830   -1.2920    0.0000 C.ar    1  LIG1        0.0875
      3 N           0.6790   -0.4290    0.0000 N.ar    1  LIG1       -0.2730
      4 C           1.6830   -0.4290    0.0000 C.ar    1  LIG1        0.2647
      5 C           2.1790   -1.2920    0.0000 C.ar    1  LIG1        0.0567
      6 C           1.6830   -2.1630    0.0000 C.ar    1  LIG1        0.0105
      7 C           2.1790   -3.0250    0.0000 C.ar    1  LIG1        0.0003
      8 C           3.1790   -3.0250    0.0000 C.ar    1  LIG1        0.0000
      9 C           3.6830   -2.1630    0.0000 C.ar    1  LIG1        0.0002
     10 C           3.1790   -1.2920    0.0000 C.ar    1  LIG1        0.0047
     11 O           2.1790    0.4420    0.0000 O.2     1  LIG1       -0.2666
     12 C           0.1830    0.4420    0.0000 C.ar    1  LIG1        0.0671
     13 C           0.6790    1.3000    0.0000 C.ar    1  LIG1        0.0207
     14 C           0.1830    2.1710    0.0000 C.ar    1  LIG1        0.0384
     15 C          -0.8210    2.1710    0.0000 C.ar    1  LIG1        0.1388
     16 C          -1.3210    1.3000    0.0000 C.ar    1  LIG1        0.0384
     17 C          -0.8210    0.4420    0.0000 C.ar    1  LIG1        0.0207
     18 O          -1.3210    3.0330    0.0000 O.3     1  LIG1       -0.4714
     19 C          -0.8210    3.9000    0.0000 C.3     1  LIG1        0.2525
     20 C           0.1830   -3.0250    0.0000 C.2     1  LIG1        0.2704
     21 N          -0.8210   -3.0250    0.0000 N.am    1  LIG1       -0.1754
     22 C          -1.3210   -2.1630    0.0000 C.ar    1  LIG1        0.0738
     23 C          -2.3210   -2.1630    0.0000 C.ar    1  LIG1        0.0180
     24 C          -2.8210   -1.2920    0.0000 C.ar    1  LIG1        0.0213
     25 C          -2.3210   -0.4290    0.0000 C.ar    1  LIG1        0.1251
     26 S          -2.8210    0.4420    0.0000 S.O2    1  LIG1        0.0935
     27 O          -3.3210    1.3000    0.0000 O.2     1  LIG1       -0.1503
     28 O          -3.6880   -0.0630    0.0000 O.2     1  LIG1       -0.1503
     29 N          -1.9540    0.9330    0.0000 N.3     1  LIG1        0.0392
     30 C          -1.3210   -0.4290    0.0000 C.ar    1  LIG1        0.0213
     31 C          -0.8210   -1.2920    0.0000 C.ar    1  LIG1        0.0180
     32 O           0.6790   -3.8960    0.0000 O.2     1  LIG1       -0.2680
@<TRIPOS>BOND
     1     1     2   ar
     2     1     6   ar
     3     1    20    1
     4     2     3   ar
     5     3     4   ar
     6     3    12    1
     7     4     5   ar
     8     4    11    2
     9     5     6   ar
    10     5    10   ar
    11     6     7   ar
    12     7     8   ar
    13     8     9   ar
    14     9    10   ar
    15    12    13   ar
    16    12    17   ar
    17    13    14   ar
    18    14    15   ar
    19    15    16   ar
    20    15    18    1
    21    16    17   ar
    22    18    19    1
    23    20    21   am
    24    20    32    2
    25    21    22    1
    26    22    23   ar
    27    22    31   ar
    28    23    24   ar
    29    24    25   ar
    30    25    26    1
    31    25    30   ar
    32    26    27    2
    33    26    28    2
    34    26    29    1
    35    30    31   ar
