@<TRIPOS>MOLECULE
30321_ChemDiv_8016-3108
 31 34 0 0 0
SMALL
GASTEIGER
Energy = 0

@<TRIPOS>ATOM
      1 C          -2.0130   -2.4630    0.0000 C.3     1  LIG1        0.2217
      2 C          -1.4130   -3.2750    0.0000 C.2     1  LIG1        0.2614
      3 N          -2.0080   -4.0920    0.0000 N.am    1  LIG1       -0.2548
      4 C          -2.9580   -3.7790    0.0000 C.ar    1  LIG1        0.0527
      5 C          -2.9630   -2.7790    0.0000 C.ar    1  LIG1        0.0275
      6 C          -3.8330   -2.2790    0.0000 C.ar    1  LIG1       -0.0002
      7 C          -4.6960   -2.7790    0.0000 C.ar    1  LIG1       -0.0002
      8 C          -4.6960   -3.7790    0.0000 C.ar    1  LIG1        0.0013
      9 C          -3.8330   -4.2790    0.0000 C.ar    1  LIG1        0.0147
     10 C          -1.6960   -5.0420    0.0000 C.3     1  LIG1        0.1201
     11 O          -0.4210   -3.2670    0.0000 O.2     1  LIG1       -0.2715
     12 C          -1.7080   -1.5040    0.0000 C.3     1  LIG1        0.1128
     13 C          -0.7330   -1.2920    0.0000 C.2     1  LIG1        0.1764
     14 C          -0.4330   -0.3420    0.0000 C.ar    1  LIG1        0.0350
     15 C           0.5540   -0.1380    0.0000 C.ar    1  LIG1        0.0060
     16 C           0.8540    0.8170    0.0000 C.ar    1  LIG1        0.0370
     17 C           0.1710    1.5500    0.0000 C.ar    1  LIG1        0.1393
     18 O           0.4790    2.5040    0.0000 O.3     1  LIG1       -0.4656
     19 C           1.4580    2.7250    0.0000 C.3     1  LIG1        0.2896
     20 C           1.7540    3.6750    0.0000 C.2     1  LIG1        0.2702
     21 N           2.7330    3.8880    0.0000 N.am    1  LIG1       -0.2765
     22 C           3.4040    3.1500    0.0000 C.3     1  LIG1        0.0935
     23 C           4.3790    3.3630    0.0000 C.3     1  LIG1        0.0216
     24 C           4.6920    4.2960    0.0000 C.3     1  LIG1        0.0035
     25 C           4.0080    5.0420    0.0000 C.3     1  LIG1        0.0216
     26 C           3.0330    4.8290    0.0000 C.3     1  LIG1        0.0935
     27 O           1.0830    4.4000    0.0000 O.2     1  LIG1       -0.2708
     28 C          -0.8080    1.3380    0.0000 C.ar    1  LIG1        0.0370
     29 C          -1.1080    0.3880    0.0000 C.ar    1  LIG1        0.0060
     30 O          -0.0540   -2.0290    0.0000 O.2     1  LIG1       -0.2912
     31 O          -2.7210   -1.7500    0.0000 O.3     1  LIG1       -0.2113
@<TRIPOS>BOND
     1     1     2    1
     2     1     5    1
     3     1    12    1
     4     1    31    1
     5     2     3   am
     6     2    11    2
     7     3     4    1
     8     3    10    1
     9     4     5   ar
    10     4     9   ar
    11     5     6   ar
    12     6     7   ar
    13     7     8   ar
    14     8     9   ar
    15    12    13    1
    16    13    14    1
    17    13    30    2
    18    14    15   ar
    19    14    29   ar
    20    15    16   ar
    21    16    17   ar
    22    17    18    1
    23    17    28   ar
    24    18    19    1
    25    19    20    1
    26    20    21   am
    27    20    27    2
    28    21    22    1
    29    21    26    1
    30    22    23    1
    31    23    24    1
    32    24    25    1
    33    25    26    1
    34    28    29   ar
