@<TRIPOS>MOLECULE
30322_ChemDiv_E456-1582
 32 35 0 0 0
SMALL
GASTEIGER
Energy = 0

@<TRIPOS>ATOM
      1 C           0.2460   -1.2960    0.0000 C.ar    1  LIG1        0.0716
      2 C          -0.2500   -2.1580    0.0000 C.2     1  LIG1        0.2542
      3 N          -1.2540   -2.1580    0.0000 N.am    1  LIG1       -0.2540
      4 C          -1.7540   -1.2960    0.0000 C.ar    1  LIG1        0.0541
      5 C          -2.7500   -1.2960    0.0000 C.ar    1  LIG1        0.0149
      6 C          -3.2540   -0.4250    0.0000 C.ar    1  LIG1        0.0013
      7 C          -2.7500    0.4380    0.0000 C.ar    1  LIG1        0.0001
      8 C          -1.7540    0.4380    0.0000 C.ar    1  LIG1        0.0013
      9 C          -1.2540   -0.4250    0.0000 C.ar    1  LIG1        0.0149
     10 C          -1.7540   -3.0250    0.0000 C.3     1  LIG1        0.1147
     11 C          -2.7500   -3.0250    0.0000 C.3     1  LIG1        0.1272
     12 C          -3.2540   -3.8920    0.0000 C.1     1  LIG1        0.0750
     13 N          -2.7500   -4.7580    0.0000 N.1     1  LIG1       -0.1958
     14 O           0.2460   -3.0250    0.0000 O.2     1  LIG1       -0.2695
     15 C          -0.2500   -0.4250    0.0000 C.ar    1  LIG1        0.0874
     16 N           0.2460    0.4380    0.0000 N.ar    1  LIG1       -0.2730
     17 C           1.2500    0.4380    0.0000 C.ar    1  LIG1        0.2647
     18 C           1.7460   -0.4250    0.0000 C.ar    1  LIG1        0.0567
     19 C           1.2500   -1.2960    0.0000 C.ar    1  LIG1        0.0104
     20 C           1.7460   -2.1580    0.0000 C.ar    1  LIG1        0.0003
     21 C           2.7460   -2.1580    0.0000 C.ar    1  LIG1        0.0000
     22 C           3.2500   -1.2960    0.0000 C.ar    1  LIG1        0.0002
     23 C           2.7460   -0.4250    0.0000 C.ar    1  LIG1        0.0047
     24 O           1.7460    1.3040    0.0000 O.2     1  LIG1       -0.2666
     25 C          -0.2500    1.3040    0.0000 C.ar    1  LIG1        0.0671
     26 C           0.2460    2.1670    0.0000 C.ar    1  LIG1        0.0207
     27 C          -0.2500    3.0330    0.0000 C.ar    1  LIG1        0.0384
     28 C          -1.2540    3.0330    0.0000 C.ar    1  LIG1        0.1388
     29 C          -1.7540    2.1670    0.0000 C.ar    1  LIG1        0.0384
     30 C          -1.2540    1.3040    0.0000 C.ar    1  LIG1        0.0207
     31 O          -1.7540    3.9000    0.0000 O.3     1  LIG1       -0.4714
     32 C          -1.2540    4.7580    0.0000 C.3     1  LIG1        0.2525
@<TRIPOS>BOND
     1     1     2    1
     2     1    15   ar
     3     1    19   ar
     4     2     3   am
     5     2    14    2
     6     3     4    1
     7     3    10    1
     8     4     5   ar
     9     4     9   ar
    10     5     6   ar
    11     6     7   ar
    12     7     8   ar
    13     8     9   ar
    14    10    11    1
    15    11    12    1
    16    12    13    3
    17    15    16   ar
    18    16    17   ar
    19    16    25    1
    20    17    18   ar
    21    17    24    2
    22    18    19   ar
    23    18    23   ar
    24    19    20   ar
    25    20    21   ar
    26    21    22   ar
    27    22    23   ar
    28    25    26   ar
    29    25    30   ar
    30    26    27   ar
    31    27    28   ar
    32    28    29   ar
    33    28    31    1
    34    29    30   ar
    35    31    32    1
