@<TRIPOS>MOLECULE
30339_ChemDiv_3785-0393
 25 28 0 0 0
SMALL
GASTEIGER
Energy = 0

@<TRIPOS>ATOM
      1 N           0.4630   -1.0250    0.0000 N.am    1  LIG1       -0.2208
      2 C           1.2710   -0.5080    0.0000 C.2     1  LIG1        0.3148
      3 N           1.2580    0.4750    0.0000 N.am    1  LIG1       -0.2635
      4 C           2.1000    0.9790    0.0000 C.3     1  LIG1        0.0955
      5 C           2.1000    1.9880    0.0000 C.3     1  LIG1        0.0308
      6 C           1.2000    2.4920    0.0000 C.3     1  LIG1        0.0833
      7 C           1.2000    3.5130    0.0000 C.2     1  LIG1        0.2604
      8 O           2.1000    4.0250    0.0000 O.2     1  LIG1       -0.2717
      9 N           0.2830    4.0250    0.0000 N.am    1  LIG1       -0.0878
     10 C           0.2830    1.9880    0.0000 C.3     1  LIG1        0.0308
     11 C           0.3540    0.9790    0.0000 C.3     1  LIG1        0.0955
     12 O           2.1500   -0.9290    0.0000 O.2     1  LIG1       -0.2517
     13 C           0.4960   -2.0080    0.0000 C.ar    1  LIG1        0.0655
     14 C          -0.3830   -2.5330    0.0000 C.ar    1  LIG1        0.0435
     15 S          -1.2630   -2.0540    0.0000 S.3     1  LIG1       -0.0844
     16 C          -1.2250   -1.0250    0.0000 C.ar    1  LIG1        0.0435
     17 C          -0.4670   -0.5420    0.0000 C.ar    1  LIG1        0.0655
     18 C          -0.5250    0.4420    0.0000 C.ar    1  LIG1        0.0158
     19 C          -1.4040    0.9460    0.0000 C.ar    1  LIG1        0.0013
     20 C          -2.1540    0.4750    0.0000 C.ar    1  LIG1        0.0006
     21 C          -2.1170   -0.5080    0.0000 C.ar    1  LIG1        0.0077
     22 C          -0.3460   -3.5540    0.0000 C.ar    1  LIG1        0.0077
     23 C           0.6000   -4.0250    0.0000 C.ar    1  LIG1        0.0006
     24 C           1.3420   -3.5540    0.0000 C.ar    1  LIG1        0.0013
     25 C           1.3420   -2.5130    0.0000 C.ar    1  LIG1        0.0158
@<TRIPOS>BOND
     1     1     2   am
     2     1    13    1
     3     1    17    1
     4     2     3   am
     5     2    12    2
     6     3     4    1
     7     3    11    1
     8     4     5    1
     9     5     6    1
    10     6     7    1
    11     6    10    1
    12     7     8    2
    13     7     9   am
    14    10    11    1
    15    13    14   ar
    16    13    25   ar
    17    14    15    1
    18    14    22   ar
    19    15    16    1
    20    16    17   ar
    21    16    21   ar
    22    17    18   ar
    23    18    19   ar
    24    19    20   ar
    25    20    21   ar
    26    22    23   ar
    27    23    24   ar
    28    24    25   ar
