@<TRIPOS>MOLECULE
30333_ChemDiv_3850-0190
 28 31 0 0 0
SMALL
GASTEIGER
Energy = 0

@<TRIPOS>ATOM
      1 N           0.7210   -0.4210    0.0000 N.ar    1  LIG1       -0.2235
      2 C           1.7170   -0.4210    0.0000 C.ar    1  LIG1        0.1023
      3 C           2.2330   -1.2790    0.0000 C.ar    1  LIG1        0.1205
      4 N           1.7170   -2.1580    0.0000 N.ar    1  LIG1       -0.1450
      5 N           0.7210   -2.1580    0.0000 N.ar    1  LIG1       -0.1285
      6 C           0.2040   -1.2790    0.0000 C.ar    1  LIG1        0.1837
      7 C          -0.7920   -1.2790    0.0000 C.ar    1  LIG1        0.0376
      8 C          -1.3080   -0.4210    0.0000 C.ar    1  LIG1        0.0044
      9 C          -2.3040   -0.4210    0.0000 C.ar    1  LIG1        0.0167
     10 C          -2.8250   -1.2790    0.0000 C.ar    1  LIG1        0.0734
     11 N          -3.8130   -1.2790    0.0000 N.am    1  LIG1       -0.1792
     12 C          -4.3250   -0.4210    0.0000 C.2     1  LIG1        0.2461
     13 O          -5.2630   -0.4210    0.0000 O.2     1  LIG1       -0.2730
     14 C          -3.8130    0.4250    0.0000 C.3     1  LIG1        0.0968
     15 C          -2.3040   -2.1580    0.0000 C.ar    1  LIG1        0.0167
     16 C          -1.3080   -2.1580    0.0000 C.ar    1  LIG1        0.0044
     17 C           3.2290   -1.2790    0.0000 C.ar    1  LIG1        0.0209
     18 C           3.7460   -2.1580    0.0000 C.ar    1  LIG1        0.0016
     19 C           4.7460   -2.1580    0.0000 C.ar    1  LIG1        0.0000
     20 C           5.2580   -1.2790    0.0000 C.ar    1  LIG1        0.0000
     21 C           4.7460   -0.4210    0.0000 C.ar    1  LIG1        0.0000
     22 C           3.7460   -0.4210    0.0000 C.ar    1  LIG1        0.0016
     23 C           2.2330    0.4330    0.0000 C.ar    1  LIG1        0.0192
     24 C           1.7330    1.3080    0.0000 C.ar    1  LIG1        0.0015
     25 C           2.2330    2.1630    0.0000 C.ar    1  LIG1        0.0000
     26 C           3.2290    2.1630    0.0000 C.ar    1  LIG1        0.0000
     27 C           3.7290    1.3080    0.0000 C.ar    1  LIG1        0.0000
     28 C           3.2290    0.4330    0.0000 C.ar    1  LIG1        0.0015
@<TRIPOS>BOND
     1     1     2   ar
     2     1     6   ar
     3     2     3   ar
     4     2    23    1
     5     3     4   ar
     6     3    17    1
     7     4     5   ar
     8     5     6   ar
     9     6     7    1
    10     7     8   ar
    11     7    16   ar
    12     8     9   ar
    13     9    10   ar
    14    10    11    1
    15    10    15   ar
    16    11    12   am
    17    12    13    2
    18    12    14    1
    19    15    16   ar
    20    17    18   ar
    21    17    22   ar
    22    18    19   ar
    23    19    20   ar
    24    20    21   ar
    25    21    22   ar
    26    23    24   ar
    27    23    28   ar
    28    24    25   ar
    29    25    26   ar
    30    26    27   ar
    31    27    28   ar
