@<TRIPOS>MOLECULE
30332_ChemDiv_E456-1624
 35 38 0 0 0
SMALL
GASTEIGER
Energy = 0

@<TRIPOS>ATOM
      1 C           0.7460   -1.7290    0.0000 C.ar    1  LIG1        0.0713
      2 C           0.2500   -2.5920    0.0000 C.2     1  LIG1        0.2505
      3 N          -0.7540   -2.5920    0.0000 N.am    1  LIG1       -0.2750
      4 C          -1.2540   -1.7290    0.0000 C.3     1  LIG1        0.0791
      5 C          -0.7540   -0.8630    0.0000 C.3     1  LIG1        0.0414
      6 C          -1.2540    0.0040    0.0000 C.3     1  LIG1        0.0951
      7 N          -2.2540    0.0040    0.0000 N.am    1  LIG1       -0.2794
      8 C          -2.7540    0.8710    0.0000 C.2     1  LIG1        0.2261
      9 O          -3.7540    0.8710    0.0000 O.2     1  LIG1       -0.2749
     10 C          -2.2540    1.7330    0.0000 C.3     1  LIG1        0.0948
     11 C          -2.7540   -0.8630    0.0000 C.3     1  LIG1        0.0951
     12 C          -2.2540   -1.7290    0.0000 C.3     1  LIG1        0.0414
     13 C          -1.2540   -3.4630    0.0000 C.3     1  LIG1        0.1256
     14 C          -2.2540   -3.4630    0.0000 C.3     1  LIG1        0.1637
     15 O          -2.7540   -4.3250    0.0000 O.3     1  LIG1       -0.3493
     16 C          -3.7540   -4.3250    0.0000 C.3     1  LIG1        0.1742
     17 O           0.7460   -3.4630    0.0000 O.2     1  LIG1       -0.2699
     18 C           0.2500   -0.8630    0.0000 C.ar    1  LIG1        0.0874
     19 N           0.7460    0.0040    0.0000 N.ar    1  LIG1       -0.2730
     20 C           1.7500    0.0040    0.0000 C.ar    1  LIG1        0.2647
     21 C           2.2460   -0.8630    0.0000 C.ar    1  LIG1        0.0567
     22 C           1.7500   -1.7290    0.0000 C.ar    1  LIG1        0.0104
     23 C           2.2460   -2.5920    0.0000 C.ar    1  LIG1        0.0003
     24 C           3.2460   -2.5920    0.0000 C.ar    1  LIG1        0.0000
     25 C           3.7500   -1.7290    0.0000 C.ar    1  LIG1        0.0002
     26 C           3.2460   -0.8630    0.0000 C.ar    1  LIG1        0.0047
     27 O           2.2460    0.8710    0.0000 O.2     1  LIG1       -0.2666
     28 C           0.2500    0.8710    0.0000 C.ar    1  LIG1        0.0671
     29 C          -0.7540    0.8710    0.0000 C.ar    1  LIG1        0.0207
     30 C          -1.2540    1.7330    0.0000 C.ar    1  LIG1        0.0384
     31 C          -0.7540    2.6000    0.0000 C.ar    1  LIG1        0.1388
     32 C           0.2500    2.6000    0.0000 C.ar    1  LIG1        0.0384
     33 C           0.7460    1.7330    0.0000 C.ar    1  LIG1        0.0207
     34 O          -1.2540    3.4670    0.0000 O.3     1  LIG1       -0.4714
     35 C          -0.7540    4.3250    0.0000 C.3     1  LIG1        0.2525
@<TRIPOS>BOND
     1     1     2    1
     2     1    18   ar
     3     1    22   ar
     4     2     3   am
     5     2    17    2
     6     3     4    1
     7     3    13    1
     8     4     5    1
     9     4    12    1
    10     5     6    1
    11     6     7    1
    12     7     8   am
    13     7    11    1
    14     8     9    2
    15     8    10    1
    16    11    12    1
    17    13    14    1
    18    14    15    1
    19    15    16    1
    20    18    19   ar
    21    19    20   ar
    22    19    28    1
    23    20    21   ar
    24    20    27    2
    25    21    22   ar
    26    21    26   ar
    27    22    23   ar
    28    23    24   ar
    29    24    25   ar
    30    25    26   ar
    31    28    29   ar
    32    28    33   ar
    33    29    30   ar
    34    30    31   ar
    35    31    32   ar
    36    31    34    1
    37    32    33   ar
    38    34    35    1
