@<TRIPOS>MOLECULE
30334_ChemDiv_E456-1632
 32 36 0 0 0
SMALL
GASTEIGER
Energy = 0

@<TRIPOS>ATOM
      1 C           1.2830   -1.2580    0.0000 C.ar    1  LIG1        0.0713
      2 C           0.7830   -0.3920    0.0000 C.ar    1  LIG1        0.0874
      3 N           1.2830    0.4710    0.0000 N.ar    1  LIG1       -0.2730
      4 C           2.2830    0.4710    0.0000 C.ar    1  LIG1        0.2647
      5 C           2.7830   -0.3920    0.0000 C.ar    1  LIG1        0.0567
      6 C           2.2830   -1.2580    0.0000 C.ar    1  LIG1        0.0104
      7 C           2.7830   -2.1250    0.0000 C.ar    1  LIG1        0.0003
      8 C           3.7830   -2.1250    0.0000 C.ar    1  LIG1        0.0000
      9 C           4.2830   -1.2580    0.0000 C.ar    1  LIG1        0.0002
     10 C           3.7830   -0.3920    0.0000 C.ar    1  LIG1        0.0047
     11 O           2.7830    1.3420    0.0000 O.2     1  LIG1       -0.2666
     12 C           0.7830    1.3420    0.0000 C.ar    1  LIG1        0.0671
     13 C           1.2830    2.2040    0.0000 C.ar    1  LIG1        0.0207
     14 C           0.7830    3.0710    0.0000 C.ar    1  LIG1        0.0384
     15 C          -0.2170    3.0710    0.0000 C.ar    1  LIG1        0.1388
     16 C          -0.7170    2.2040    0.0000 C.ar    1  LIG1        0.0384
     17 C          -0.2170    1.3420    0.0000 C.ar    1  LIG1        0.0207
     18 O          -0.7170    3.9380    0.0000 O.3     1  LIG1       -0.4714
     19 C          -0.2170    4.7960    0.0000 C.3     1  LIG1        0.2525
     20 C           0.7830   -2.1250    0.0000 C.2     1  LIG1        0.2505
     21 N          -0.2170   -2.1250    0.0000 N.am    1  LIG1       -0.2757
     22 C          -0.8040   -2.9330    0.0000 C.3     1  LIG1        0.0980
     23 C          -1.7580   -2.6250    0.0000 C.3     1  LIG1        0.0439
     24 C          -1.7580   -1.6250    0.0000 C.3     1  LIG1        0.0276
     25 C          -0.8040   -1.3170    0.0000 C.3     1  LIG1        0.0941
     26 C          -2.5630   -3.2130    0.0000 C.ar    1  LIG1       -0.0208
     27 C          -3.4790   -2.8040    0.0000 C.ar    1  LIG1       -0.0042
     28 C          -4.2880   -3.3920    0.0000 C.ar    1  LIG1       -0.0003
     29 C          -4.1830   -4.3880    0.0000 C.ar    1  LIG1       -0.0000
     30 C          -3.2710   -4.7960    0.0000 C.ar    1  LIG1       -0.0003
     31 C          -2.4580   -4.2040    0.0000 C.ar    1  LIG1       -0.0042
     32 O           1.2830   -2.9920    0.0000 O.2     1  LIG1       -0.2699
@<TRIPOS>BOND
     1     1     2   ar
     2     1     6   ar
     3     1    20    1
     4     2     3   ar
     5     3     4   ar
     6     3    12    1
     7     4     5   ar
     8     4    11    2
     9     5     6   ar
    10     5    10   ar
    11     6     7   ar
    12     7     8   ar
    13     8     9   ar
    14     9    10   ar
    15    12    13   ar
    16    12    17   ar
    17    13    14   ar
    18    14    15   ar
    19    15    16   ar
    20    15    18    1
    21    16    17   ar
    22    18    19    1
    23    20    21   am
    24    20    32    2
    25    21    22    1
    26    21    25    1
    27    22    23    1
    28    23    24    1
    29    23    26    1
    30    24    25    1
    31    26    27   ar
    32    26    31   ar
    33    27    28   ar
    34    28    29   ar
    35    29    30   ar
    36    30    31   ar
