@<TRIPOS>MOLECULE
30336_ChemDiv_E456-1636
 31 34 0 0 0
SMALL
GASTEIGER
Energy = 0

@<TRIPOS>ATOM
      1 C           0.9960   -0.8630    0.0000 C.ar    1  LIG1        0.0728
      2 C           0.5000    0.0040    0.0000 C.ar    1  LIG1        0.0875
      3 N           0.9960    0.8710    0.0000 N.ar    1  LIG1       -0.2730
      4 C           2.0000    0.8710    0.0000 C.ar    1  LIG1        0.2647
      5 C           2.4960    0.0040    0.0000 C.ar    1  LIG1        0.0567
      6 C           2.0000   -0.8630    0.0000 C.ar    1  LIG1        0.0105
      7 C           2.4960   -1.7250    0.0000 C.ar    1  LIG1        0.0003
      8 C           3.4960   -1.7250    0.0000 C.ar    1  LIG1        0.0000
      9 C           4.0000   -0.8630    0.0000 C.ar    1  LIG1        0.0002
     10 C           3.4960    0.0040    0.0000 C.ar    1  LIG1        0.0047
     11 O           2.4960    1.7380    0.0000 O.2     1  LIG1       -0.2666
     12 C           0.5000    1.7380    0.0000 C.ar    1  LIG1        0.0671
     13 C          -0.5040    1.7380    0.0000 C.ar    1  LIG1        0.0207
     14 C          -1.0040    2.6000    0.0000 C.ar    1  LIG1        0.0384
     15 C          -0.5040    3.4670    0.0000 C.ar    1  LIG1        0.1388
     16 C           0.5000    3.4670    0.0000 C.ar    1  LIG1        0.0384
     17 C           0.9960    2.6000    0.0000 C.ar    1  LIG1        0.0207
     18 O          -1.0040    4.3290    0.0000 O.3     1  LIG1       -0.4714
     19 C          -0.5040    5.1920    0.0000 C.3     1  LIG1        0.2525
     20 C           0.5000   -1.7250    0.0000 C.2     1  LIG1        0.2664
     21 O           0.9960   -2.5960    0.0000 O.2     1  LIG1       -0.2683
     22 N          -0.5040   -1.7250    0.0000 N.am    1  LIG1       -0.1952
     23 C          -1.0040   -2.5960    0.0000 C.3     1  LIG1        0.1778
     24 C          -2.0040   -2.5960    0.0000 C.3     1  LIG1        0.1621
     25 N          -2.5040   -3.4580    0.0000 N.4     1  LIG1        0.3743
     26 C          -2.0040   -4.3250    0.0000 C.3     1  LIG1        0.0871
     27 C          -1.0040   -4.3250    0.0000 C.3     1  LIG1        0.0626
     28 C          -2.5040   -5.1920    0.0000 C.3     1  LIG1        0.0569
     29 C          -3.5040   -5.1920    0.0000 C.3     1  LIG1        0.0120
     30 C          -4.0040   -4.3250    0.0000 C.3     1  LIG1        0.0629
     31 C          -3.5040   -3.4580    0.0000 C.3     1  LIG1        0.1383
@<TRIPOS>BOND
     1     1     2   ar
     2     1     6   ar
     3     1    20    1
     4     2     3   ar
     5     3     4   ar
     6     3    12    1
     7     4     5   ar
     8     4    11    2
     9     5     6   ar
    10     5    10   ar
    11     6     7   ar
    12     7     8   ar
    13     8     9   ar
    14     9    10   ar
    15    12    13   ar
    16    12    17   ar
    17    13    14   ar
    18    14    15   ar
    19    15    16   ar
    20    15    18    1
    21    16    17   ar
    22    18    19    1
    23    20    21    2
    24    20    22   am
    25    22    23    1
    26    23    24    1
    27    24    25    1
    28    25    26    1
    29    25    31    1
    30    26    27    1
    31    26    28    1
    32    28    29    1
    33    29    30    1
    34    30    31    1
