@<TRIPOS>MOLECULE
30337_ChemDiv_3785-0288
 32 36 0 0 0
SMALL
GASTEIGER
Energy = 0

@<TRIPOS>ATOM
      1 S          -2.9080    0.2330    0.0000 S.O2    1  LIG1       -0.0565
      2 N          -3.8920    0.4130    0.0000 N.pl3   1  LIG1       -0.5152
      3 C          -4.2420    1.4080    0.0000 C.ar    1  LIG1        0.0047
      4 N          -5.1330    1.7830    0.0000 N.ar    1  LIG1       -0.2605
      5 C          -5.0630    2.7330    0.0000 C.ar    1  LIG1        0.1042
      6 C          -4.1040    2.9460    0.0000 C.ar    1  LIG1        0.0556
      7 S          -3.5960    2.1330    0.0000 S.2     1  LIG1       -0.0898
      8 C          -1.8790    0.0380    0.0000 C.ar    1  LIG1        0.0894
      9 C          -1.5290   -0.9210    0.0000 C.ar    1  LIG1        0.0182
     10 C          -0.5420   -1.0920    0.0000 C.ar    1  LIG1        0.0179
     11 C           0.1000   -0.3670    0.0000 C.ar    1  LIG1        0.0750
     12 N           1.0960   -0.5790    0.0000 N.am    1  LIG1       -0.1617
     13 C           1.7750    0.1630    0.0000 C.2     1  LIG1        0.3351
     14 N           2.7670   -0.0960    0.0000 N.am    1  LIG1       -0.2194
     15 C           3.0290   -1.0540    0.0000 C.ar    1  LIG1        0.0656
     16 C           4.0040   -1.3040    0.0000 C.ar    1  LIG1        0.0435
     17 S           4.7000   -0.6250    0.0000 S.3     1  LIG1       -0.0844
     18 C           4.4330    0.3330    0.0000 C.ar    1  LIG1        0.0435
     19 C           3.4580    0.5830    0.0000 C.ar    1  LIG1        0.0656
     20 C           3.1960    1.5670    0.0000 C.ar    1  LIG1        0.0158
     21 C           3.8710    2.2670    0.0000 C.ar    1  LIG1        0.0013
     22 C           4.8630    2.0000    0.0000 C.ar    1  LIG1        0.0006
     23 C           5.1290    1.0580    0.0000 C.ar    1  LIG1        0.0077
     24 C           4.2710   -2.2460    0.0000 C.ar    1  LIG1        0.0077
     25 C           3.5750   -2.9420    0.0000 C.ar    1  LIG1        0.0006
     26 C           2.6000   -2.6750    0.0000 C.ar    1  LIG1        0.0013
     27 C           2.3380   -1.7330    0.0000 C.ar    1  LIG1        0.0158
     28 O           1.4790    1.1380    0.0000 O.2     1  LIG1       -0.2497
     29 C          -0.1960    0.5830    0.0000 C.ar    1  LIG1        0.0179
     30 C          -1.1880    0.8000    0.0000 C.ar    1  LIG1        0.0182
     31 O          -2.6920    1.2750    0.0000 O.2     1  LIG1       -0.1841
     32 O          -3.0830   -0.7960    0.0000 O.2     1  LIG1       -0.1841
@<TRIPOS>BOND
     1     1     2    1
     2     1     8    1
     3     1    31    2
     4     1    32    2
     5     2     3    1
     6     3     4   ar
     7     3     7   ar
     8     4     5   ar
     9     5     6   ar
    10     6     7   ar
    11     8     9   ar
    12     8    30   ar
    13     9    10   ar
    14    10    11   ar
    15    11    12    1
    16    11    29   ar
    17    12    13   am
    18    13    14   am
    19    13    28    2
    20    14    15    1
    21    14    19    1
    22    15    16   ar
    23    15    27   ar
    24    16    17    1
    25    16    24   ar
    26    17    18    1
    27    18    19   ar
    28    18    23   ar
    29    19    20   ar
    30    20    21   ar
    31    21    22   ar
    32    22    23   ar
    33    24    25   ar
    34    25    26   ar
    35    26    27   ar
    36    29    30   ar
