@<TRIPOS>MOLECULE
30338_ChemDiv_4029-0283
 24 26 0 0 0
SMALL
GASTEIGER
Energy = 0

@<TRIPOS>ATOM
      1 N           0.4250   -0.2580    0.0000 N.am    1  LIG1       -0.2757
      2 C          -0.4460    0.2460    0.0000 C.2     1  LIG1        0.2492
      3 C          -1.3130   -0.2580    0.0000 C.2     1  LIG1        0.0580
      4 C          -2.1790    0.2460    0.0000 C.2     1  LIG1        0.0077
      5 C          -3.0460   -0.2420    0.0000 C.ar    1  LIG1        0.0341
      6 C          -3.9130    0.2460    0.0000 C.ar    1  LIG1        0.1386
      7 O          -3.9130    1.2460    0.0000 O.3     1  LIG1       -0.4714
      8 C          -3.0460    1.7580    0.0000 C.3     1  LIG1        0.2525
      9 C          -4.7630   -0.2420    0.0000 C.ar    1  LIG1        0.0369
     10 C          -4.7630   -1.2420    0.0000 C.ar    1  LIG1        0.0031
     11 C          -3.9130   -1.7540    0.0000 C.ar    1  LIG1        0.0002
     12 C          -3.0460   -1.2420    0.0000 C.ar    1  LIG1        0.0030
     13 O          -0.4460    1.2460    0.0000 O.2     1  LIG1       -0.2699
     14 C           1.2920    0.2460    0.0000 C.3     1  LIG1        0.0980
     15 C           2.1580   -0.2580    0.0000 C.3     1  LIG1        0.0422
     16 C           3.0250    0.2460    0.0000 C.ar    1  LIG1       -0.0208
     17 C           3.0250    1.2460    0.0000 C.ar    1  LIG1       -0.0042
     18 C           3.8920    1.7420    0.0000 C.ar    1  LIG1       -0.0003
     19 C           4.7580    1.2420    0.0000 C.ar    1  LIG1       -0.0000
     20 C           4.7580    0.2420    0.0000 C.ar    1  LIG1       -0.0003
     21 C           3.8920   -0.2580    0.0000 C.ar    1  LIG1       -0.0042
     22 C           2.1580   -1.2580    0.0000 C.3     1  LIG1        0.0078
     23 C           1.2920   -1.7540    0.0000 C.3     1  LIG1        0.0219
     24 C           0.4250   -1.2580    0.0000 C.3     1  LIG1        0.0937
@<TRIPOS>BOND
     1     1     2   am
     2     1    14    1
     3     1    24    1
     4     2     3    1
     5     2    13    2
     6     3     4    2
     7     4     5    1
     8     5     6   ar
     9     5    12   ar
    10     6     7    1
    11     6     9   ar
    12     7     8    1
    13     9    10   ar
    14    10    11   ar
    15    11    12   ar
    16    14    15    1
    17    15    16    1
    18    15    22    1
    19    16    17   ar
    20    16    21   ar
    21    17    18   ar
    22    18    19   ar
    23    19    20   ar
    24    20    21   ar
    25    22    23    1
    26    23    24    1
