@<TRIPOS>MOLECULE
30345_ChemDiv_5215-0206
 20 22 0 0 0
SMALL
GASTEIGER
Energy = 0

@<TRIPOS>ATOM
      1 N          -0.9040   -0.5000    0.0000 N.am    1  LIG1       -0.2197
      2 C          -0.0420   -0.9960    0.0000 C.2     1  LIG1        0.3309
      3 O          -0.0540   -2.0880    0.0000 O.2     1  LIG1       -0.2501
      4 N           0.9000   -0.4540    0.0000 N.am    1  LIG1       -0.1851
      5 C           1.7580   -0.9500    0.0000 C.3     1  LIG1        0.1522
      6 C           2.6210   -0.4580    0.0000 C.3     1  LIG1        0.2055
      7 O           3.4790   -0.9580    0.0000 O.3     1  LIG1       -0.2184
      8 C          -0.9000    0.4920    0.0000 C.ar    1  LIG1        0.0656
      9 C          -1.7580    1.0000    0.0000 C.ar    1  LIG1        0.0435
     10 S          -2.6170    0.5080    0.0000 S.3     1  LIG1       -0.0844
     11 C          -2.6170   -0.4830    0.0000 C.ar    1  LIG1        0.0435
     12 C          -1.7580   -0.9920    0.0000 C.ar    1  LIG1        0.0656
     13 C          -1.7630   -1.9790    0.0000 C.ar    1  LIG1        0.0158
     14 C          -2.6250   -2.4710    0.0000 C.ar    1  LIG1        0.0013
     15 C          -3.4830   -1.9630    0.0000 C.ar    1  LIG1        0.0006
     16 C          -3.4790   -0.9750    0.0000 C.ar    1  LIG1        0.0077
     17 C          -1.7460    1.9830    0.0000 C.ar    1  LIG1        0.0077
     18 C          -0.9000    2.4750    0.0000 C.ar    1  LIG1        0.0006
     19 C          -0.0380    1.9670    0.0000 C.ar    1  LIG1        0.0013
     20 C          -0.0420    0.9830    0.0000 C.ar    1  LIG1        0.0158
@<TRIPOS>BOND
     1     1     2   am
     2     1     8    1
     3     1    12    1
     4     2     3    2
     5     2     4   am
     6     4     5    1
     7     5     6    1
     8     6     7    1
     9     8     9   ar
    10     8    20   ar
    11     9    10    1
    12     9    17   ar
    13    10    11    1
    14    11    12   ar
    15    11    16   ar
    16    12    13   ar
    17    13    14   ar
    18    14    15   ar
    19    15    16   ar
    20    17    18   ar
    21    18    19   ar
    22    19    20   ar
