@<TRIPOS>MOLECULE
30341_ChemDiv_4953-2069
 27 30 0 0 0
SMALL
GASTEIGER
Energy = 0

@<TRIPOS>ATOM
      1 N          -2.3630   -0.4920    0.0000 N.am    1  LIG1       -0.2208
      2 C          -1.5330   -0.9670    0.0000 C.2     1  LIG1        0.3148
      3 N          -0.6170   -0.4380    0.0000 N.am    1  LIG1       -0.2635
      4 C          -0.6170    0.6290    0.0000 C.3     1  LIG1        0.0955
      5 C           0.2960    1.1500    0.0000 C.3     1  LIG1        0.0327
      6 C           1.2080    0.6170    0.0000 C.3     1  LIG1        0.1025
      7 C           2.1210    1.1250    0.0000 C.2     1  LIG1        0.3165
      8 O           2.1210    2.1790    0.0000 O.2     1  LIG1       -0.2501
      9 O           3.0250    0.6000    0.0000 O.3     1  LIG1       -0.4485
     10 C           3.9580    1.1250    0.0000 C.3     1  LIG1        0.2086
     11 C           4.8540    0.5920    0.0000 C.3     1  LIG1        0.0513
     12 C           1.2080   -0.4380    0.0000 C.3     1  LIG1        0.0327
     13 C           0.2790   -0.9670    0.0000 C.3     1  LIG1        0.0955
     14 O          -1.5460   -2.0210    0.0000 O.2     1  LIG1       -0.2517
     15 C          -3.1830   -0.9670    0.0000 C.ar    1  LIG1        0.0655
     16 C          -4.0170   -0.4670    0.0000 C.ar    1  LIG1        0.0435
     17 S          -4.0170    0.4960    0.0000 S.3     1  LIG1       -0.0844
     18 C          -3.1830    0.9710    0.0000 C.ar    1  LIG1        0.0435
     19 C          -2.3540    0.4710    0.0000 C.ar    1  LIG1        0.0655
     20 C          -1.5330    0.9460    0.0000 C.ar    1  LIG1        0.0158
     21 C          -1.5210    1.8960    0.0000 C.ar    1  LIG1        0.0013
     22 C          -2.3540    2.3960    0.0000 C.ar    1  LIG1        0.0006
     23 C          -3.1710    1.9210    0.0000 C.ar    1  LIG1        0.0077
     24 C          -4.8460   -0.9420    0.0000 C.ar    1  LIG1        0.0077
     25 C          -4.8580   -1.9040    0.0000 C.ar    1  LIG1        0.0006
     26 C          -4.0250   -2.3920    0.0000 C.ar    1  LIG1        0.0013
     27 C          -3.1960   -1.9170    0.0000 C.ar    1  LIG1        0.0158
@<TRIPOS>BOND
     1     1     2   am
     2     1    15    1
     3     1    19    1
     4     2     3   am
     5     2    14    2
     6     3     4    1
     7     3    13    1
     8     4     5    1
     9     5     6    1
    10     6     7    1
    11     6    12    1
    12     7     8    2
    13     7     9    1
    14     9    10    1
    15    10    11    1
    16    12    13    1
    17    15    16   ar
    18    15    27   ar
    19    16    17    1
    20    16    24   ar
    21    17    18    1
    22    18    19   ar
    23    18    23   ar
    24    19    20   ar
    25    20    21   ar
    26    21    22   ar
    27    22    23   ar
    28    24    25   ar
    29    25    26   ar
    30    26    27   ar
