@<TRIPOS>MOLECULE
30344_ChemDiv_4036-0012
 29 33 0 0 0
SMALL
GASTEIGER
Energy = 0

@<TRIPOS>ATOM
      1 N           0.1380   -0.0080    0.0000 N.am    1  LIG1       -0.2316
      2 C          -0.3960    0.8330    0.0000 C.2     1  LIG1        0.2319
      3 C          -1.3500    0.5210    0.0000 C.3     1  LIG1        0.0944
      4 C          -1.3500   -0.5130    0.0000 C.3     1  LIG1        0.0944
      5 C          -0.3960   -0.8000    0.0000 C.2     1  LIG1        0.2319
      6 O          -0.0630   -1.7710    0.0000 O.2     1  LIG1       -0.2744
      7 C          -2.2380   -0.9960    0.0000 C.3     1  LIG1        0.0530
      8 C          -3.1250   -0.5130    0.0000 C.2     1  LIG1       -0.0258
      9 C          -3.1250    0.5210    0.0000 C.2     1  LIG1       -0.0258
     10 C          -2.2380    0.9880    0.0000 C.3     1  LIG1        0.0530
     11 C          -2.2250    1.9830    0.0000 C.ar    1  LIG1       -0.0180
     12 C          -3.0670    2.4920    0.0000 C.ar    1  LIG1       -0.0039
     13 C          -3.0670    3.4960    0.0000 C.ar    1  LIG1       -0.0003
     14 C          -2.2250    4.0040    0.0000 C.ar    1  LIG1       -0.0000
     15 C          -1.3580    3.4880    0.0000 C.ar    1  LIG1       -0.0003
     16 C          -1.3580    2.4920    0.0000 C.ar    1  LIG1       -0.0039
     17 C          -2.2250   -1.9960    0.0000 C.ar    1  LIG1       -0.0180
     18 C          -3.0670   -2.5170    0.0000 C.ar    1  LIG1       -0.0039
     19 C          -3.0580   -3.5130    0.0000 C.ar    1  LIG1       -0.0003
     20 C          -2.1960   -4.0040    0.0000 C.ar    1  LIG1       -0.0000
     21 C          -1.3380   -3.4960    0.0000 C.ar    1  LIG1       -0.0003
     22 C          -1.3580   -2.4880    0.0000 C.ar    1  LIG1       -0.0039
     23 O          -0.0630    1.7580    0.0000 O.2     1  LIG1       -0.2744
     24 C           1.1500   -0.0080    0.0000 C.3     1  LIG1        0.0824
     25 C           1.6250    0.8500    0.0000 C.3     1  LIG1        0.0203
     26 C           2.6540    0.8380    0.0000 C.3     1  LIG1        0.0017
     27 C           3.1210   -0.0080    0.0000 C.3     1  LIG1        0.0001
     28 C           2.6420   -0.8710    0.0000 C.3     1  LIG1        0.0017
     29 C           1.6290   -0.8710    0.0000 C.3     1  LIG1        0.0203
@<TRIPOS>BOND
     1     1     2   am
     2     1     5   am
     3     1    24    1
     4     2     3    1
     5     2    23    2
     6     3     4    1
     7     3    10    1
     8     4     5    1
     9     4     7    1
    10     5     6    2
    11     7     8    1
    12     7    17    1
    13     8     9    2
    14     9    10    1
    15    10    11    1
    16    11    12   ar
    17    11    16   ar
    18    12    13   ar
    19    13    14   ar
    20    14    15   ar
    21    15    16   ar
    22    17    18   ar
    23    17    22   ar
    24    18    19   ar
    25    19    20   ar
    26    20    21   ar
    27    21    22   ar
    28    24    25    1
    29    24    29    1
    30    25    26    1
    31    26    27    1
    32    27    28    1
    33    28    29    1
