@<TRIPOS>MOLECULE
30340_ChemDiv_4029-0287
 23 26 0 0 0
SMALL
GASTEIGER
Energy = 0

@<TRIPOS>ATOM
      1 N           0.3290   -0.2500    0.0000 N.am    1  LIG1       -0.2757
      2 C          -0.5330    0.2540    0.0000 C.2     1  LIG1        0.2491
      3 C          -1.4000   -0.2500    0.0000 C.ar    1  LIG1        0.0568
      4 C          -2.2670    0.2540    0.0000 C.ar    1  LIG1        0.0447
      5 C          -3.1330   -0.2330    0.0000 C.ar    1  LIG1        0.1766
      6 C          -3.1330   -1.2330    0.0000 C.ar    1  LIG1        0.1764
      7 O          -4.0880   -1.5500    0.0000 O.3     1  LIG1       -0.4346
      8 C          -4.6670   -0.7460    0.0000 C.3     1  LIG1        0.4294
      9 O          -4.0880    0.0710    0.0000 O.3     1  LIG1       -0.4346
     10 C          -2.2670   -1.7460    0.0000 C.ar    1  LIG1        0.0403
     11 C          -1.4000   -1.2330    0.0000 C.ar    1  LIG1        0.0078
     12 O          -0.5330    1.2540    0.0000 O.2     1  LIG1       -0.2699
     13 C           1.1960    0.2540    0.0000 C.3     1  LIG1        0.0980
     14 C           2.0630   -0.2500    0.0000 C.3     1  LIG1        0.0422
     15 C           2.9290    0.2540    0.0000 C.ar    1  LIG1       -0.0208
     16 C           2.9290    1.2540    0.0000 C.ar    1  LIG1       -0.0042
     17 C           3.7960    1.7500    0.0000 C.ar    1  LIG1       -0.0003
     18 C           4.6630    1.2500    0.0000 C.ar    1  LIG1       -0.0000
     19 C           4.6630    0.2500    0.0000 C.ar    1  LIG1       -0.0003
     20 C           3.7960   -0.2500    0.0000 C.ar    1  LIG1       -0.0042
     21 C           2.0630   -1.2500    0.0000 C.3     1  LIG1        0.0078
     22 C           1.1960   -1.7460    0.0000 C.3     1  LIG1        0.0219
     23 C           0.3290   -1.2500    0.0000 C.3     1  LIG1        0.0937
@<TRIPOS>BOND
     1     1     2   am
     2     1    13    1
     3     1    23    1
     4     2     3    1
     5     2    12    2
     6     3     4   ar
     7     3    11   ar
     8     4     5   ar
     9     5     6   ar
    10     5     9    1
    11     6     7    1
    12     6    10   ar
    13     7     8    1
    14     8     9    1
    15    10    11   ar
    16    13    14    1
    17    14    15    1
    18    14    21    1
    19    15    16   ar
    20    15    20   ar
    21    16    17   ar
    22    17    18   ar
    23    18    19   ar
    24    19    20   ar
    25    21    22    1
    26    22    23    1
