@<TRIPOS>MOLECULE
30342_ChemDiv_8015-0970
 27 30 0 0 0
SMALL
GASTEIGER
Energy = 0

@<TRIPOS>ATOM
      1 C          -2.2750   -1.2460    0.0000 C.2     1  LIG1        0.2650
      2 C          -3.1380   -0.7500    0.0000 C.ar    1  LIG1        0.0583
      3 C          -4.0000   -1.2460    0.0000 C.ar    1  LIG1        0.0447
      4 C          -4.8630   -0.7500    0.0000 C.ar    1  LIG1        0.1766
      5 C          -4.8630    0.2500    0.0000 C.ar    1  LIG1        0.1764
      6 O          -5.8170    0.5580    0.0000 O.3     1  LIG1       -0.4346
      7 C          -6.4000   -0.2500    0.0000 C.3     1  LIG1        0.4294
      8 O          -5.8170   -1.0580    0.0000 O.3     1  LIG1       -0.4346
      9 C          -4.0000    0.7500    0.0000 C.ar    1  LIG1        0.0403
     10 C          -3.1380    0.2500    0.0000 C.ar    1  LIG1        0.0079
     11 O          -2.2750   -2.2460    0.0000 O.2     1  LIG1       -0.2684
     12 N          -1.4040   -0.7500    0.0000 N.am    1  LIG1       -0.1977
     13 C          -0.5330   -1.2460    0.0000 C.3     1  LIG1        0.1626
     14 C           0.3290   -0.7500    0.0000 C.3     1  LIG1        0.2287
     15 O           1.1960   -1.2460    0.0000 O.3     1  LIG1       -0.4735
     16 C           2.0580   -0.7500    0.0000 C.ar    1  LIG1        0.1386
     17 C           2.0580    0.2500    0.0000 C.ar    1  LIG1        0.0366
     18 C           2.9250    0.7500    0.0000 C.ar    1  LIG1       -0.0012
     19 C           3.7960    0.2500    0.0000 C.ar    1  LIG1       -0.0223
     20 C           3.7960   -0.7500    0.0000 C.ar    1  LIG1       -0.0012
     21 C           2.9250   -1.2460    0.0000 C.ar    1  LIG1        0.0366
     22 C           4.6630    0.7500    0.0000 C.3     1  LIG1        0.0223
     23 C           4.6630    1.7540    0.0000 C.3     1  LIG1        0.0044
     24 C           5.5290    2.2500    0.0000 C.3     1  LIG1        0.0003
     25 C           6.4000    1.7540    0.0000 C.3     1  LIG1        0.0000
     26 C           6.4000    0.7500    0.0000 C.3     1  LIG1        0.0003
     27 C           5.5290    0.2500    0.0000 C.3     1  LIG1        0.0044
@<TRIPOS>BOND
     1     1     2    1
     2     1    11    2
     3     1    12   am
     4     2     3   ar
     5     2    10   ar
     6     3     4   ar
     7     4     5   ar
     8     4     8    1
     9     5     6    1
    10     5     9   ar
    11     6     7    1
    12     7     8    1
    13     9    10   ar
    14    12    13    1
    15    13    14    1
    16    14    15    1
    17    15    16    1
    18    16    17   ar
    19    16    21   ar
    20    17    18   ar
    21    18    19   ar
    22    19    20   ar
    23    19    22    1
    24    20    21   ar
    25    22    23    1
    26    22    27    1
    27    23    24    1
    28    24    25    1
    29    25    26    1
    30    26    27    1
