@<TRIPOS>MOLECULE
30347_ChemDiv_5215-0215
 21 23 0 0 0
SMALL
GASTEIGER
Energy = 0

@<TRIPOS>ATOM
      1 N          -0.4750   -0.5000    0.0000 N.am    1  LIG1       -0.2208
      2 C           0.3880   -0.9960    0.0000 C.2     1  LIG1        0.3148
      3 N           1.3290   -0.4540    0.0000 N.am    1  LIG1       -0.2635
      4 C           1.3290    0.5460    0.0000 C.3     1  LIG1        0.0950
      5 C           2.1920    1.0380    0.0000 C.3     1  LIG1        0.0233
      6 C           2.1830   -0.9500    0.0000 C.3     1  LIG1        0.0950
      7 C           3.0500   -0.4580    0.0000 C.3     1  LIG1        0.0233
      8 O           0.3750   -2.0880    0.0000 O.2     1  LIG1       -0.2517
      9 C          -0.4670    0.4920    0.0000 C.ar    1  LIG1        0.0655
     10 C          -1.3290    1.0000    0.0000 C.ar    1  LIG1        0.0435
     11 S          -2.1880    0.5080    0.0000 S.3     1  LIG1       -0.0844
     12 C          -2.1880   -0.4830    0.0000 C.ar    1  LIG1        0.0435
     13 C          -1.3290   -0.9920    0.0000 C.ar    1  LIG1        0.0655
     14 C          -1.3330   -1.9790    0.0000 C.ar    1  LIG1        0.0158
     15 C          -2.1960   -2.4710    0.0000 C.ar    1  LIG1        0.0013
     16 C          -3.0540   -1.9670    0.0000 C.ar    1  LIG1        0.0006
     17 C          -3.0500   -0.9750    0.0000 C.ar    1  LIG1        0.0077
     18 C          -1.3170    1.9830    0.0000 C.ar    1  LIG1        0.0077
     19 C          -0.4670    2.4750    0.0000 C.ar    1  LIG1        0.0006
     20 C           0.3920    1.9710    0.0000 C.ar    1  LIG1        0.0013
     21 C           0.3880    0.9880    0.0000 C.ar    1  LIG1        0.0158
@<TRIPOS>BOND
     1     1     2   am
     2     1     9    1
     3     1    13    1
     4     2     3   am
     5     2     8    2
     6     3     4    1
     7     3     6    1
     8     4     5    1
     9     6     7    1
    10     9    10   ar
    11     9    21   ar
    12    10    11    1
    13    10    18   ar
    14    11    12    1
    15    12    13   ar
    16    12    17   ar
    17    13    14   ar
    18    14    15   ar
    19    15    16   ar
    20    16    17   ar
    21    18    19   ar
    22    19    20   ar
    23    20    21   ar
