@<TRIPOS>MOLECULE
30350_ChemDiv_4644-0034
 35 38 0 0 0
SMALL
GASTEIGER
Energy = 0

@<TRIPOS>ATOM
      1 N          -0.9290    0.4420    0.0000 N.am    1  LIG1       -0.2238
      2 C          -1.4960    1.2750    0.0000 C.2     1  LIG1        0.2322
      3 C          -2.4580    0.9630    0.0000 C.3     1  LIG1        0.0944
      4 C          -2.4580   -0.0460    0.0000 C.3     1  LIG1        0.0944
      5 C          -1.4960   -0.3630    0.0000 C.2     1  LIG1        0.2322
      6 O          -1.1750   -1.3170    0.0000 O.2     1  LIG1       -0.2744
      7 C          -3.3130   -0.5630    0.0000 C.3     1  LIG1        0.0530
      8 C          -4.1710   -0.0460    0.0000 C.2     1  LIG1       -0.0258
      9 C          -4.1710    0.9630    0.0000 C.2     1  LIG1       -0.0258
     10 C          -3.3130    1.4750    0.0000 C.3     1  LIG1        0.0530
     11 C          -3.3330    2.4790    0.0000 C.ar    1  LIG1       -0.0180
     12 C          -2.4790    2.9710    0.0000 C.ar    1  LIG1       -0.0039
     13 C          -2.4790    3.9710    0.0000 C.ar    1  LIG1       -0.0003
     14 C          -3.3330    4.4580    0.0000 C.ar    1  LIG1       -0.0000
     15 C          -4.1920    3.9710    0.0000 C.ar    1  LIG1       -0.0003
     16 C          -4.1920    2.9710    0.0000 C.ar    1  LIG1       -0.0039
     17 C          -3.3330   -1.5630    0.0000 C.ar    1  LIG1       -0.0180
     18 C          -2.4790   -2.0540    0.0000 C.ar    1  LIG1       -0.0039
     19 C          -2.4790   -3.0580    0.0000 C.ar    1  LIG1       -0.0003
     20 C          -3.3330   -3.5460    0.0000 C.ar    1  LIG1       -0.0000
     21 C          -4.1920   -3.0580    0.0000 C.ar    1  LIG1       -0.0003
     22 C          -4.1920   -2.0540    0.0000 C.ar    1  LIG1       -0.0039
     23 O          -1.2000    2.2330    0.0000 O.2     1  LIG1       -0.2744
     24 C           0.0960    0.4420    0.0000 C.3     1  LIG1        0.1616
     25 C           0.5830   -0.4380    0.0000 C.3     1  LIG1        0.1320
     26 N           1.5830   -0.4380    0.0000 N.4     1  LIG1        0.3159
     27 C           1.5830   -1.4420    0.0000 C.3     1  LIG1        0.2198
     28 C           2.4420   -1.9540    0.0000 C.2     1  LIG1        0.3738
     29 O           3.3000   -1.4420    0.0000 O.2     1  LIG1       -0.2435
     30 O           2.4750   -2.9540    0.0000 O.3     1  LIG1       -0.4482
     31 C           3.3290   -3.4460    0.0000 C.3     1  LIG1        0.1693
     32 C           3.3580   -4.4580    0.0000 C.3     1  LIG1        0.0473
     33 C           4.1880   -2.9540    0.0000 C.3     1  LIG1        0.0473
     34 C           1.5830    0.5670    0.0000 C.3     1  LIG1        0.1714
     35 C           2.5960   -0.4380    0.0000 C.3     1  LIG1        0.1714
@<TRIPOS>BOND
     1     1     2   am
     2     1     5   am
     3     1    24    1
     4     2     3    1
     5     2    23    2
     6     3     4    1
     7     3    10    1
     8     4     5    1
     9     4     7    1
    10     5     6    2
    11     7     8    1
    12     7    17    1
    13     8     9    2
    14     9    10    1
    15    10    11    1
    16    11    12   ar
    17    11    16   ar
    18    12    13   ar
    19    13    14   ar
    20    14    15   ar
    21    15    16   ar
    22    17    18   ar
    23    17    22   ar
    24    18    19   ar
    25    19    20   ar
    26    20    21   ar
    27    21    22   ar
    28    24    25    1
    29    25    26    1
    30    26    27    1
    31    26    34    1
    32    26    35    1
    33    27    28    1
    34    28    29    2
    35    28    30    1
    36    30    31    1
    37    31    32    1
    38    31    33    1
