@<TRIPOS>MOLECULE
30356_ChemDiv_E456-2168
 32 35 0 0 0
SMALL
GASTEIGER
Energy = 0

@<TRIPOS>ATOM
      1 C           0.2460    0.8670    0.0000 C.ar    1  LIG1        0.0716
      2 C          -0.2500    1.7330    0.0000 C.2     1  LIG1        0.2543
      3 N          -1.2500    1.7330    0.0000 N.am    1  LIG1       -0.2507
      4 C          -1.7540    2.6040    0.0000 C.ar    1  LIG1        0.0891
      5 C          -1.2500    3.4670    0.0000 C.ar    1  LIG1        0.0294
      6 C          -1.7540    4.3290    0.0000 C.ar    1  LIG1        0.0591
      7 C          -2.7540    4.3290    0.0000 C.ar    1  LIG1        0.0146
      8 C          -3.2500    3.4670    0.0000 C.ar    1  LIG1        0.0391
      9 C          -2.7540    2.6040    0.0000 C.ar    1  LIG1        0.1523
     10 O          -3.2500    1.7330    0.0000 O.3     1  LIG1       -0.4702
     11 C          -2.7540    0.8670    0.0000 C.3     1  LIG1        0.2525
     12 CL         -1.2500    5.1960    0.0000 Cl      1  LIG1       -0.0822
     13 C          -1.7540    0.8670    0.0000 C.3     1  LIG1        0.1204
     14 O           0.2460    2.6040    0.0000 O.2     1  LIG1       -0.2695
     15 C          -0.2500    0.0040    0.0000 C.ar    1  LIG1        0.0874
     16 N           0.2460   -0.8630    0.0000 N.ar    1  LIG1       -0.2729
     17 C           1.2460   -0.8630    0.0000 C.ar    1  LIG1        0.2647
     18 C           1.7500    0.0040    0.0000 C.ar    1  LIG1        0.0567
     19 C           1.2460    0.8670    0.0000 C.ar    1  LIG1        0.0104
     20 C           1.7500    1.7330    0.0000 C.ar    1  LIG1        0.0003
     21 C           2.7500    1.7330    0.0000 C.ar    1  LIG1        0.0000
     22 C           3.2460    0.8670    0.0000 C.ar    1  LIG1        0.0002
     23 C           2.7500    0.0040    0.0000 C.ar    1  LIG1        0.0047
     24 O           1.7500   -1.7290    0.0000 O.2     1  LIG1       -0.2666
     25 C          -0.2500   -1.7290    0.0000 C.ar    1  LIG1        0.0699
     26 C           0.2460   -2.5960    0.0000 C.ar    1  LIG1        0.0545
     27 C          -0.2500   -3.4580    0.0000 C.ar    1  LIG1        0.1402
     28 O           0.2460   -4.3290    0.0000 O.3     1  LIG1       -0.4714
     29 C          -0.2500   -5.1960    0.0000 C.3     1  LIG1        0.2525
     30 C          -1.2500   -3.4580    0.0000 C.ar    1  LIG1        0.0370
     31 C          -1.7540   -2.5960    0.0000 C.ar    1  LIG1        0.0046
     32 C          -1.2500   -1.7290    0.0000 C.ar    1  LIG1        0.0178
@<TRIPOS>BOND
     1     1     2    1
     2     1    15   ar
     3     1    19   ar
     4     2     3   am
     5     2    14    2
     6     3     4    1
     7     3    13    1
     8     4     5   ar
     9     4     9   ar
    10     5     6   ar
    11     6     7   ar
    12     6    12    1
    13     7     8   ar
    14     8     9   ar
    15     9    10    1
    16    10    11    1
    17    15    16   ar
    18    16    17   ar
    19    16    25    1
    20    17    18   ar
    21    17    24    2
    22    18    19   ar
    23    18    23   ar
    24    19    20   ar
    25    20    21   ar
    26    21    22   ar
    27    22    23   ar
    28    25    26   ar
    29    25    32   ar
    30    26    27   ar
    31    27    28    1
    32    27    30   ar
    33    28    29    1
    34    30    31   ar
    35    31    32   ar
