@<TRIPOS>MOLECULE
30352_ChemDiv_4036-0873
 26 28 0 0 0
SMALL
GASTEIGER
Energy = 0

@<TRIPOS>ATOM
      1 C           0.8420   -1.5210    0.0000 C.ar    1  LIG1        0.0820
      2 C           0.0380   -1.0920    0.0000 C.2     1  LIG1        0.2713
      3 N           0.0380   -0.1710    0.0000 N.am    1  LIG1       -0.1752
      4 C          -1.0170    0.0380    0.0000 C.ar    1  LIG1        0.0780
      5 C          -1.3500    1.0630    0.0000 C.ar    1  LIG1        0.0689
      6 C          -0.6210    1.8670    0.0000 C.2     1  LIG1        0.2503
      7 N           0.4250    1.6170    0.0000 N.am    1  LIG1       -0.2760
      8 C           0.7420    0.5960    0.0000 C.3     1  LIG1        0.0937
      9 C           1.7880    0.3500    0.0000 C.3     1  LIG1        0.0216
     10 C           2.5290    1.1290    0.0000 C.3     1  LIG1        0.0035
     11 C           2.1960    2.1710    0.0000 C.3     1  LIG1        0.0216
     12 C           1.1500    2.4040    0.0000 C.3     1  LIG1        0.0937
     13 O          -0.9540    2.8960    0.0000 O.2     1  LIG1       -0.2699
     14 C          -2.4080    1.2960    0.0000 C.ar    1  LIG1        0.0058
     15 C          -3.1330    0.5000    0.0000 C.ar    1  LIG1        0.0002
     16 C          -2.7960   -0.5460    0.0000 C.ar    1  LIG1        0.0013
     17 C          -1.7500   -0.7580    0.0000 C.ar    1  LIG1        0.0168
     18 O          -0.7330   -1.5500    0.0000 O.2     1  LIG1       -0.2679
     19 C           1.5790   -1.0920    0.0000 C.ar    1  LIG1        0.1307
     20 O           2.3540   -1.5210    0.0000 O.2     1  LIG1       -0.4253
     21 C           2.3540   -2.4130    0.0000 C.ar    1  LIG1        0.3453
     22 C           1.6000   -2.8500    0.0000 C.ar    1  LIG1        0.0782
     23 C           0.8420   -2.4000    0.0000 C.ar    1  LIG1       -0.0083
     24 C           0.0380   -2.8500    0.0000 C.3     1  LIG1        0.0315
     25 O           3.1290   -2.8920    0.0000 O.2     1  LIG1       -0.2445
     26 C           1.5790   -0.1710    0.0000 C.3     1  LIG1        0.0727
@<TRIPOS>BOND
     1     1     2    1
     2     1    19   ar
     3     1    23   ar
     4     2     3   am
     5     2    18    2
     6     3     4    1
     7     4     5   ar
     8     4    17   ar
     9     5     6    1
    10     5    14   ar
    11     6     7   am
    12     6    13    2
    13     7     8    1
    14     7    12    1
    15     8     9    1
    16     9    10    1
    17    10    11    1
    18    11    12    1
    19    14    15   ar
    20    15    16   ar
    21    16    17   ar
    22    19    20   ar
    23    19    26    1
    24    20    21   ar
    25    21    22   ar
    26    21    25    2
    27    22    23   ar
    28    23    24    1
