@<TRIPOS>MOLECULE
30351_ChemDiv_5594-3145
 28 32 0 0 0
SMALL
GASTEIGER
Energy = 0

@<TRIPOS>ATOM
      1 N          -1.3830    1.1580    0.0000 N.am    1  LIG1       -0.2208
      2 C          -1.3830    0.2040    0.0000 C.2     1  LIG1        0.3149
      3 N          -0.5380   -0.2670    0.0000 N.am    1  LIG1       -0.2600
      4 C          -0.5380   -1.3000    0.0000 C.3     1  LIG1        0.1164
      5 C           0.4040   -1.7000    0.0000 C.3     1  LIG1        0.1124
      6 N           1.3380   -1.2380    0.0000 N.pl3   1  LIG1       -0.3041
      7 C           1.2540   -0.2210    0.0000 C.3     1  LIG1        0.1124
      8 C           0.3330    0.2790    0.0000 C.3     1  LIG1        0.1164
      9 C           2.2170   -1.7000    0.0000 C.ar    1  LIG1        0.0479
     10 C           3.0630   -1.1460    0.0000 C.ar    1  LIG1        0.0145
     11 C           3.9830   -1.6460    0.0000 C.ar    1  LIG1        0.0013
     12 C           3.9830   -2.6210    0.0000 C.ar    1  LIG1        0.0001
     13 C           3.1920   -3.1540    0.0000 C.ar    1  LIG1        0.0013
     14 C           2.2580   -2.7040    0.0000 C.ar    1  LIG1        0.0145
     15 O          -2.2080   -0.3500    0.0000 O.2     1  LIG1       -0.2517
     16 C          -0.5040    1.6920    0.0000 C.ar    1  LIG1        0.0655
     17 C          -0.5040    2.5920    0.0000 C.ar    1  LIG1        0.0435
     18 S          -1.3830    3.1580    0.0000 S.3     1  LIG1       -0.0844
     19 C          -2.2290    2.6540    0.0000 C.ar    1  LIG1        0.0435
     20 C          -2.2290    1.6500    0.0000 C.ar    1  LIG1        0.0655
     21 C          -3.1080    1.1580    0.0000 C.ar    1  LIG1        0.0158
     22 C          -3.9880    1.6920    0.0000 C.ar    1  LIG1        0.0013
     23 C          -3.9880    2.5920    0.0000 C.ar    1  LIG1        0.0006
     24 C          -3.1080    3.1580    0.0000 C.ar    1  LIG1        0.0077
     25 C           0.3750    3.0960    0.0000 C.ar    1  LIG1        0.0077
     26 C           1.2540    2.5920    0.0000 C.ar    1  LIG1        0.0006
     27 C           1.2540    1.6920    0.0000 C.ar    1  LIG1        0.0013
     28 C           0.3750    1.2130    0.0000 C.ar    1  LIG1        0.0158
@<TRIPOS>BOND
     1     1     2   am
     2     1    16    1
     3     1    20    1
     4     2     3   am
     5     2    15    2
     6     3     4    1
     7     3     8    1
     8     4     5    1
     9     5     6    1
    10     6     7    1
    11     6     9    1
    12     7     8    1
    13     9    10   ar
    14     9    14   ar
    15    10    11   ar
    16    11    12   ar
    17    12    13   ar
    18    13    14   ar
    19    16    17   ar
    20    16    28   ar
    21    17    18    1
    22    17    25   ar
    23    18    19    1
    24    19    20   ar
    25    19    24   ar
    26    20    21   ar
    27    21    22   ar
    28    22    23   ar
    29    23    24   ar
    30    25    26   ar
    31    26    27   ar
    32    27    28   ar
