@<TRIPOS>MOLECULE
30369_ChemDiv_3786-1032
 34 37 0 0 0
SMALL
GASTEIGER
Energy = 0

@<TRIPOS>ATOM
      1 S          -2.1580   -2.6380    0.0000 S.O2    1  LIG1        0.0592
      2 N          -2.1580   -1.6420    0.0000 N.pl3   1  LIG1       -0.1849
      3 C          -1.2960   -1.1460    0.0000 C.3     1  LIG1        0.2001
      4 C          -0.4290   -1.6420    0.0000 C.2     1  LIG1        0.2480
      5 N           0.4250   -1.1460    0.0000 N.am    1  LIG1       -0.2667
      6 C           1.2830   -1.6420    0.0000 C.3     1  LIG1        0.1565
      7 C           2.1670   -1.1460    0.0000 C.3     1  LIG1        0.1612
      8 N           2.1670   -0.1330    0.0000 N.4     1  LIG1        0.3820
      9 C           3.0210    0.3630    0.0000 C.3     1  LIG1        0.1331
     10 C           3.8790   -0.1330    0.0000 C.ar    1  LIG1        0.0328
     11 C           4.7500    0.3710    0.0000 C.ar    1  LIG1        0.0016
     12 C           5.6170   -0.1170    0.0000 C.ar    1  LIG1       -0.0001
     13 C           5.6170   -1.1420    0.0000 C.ar    1  LIG1       -0.0000
     14 C           4.7670   -1.6290    0.0000 C.ar    1  LIG1       -0.0001
     15 C           3.8790   -1.1420    0.0000 C.ar    1  LIG1        0.0016
     16 C           3.0210    1.3750    0.0000 C.ar    1  LIG1        0.0328
     17 C           3.8790    1.8750    0.0000 C.ar    1  LIG1        0.0016
     18 C           3.8790    2.8580    0.0000 C.ar    1  LIG1       -0.0001
     19 C           3.0130    3.3540    0.0000 C.ar    1  LIG1       -0.0000
     20 C           2.1460    2.8460    0.0000 C.ar    1  LIG1       -0.0001
     21 C           2.1540    1.8580    0.0000 C.ar    1  LIG1        0.0016
     22 C           1.2830    0.3630    0.0000 C.3     1  LIG1        0.1612
     23 C           0.4170   -0.1500    0.0000 C.3     1  LIG1        0.1565
     24 O          -0.4290   -2.6380    0.0000 O.2     1  LIG1       -0.2729
     25 C          -3.0250   -1.1460    0.0000 C.ar    1  LIG1        0.0698
     26 C          -3.8830   -1.6670    0.0000 C.ar    1  LIG1        0.0275
     27 C          -4.7540   -1.1460    0.0000 C.ar    1  LIG1        0.0590
     28 CL         -5.6210   -1.6420    0.0000 Cl      1  LIG1       -0.0822
     29 C          -4.7540   -0.1500    0.0000 C.ar    1  LIG1        0.0115
     30 C          -3.8670    0.3500    0.0000 C.ar    1  LIG1        0.0022
     31 C          -3.0170   -0.1500    0.0000 C.ar    1  LIG1        0.0162
     32 O          -1.1500   -2.6380    0.0000 O.2     1  LIG1       -0.1542
     33 O          -1.4540   -3.3500    0.0000 O.2     1  LIG1       -0.1542
     34 C          -3.0250   -3.1380    0.0000 C.3     1  LIG1        0.1999
@<TRIPOS>BOND
     1     1     2    1
     2     1    32    2
     3     1    33    2
     4     1    34    1
     5     2     3    1
     6     2    25    1
     7     3     4    1
     8     4     5   am
     9     4    24    2
    10     5     6    1
    11     5    23    1
    12     6     7    1
    13     7     8    1
    14     8     9    1
    15     8    22    1
    16     9    10    1
    17     9    16    1
    18    10    11   ar
    19    10    15   ar
    20    11    12   ar
    21    12    13   ar
    22    13    14   ar
    23    14    15   ar
    24    16    17   ar
    25    16    21   ar
    26    17    18   ar
    27    18    19   ar
    28    19    20   ar
    29    20    21   ar
    30    22    23    1
    31    25    26   ar
    32    25    31   ar
    33    26    27   ar
    34    27    28    1
    35    27    29   ar
    36    29    30   ar
    37    30    31   ar
