@<TRIPOS>MOLECULE
30362_ChemDiv_E456-2274
 27 29 0 0 0
SMALL
GASTEIGER
Energy = 0

@<TRIPOS>ATOM
      1 C          -0.5000    0.8670    0.0000 C.ar    1  LIG1        0.0713
      2 C          -1.0000    0.0040    0.0000 C.ar    1  LIG1        0.0874
      3 N          -0.5000   -0.8630    0.0000 N.ar    1  LIG1       -0.2729
      4 C           0.5000   -0.8630    0.0000 C.ar    1  LIG1        0.2647
      5 C           1.0000    0.0040    0.0000 C.ar    1  LIG1        0.0567
      6 C           0.5000    0.8670    0.0000 C.ar    1  LIG1        0.0104
      7 C           1.0000    1.7330    0.0000 C.ar    1  LIG1        0.0003
      8 C           2.0000    1.7330    0.0000 C.ar    1  LIG1        0.0000
      9 C           2.5000    0.8670    0.0000 C.ar    1  LIG1        0.0002
     10 C           2.0000    0.0040    0.0000 C.ar    1  LIG1        0.0047
     11 O           1.0000   -1.7290    0.0000 O.2     1  LIG1       -0.2666
     12 C          -1.0000   -1.7290    0.0000 C.ar    1  LIG1        0.0699
     13 C          -0.5000   -2.5960    0.0000 C.ar    1  LIG1        0.0545
     14 C          -1.0000   -3.4580    0.0000 C.ar    1  LIG1        0.1402
     15 O          -0.5000   -4.3290    0.0000 O.3     1  LIG1       -0.4714
     16 C          -1.0000   -5.1960    0.0000 C.3     1  LIG1        0.2525
     17 C          -2.0000   -3.4580    0.0000 C.ar    1  LIG1        0.0370
     18 C          -2.5000   -2.5960    0.0000 C.ar    1  LIG1        0.0046
     19 C          -2.0000   -1.7290    0.0000 C.ar    1  LIG1        0.0178
     20 C          -1.0000    1.7330    0.0000 C.2     1  LIG1        0.2506
     21 N          -2.0000    1.7330    0.0000 N.am    1  LIG1       -0.2732
     22 C          -2.5000    2.6040    0.0000 C.3     1  LIG1        0.1099
     23 C          -2.0000    3.4670    0.0000 C.3     1  LIG1        0.1268
     24 C          -2.5000    4.3290    0.0000 C.1     1  LIG1        0.0750
     25 N          -2.0000    5.1960    0.0000 N.1     1  LIG1       -0.1958
     26 C          -2.5000    0.8670    0.0000 C.3     1  LIG1        0.1152
     27 O          -0.5000    2.6040    0.0000 O.2     1  LIG1       -0.2699
@<TRIPOS>BOND
     1     1     2   ar
     2     1     6   ar
     3     1    20    1
     4     2     3   ar
     5     3     4   ar
     6     3    12    1
     7     4     5   ar
     8     4    11    2
     9     5     6   ar
    10     5    10   ar
    11     6     7   ar
    12     7     8   ar
    13     8     9   ar
    14     9    10   ar
    15    12    13   ar
    16    12    19   ar
    17    13    14   ar
    18    14    15    1
    19    14    17   ar
    20    15    16    1
    21    17    18   ar
    22    18    19   ar
    23    20    21   am
    24    20    27    2
    25    21    22    1
    26    21    26    1
    27    22    23    1
    28    23    24    1
    29    24    25    3
