@<TRIPOS>MOLECULE
30366_ChemDiv_E456-2311
 37 41 0 0 0
SMALL
GASTEIGER
Energy = 0

@<TRIPOS>ATOM
      1 C           1.5460    0.4380    0.0000 C.ar    1  LIG1        0.0731
      2 C           1.0460   -0.4290    0.0000 C.ar    1  LIG1        0.0875
      3 N           1.5460   -1.2960    0.0000 N.ar    1  LIG1       -0.2729
      4 C           2.5460   -1.2960    0.0000 C.ar    1  LIG1        0.2647
      5 C           3.0500   -0.4290    0.0000 C.ar    1  LIG1        0.0567
      6 C           2.5460    0.4380    0.0000 C.ar    1  LIG1        0.0105
      7 C           3.0500    1.3040    0.0000 C.ar    1  LIG1        0.0003
      8 C           4.0500    1.3040    0.0000 C.ar    1  LIG1        0.0000
      9 C           4.5460    0.4380    0.0000 C.ar    1  LIG1        0.0002
     10 C           4.0500   -0.4290    0.0000 C.ar    1  LIG1        0.0047
     11 O           3.0500   -2.1580    0.0000 O.2     1  LIG1       -0.2666
     12 C           1.0460   -2.1580    0.0000 C.ar    1  LIG1        0.0699
     13 C           1.5460   -3.0250    0.0000 C.ar    1  LIG1        0.0545
     14 C           1.0460   -3.8920    0.0000 C.ar    1  LIG1        0.1402
     15 O           1.5460   -4.7580    0.0000 O.3     1  LIG1       -0.4714
     16 C           1.0460   -5.6250    0.0000 C.3     1  LIG1        0.2525
     17 C           0.0460   -3.8920    0.0000 C.ar    1  LIG1        0.0370
     18 C          -0.4540   -3.0250    0.0000 C.ar    1  LIG1        0.0046
     19 C           0.0460   -2.1580    0.0000 C.ar    1  LIG1        0.0178
     20 C           1.0460    1.3040    0.0000 C.2     1  LIG1        0.2704
     21 N           0.0460    1.3040    0.0000 N.am    1  LIG1       -0.1754
     22 C          -0.4540    2.1710    0.0000 C.ar    1  LIG1        0.0738
     23 C          -1.4540    2.1710    0.0000 C.ar    1  LIG1        0.0180
     24 C          -1.9540    3.0330    0.0000 C.ar    1  LIG1        0.0212
     25 C          -1.4540    3.9040    0.0000 C.ar    1  LIG1        0.1223
     26 S          -1.9540    4.7630    0.0000 S.O2    1  LIG1        0.0633
     27 N          -2.8210    4.2670    0.0000 N.3     1  LIG1       -0.1555
     28 C          -2.8210    3.2710    0.0000 C.3     1  LIG1        0.0958
     29 C          -3.6830    2.7670    0.0000 C.3     1  LIG1        0.0192
     30 C          -4.5500    3.2710    0.0000 C.3     1  LIG1        0.0030
     31 C          -4.5500    4.2670    0.0000 C.3     1  LIG1        0.0192
     32 C          -3.6830    4.7630    0.0000 C.3     1  LIG1        0.0958
     33 O          -1.0880    5.2670    0.0000 O.2     1  LIG1       -0.1528
     34 O          -2.4540    5.6250    0.0000 O.2     1  LIG1       -0.1528
     35 C          -0.4540    3.9040    0.0000 C.ar    1  LIG1        0.0212
     36 C           0.0460    3.0330    0.0000 C.ar    1  LIG1        0.0180
     37 O           1.5460    2.1710    0.0000 O.2     1  LIG1       -0.2680
@<TRIPOS>BOND
     1     1     2   ar
     2     1     6   ar
     3     1    20    1
     4     2     3   ar
     5     3     4   ar
     6     3    12    1
     7     4     5   ar
     8     4    11    2
     9     5     6   ar
    10     5    10   ar
    11     6     7   ar
    12     7     8   ar
    13     8     9   ar
    14     9    10   ar
    15    12    13   ar
    16    12    19   ar
    17    13    14   ar
    18    14    15    1
    19    14    17   ar
    20    15    16    1
    21    17    18   ar
    22    18    19   ar
    23    20    21   am
    24    20    37    2
    25    21    22    1
    26    22    23   ar
    27    22    36   ar
    28    23    24   ar
    29    24    25   ar
    30    25    26    1
    31    25    35   ar
    32    26    27    1
    33    26    33    2
    34    26    34    2
    35    27    28    1
    36    27    32    1
    37    28    29    1
    38    29    30    1
    39    30    31    1
    40    31    32    1
    41    35    36   ar
