@<TRIPOS>MOLECULE
30368_ChemDiv_K936-0276
 31 34 0 0 0
SMALL
GASTEIGER
Energy = 0

@<TRIPOS>ATOM
      1 C          -0.4420    1.2630    0.0000 C.ar    1  LIG1        0.0728
      2 C           0.4250    1.7580    0.0000 C.ar    1  LIG1        0.0875
      3 N           0.4250    2.7580    0.0000 N.ar    1  LIG1       -0.2730
      4 C          -0.4380    3.2710    0.0000 C.ar    1  LIG1        0.2647
      5 C          -1.3000    2.7580    0.0000 C.ar    1  LIG1        0.0567
      6 C          -1.3040    1.7580    0.0000 C.ar    1  LIG1        0.0105
      7 C          -2.1630    1.2630    0.0000 C.ar    1  LIG1        0.0003
      8 C          -3.0290    1.7580    0.0000 C.ar    1  LIG1        0.0000
      9 C          -3.0290    2.7580    0.0000 C.ar    1  LIG1        0.0002
     10 C          -2.1630    3.2710    0.0000 C.ar    1  LIG1        0.0047
     11 O          -0.4380    4.2630    0.0000 O.2     1  LIG1       -0.2666
     12 C           1.3000    3.2710    0.0000 C.ar    1  LIG1        0.0671
     13 C           1.2880    4.2540    0.0000 C.ar    1  LIG1        0.0207
     14 C           2.1540    4.7540    0.0000 C.ar    1  LIG1        0.0384
     15 C           3.0290    4.2540    0.0000 C.ar    1  LIG1        0.1388
     16 C           3.0290    3.2580    0.0000 C.ar    1  LIG1        0.0384
     17 C           2.1540    2.7540    0.0000 C.ar    1  LIG1        0.0207
     18 O           3.8920    4.7540    0.0000 O.3     1  LIG1       -0.4714
     19 C           4.7540    4.2540    0.0000 C.3     1  LIG1        0.2525
     20 C          -0.4500    0.2630    0.0000 C.2     1  LIG1        0.2662
     21 O           0.4210   -0.2290    0.0000 O.2     1  LIG1       -0.2683
     22 N          -1.3130   -0.2290    0.0000 N.am    1  LIG1       -0.2014
     23 C          -1.3130   -1.2330    0.0000 C.3     1  LIG1        0.1216
     24 C          -2.1750   -1.7290    0.0000 C.3     1  LIG1        0.0861
     25 C          -2.1750   -2.7290    0.0000 C.3     1  LIG1        0.1407
     26 N          -3.0380   -3.2420    0.0000 N.4     1  LIG1        0.3813
     27 C          -3.0290   -4.2420    0.0000 C.3     1  LIG1        0.1713
     28 C          -3.8920   -4.7540    0.0000 C.3     1  LIG1        0.2047
     29 O          -4.7580   -4.2540    0.0000 O.3     1  LIG1       -0.3411
     30 C          -4.7580   -3.2540    0.0000 C.3     1  LIG1        0.2047
     31 C          -3.8960   -2.7460    0.0000 C.3     1  LIG1        0.1713
@<TRIPOS>BOND
     1     1     2   ar
     2     1     6   ar
     3     1    20    1
     4     2     3   ar
     5     3     4   ar
     6     3    12    1
     7     4     5   ar
     8     4    11    2
     9     5     6   ar
    10     5    10   ar
    11     6     7   ar
    12     7     8   ar
    13     8     9   ar
    14     9    10   ar
    15    12    13   ar
    16    12    17   ar
    17    13    14   ar
    18    14    15   ar
    19    15    16   ar
    20    15    18    1
    21    16    17   ar
    22    18    19    1
    23    20    21    2
    24    20    22   am
    25    22    23    1
    26    23    24    1
    27    24    25    1
    28    25    26    1
    29    26    27    1
    30    26    31    1
    31    27    28    1
    32    28    29    1
    33    29    30    1
    34    30    31    1
