@<TRIPOS>MOLECULE
30360_ChemDiv_E456-2246
 28 31 0 0 0
SMALL
GASTEIGER
Energy = 0

@<TRIPOS>ATOM
      1 C           0.2460    2.1670    0.0000 C.ar    1  LIG1        0.0731
      2 C          -0.2500    1.3000    0.0000 C.ar    1  LIG1        0.0875
      3 N           0.2460    0.4330    0.0000 N.ar    1  LIG1       -0.2729
      4 C           1.2460    0.4330    0.0000 C.ar    1  LIG1        0.2647
      5 C           1.7500    1.3000    0.0000 C.ar    1  LIG1        0.0567
      6 C           1.2460    2.1670    0.0000 C.ar    1  LIG1        0.0105
      7 C           1.7500    3.0330    0.0000 C.ar    1  LIG1        0.0003
      8 C           2.7500    3.0330    0.0000 C.ar    1  LIG1        0.0000
      9 C           3.2460    2.1670    0.0000 C.ar    1  LIG1        0.0002
     10 C           2.7500    1.3000    0.0000 C.ar    1  LIG1        0.0047
     11 O           1.7500   -0.4290    0.0000 O.2     1  LIG1       -0.2666
     12 C          -0.2500   -0.4290    0.0000 C.ar    1  LIG1        0.0699
     13 C           0.2460   -1.2960    0.0000 C.ar    1  LIG1        0.0545
     14 C          -0.2500   -2.1630    0.0000 C.ar    1  LIG1        0.1402
     15 O           0.2460   -3.0290    0.0000 O.3     1  LIG1       -0.4714
     16 C          -0.2500   -3.8960    0.0000 C.3     1  LIG1        0.2525
     17 C          -1.2500   -2.1630    0.0000 C.ar    1  LIG1        0.0370
     18 C          -1.7540   -1.2960    0.0000 C.ar    1  LIG1        0.0046
     19 C          -1.2500   -0.4290    0.0000 C.ar    1  LIG1        0.0178
     20 C          -0.2500    3.0330    0.0000 C.2     1  LIG1        0.2705
     21 N          -1.2500    3.0330    0.0000 N.am    1  LIG1       -0.1738
     22 C          -1.7540    2.1670    0.0000 C.ar    1  LIG1        0.0928
     23 C          -2.7540    2.1670    0.0000 C.ar    1  LIG1        0.1154
     24 N          -3.2500    1.3000    0.0000 N.ar    1  LIG1       -0.2410
     25 C          -2.7540    0.4330    0.0000 C.ar    1  LIG1        0.0990
     26 C          -1.7540    0.4330    0.0000 C.ar    1  LIG1        0.0220
     27 C          -1.2500    1.3000    0.0000 C.ar    1  LIG1        0.0198
     28 O           0.2460    3.9000    0.0000 O.2     1  LIG1       -0.2680
@<TRIPOS>BOND
     1     1     2   ar
     2     1     6   ar
     3     1    20    1
     4     2     3   ar
     5     3     4   ar
     6     3    12    1
     7     4     5   ar
     8     4    11    2
     9     5     6   ar
    10     5    10   ar
    11     6     7   ar
    12     7     8   ar
    13     8     9   ar
    14     9    10   ar
    15    12    13   ar
    16    12    19   ar
    17    13    14   ar
    18    14    15    1
    19    14    17   ar
    20    15    16    1
    21    17    18   ar
    22    18    19   ar
    23    20    21   am
    24    20    28    2
    25    21    22    1
    26    22    23   ar
    27    22    27   ar
    28    23    24   ar
    29    24    25   ar
    30    25    26   ar
    31    26    27   ar
