@<TRIPOS>MOLECULE
30376_ChemDiv_C066-1723
 24 26 0 0 0
SMALL
GASTEIGER
Energy = 0

@<TRIPOS>ATOM
      1 C           0.0000    1.4960    0.0000 C.ar    1  LIG1        0.0917
      2 C          -0.0040    0.4960    0.0000 C.2     1  LIG1        0.2558
      3 N           0.8670   -0.0040    0.0000 N.am    1  LIG1       -0.2551
      4 C           0.8540   -1.0040    0.0000 C.ar    1  LIG1        0.0541
      5 C          -0.0040   -1.5040    0.0000 C.ar    1  LIG1        0.0146
      6 C          -0.0040   -2.5040    0.0000 C.ar    1  LIG1       -0.0030
      7 C           0.8540   -3.0040    0.0000 C.ar    1  LIG1       -0.0221
      8 C           1.7290   -2.5040    0.0000 C.ar    1  LIG1       -0.0030
      9 C           1.7170   -1.5040    0.0000 C.ar    1  LIG1        0.0146
     10 C           0.8540   -4.0000    0.0000 C.3     1  LIG1        0.0264
     11 C          -0.0040   -4.5000    0.0000 C.3     1  LIG1        0.0050
     12 C           1.7290    0.4960    0.0000 C.3     1  LIG1        0.0986
     13 C           2.5920   -0.0040    0.0000 C.3     1  LIG1        0.0237
     14 O          -0.8670   -0.0040    0.0000 O.2     1  LIG1       -0.2695
     15 C          -0.8670    1.9960    0.0000 C.ar    1  LIG1        0.0137
     16 C          -0.8670    2.9960    0.0000 C.ar    1  LIG1        0.0763
     17 C          -0.0040    3.4960    0.0000 C.ar    1  LIG1        0.3458
     18 O           0.8710    2.9960    0.0000 O.2     1  LIG1       -0.4177
     19 C           0.8710    1.9960    0.0000 C.ar    1  LIG1        0.1875
     20 O           0.0000    4.5000    0.0000 O.2     1  LIG1       -0.2445
     21 C          -1.7330    3.4960    0.0000 C.ar    1  LIG1        0.0065
     22 C          -2.5960    2.9960    0.0000 C.ar    1  LIG1        0.0002
     23 C          -2.5960    1.9960    0.0000 C.ar    1  LIG1        0.0000
     24 C          -1.7330    1.4960    0.0000 C.ar    1  LIG1        0.0005
@<TRIPOS>BOND
     1     1     2    1
     2     1    15   ar
     3     1    19   ar
     4     2     3   am
     5     2    14    2
     6     3     4    1
     7     3    12    1
     8     4     5   ar
     9     4     9   ar
    10     5     6   ar
    11     6     7   ar
    12     7     8   ar
    13     7    10    1
    14     8     9   ar
    15    10    11    1
    16    12    13    1
    17    15    16   ar
    18    15    24   ar
    19    16    17   ar
    20    16    21   ar
    21    17    18   ar
    22    17    20    2
    23    18    19   ar
    24    21    22   ar
    25    22    23   ar
    26    23    24   ar
