@<TRIPOS>MOLECULE
30389_ChemDiv_4422-0020
 20 23 0 0 0
SMALL
GASTEIGER
Energy = 0

@<TRIPOS>ATOM
      1 C          -0.2710    0.3330    0.0000 C.ar    1  LIG1        0.1617
      2 C          -0.2710    1.3290    0.0000 C.ar    1  LIG1        0.1167
      3 N           0.6040    1.8250    0.0000 N.ar    1  LIG1       -0.2408
      4 C           1.4750    1.3290    0.0000 C.ar    1  LIG1        0.0990
      5 C           1.4750    0.3330    0.0000 C.ar    1  LIG1        0.1005
      6 N           0.6040   -0.1670    0.0000 N.ar    1  LIG1       -0.2252
      7 C           2.3460   -0.1670    0.0000 C.ar    1  LIG1        0.0207
      8 C           3.2250    0.3330    0.0000 C.ar    1  LIG1        0.0016
      9 C           3.2250    1.3290    0.0000 C.ar    1  LIG1        0.0016
     10 C           2.3460    1.8250    0.0000 C.ar    1  LIG1        0.0206
     11 C          -1.2380    1.6250    0.0000 C.ar    1  LIG1        0.0364
     12 C          -1.8130    0.8130    0.0000 C.ar    1  LIG1        0.0627
     13 N          -1.1920    0.0170    0.0000 N.ar    1  LIG1       -0.3088
     14 C          -1.4540   -0.9330    0.0000 C.3     1  LIG1        0.1430
     15 C          -0.7580   -1.6290    0.0000 C.3     1  LIG1        0.2065
     16 O          -0.9670   -2.6170    0.0000 O.3     1  LIG1       -0.2182
     17 C          -2.8080    0.8920    0.0000 C.ar    1  LIG1        0.0173
     18 C          -3.2290    1.7960    0.0000 C.ar    1  LIG1        0.0015
     19 C          -2.6540    2.6210    0.0000 C.ar    1  LIG1        0.0001
     20 C          -1.6420    2.5170    0.0000 C.ar    1  LIG1        0.0030
@<TRIPOS>BOND
     1     1     2   ar
     2     1     6   ar
     3     1    13   ar
     4     2     3   ar
     5     2    11   ar
     6     3     4   ar
     7     4     5   ar
     8     4    10   ar
     9     5     6   ar
    10     5     7   ar
    11     7     8   ar
    12     8     9   ar
    13     9    10   ar
    14    11    12   ar
    15    11    20   ar
    16    12    13   ar
    17    12    17   ar
    18    13    14    1
    19    14    15    1
    20    15    16    1
    21    17    18   ar
    22    18    19   ar
    23    19    20   ar
