@<TRIPOS>MOLECULE
30385_ChemDiv_3874-0031
 24 28 0 0 0
SMALL
GASTEIGER
Energy = 0

@<TRIPOS>ATOM
      1 N          -0.7580    0.1250    0.0000 N.ar    1  LIG1       -0.2629
      2 C           0.0750    0.7000    0.0000 C.ar    1  LIG1        0.1657
      3 C          -0.2460    1.6540    0.0000 C.ar    1  LIG1        0.1168
      4 N           0.4330    2.3790    0.0000 N.ar    1  LIG1       -0.2407
      5 C           1.4000    2.1790    0.0000 C.ar    1  LIG1        0.0990
      6 C           1.7080    1.2290    0.0000 C.ar    1  LIG1        0.1005
      7 N           1.0420    0.4790    0.0000 N.ar    1  LIG1       -0.2250
      8 C           2.6880    1.0040    0.0000 C.ar    1  LIG1        0.0207
      9 C           3.3540    1.7540    0.0000 C.ar    1  LIG1        0.0016
     10 C           3.0500    2.7040    0.0000 C.ar    1  LIG1        0.0016
     11 C           2.0790    2.9080    0.0000 C.ar    1  LIG1        0.0206
     12 C          -1.2500    1.6540    0.0000 C.ar    1  LIG1        0.0366
     13 C          -1.5580    0.7000    0.0000 C.ar    1  LIG1        0.0678
     14 C          -2.5250    0.4790    0.0000 C.ar    1  LIG1        0.0175
     15 C          -3.1880    1.2290    0.0000 C.ar    1  LIG1        0.0015
     16 C          -2.8790    2.1790    0.0000 C.ar    1  LIG1        0.0001
     17 C          -1.9130    2.3790    0.0000 C.ar    1  LIG1        0.0030
     18 C          -0.7580   -0.8960    0.0000 C.3     1  LIG1        0.2590
     19 N          -1.6250   -1.3920    0.0000 N.4     1  LIG1        0.3956
     20 C          -2.4960   -0.8960    0.0000 C.3     1  LIG1        0.1414
     21 C          -3.3580   -1.3920    0.0000 C.3     1  LIG1        0.0630
     22 C          -3.3580   -2.4130    0.0000 C.3     1  LIG1        0.0123
     23 C          -2.4960   -2.9040    0.0000 C.3     1  LIG1        0.0630
     24 C          -1.6250   -2.4130    0.0000 C.3     1  LIG1        0.1414
@<TRIPOS>BOND
     1     1     2   ar
     2     1    13   ar
     3     1    18    1
     4     2     3   ar
     5     2     7   ar
     6     3     4   ar
     7     3    12   ar
     8     4     5   ar
     9     5     6   ar
    10     5    11   ar
    11     6     7   ar
    12     6     8   ar
    13     8     9   ar
    14     9    10   ar
    15    10    11   ar
    16    12    13   ar
    17    12    17   ar
    18    13    14   ar
    19    14    15   ar
    20    15    16   ar
    21    16    17   ar
    22    18    19    1
    23    19    20    1
    24    19    24    1
    25    20    21    1
    26    21    22    1
    27    22    23    1
    28    23    24    1
