@<TRIPOS>MOLECULE
30384_ChemDiv_C066-2195
 20 22 0 0 0
SMALL
GASTEIGER
Energy = 0

@<TRIPOS>ATOM
      1 C           0.4250    0.7540    0.0000 C.ar    1  LIG1        0.0932
      2 C           0.4250   -0.2420    0.0000 C.2     1  LIG1        0.2721
      3 N           1.2880   -0.7420    0.0000 N.am    1  LIG1       -0.1738
      4 C           1.2880   -1.7420    0.0000 C.ar    1  LIG1        0.0928
      5 C           2.1630   -2.2420    0.0000 C.ar    1  LIG1        0.1154
      6 N           2.1630   -3.2380    0.0000 N.ar    1  LIG1       -0.2410
      7 C           1.2830   -3.7500    0.0000 C.ar    1  LIG1        0.0990
      8 C           0.4130   -3.2380    0.0000 C.ar    1  LIG1        0.0220
      9 C           0.4210   -2.2420    0.0000 C.ar    1  LIG1        0.0198
     10 O          -0.4380   -0.7420    0.0000 O.2     1  LIG1       -0.2679
     11 C          -0.4380    1.2540    0.0000 C.ar    1  LIG1        0.0138
     12 C          -0.4380    2.2540    0.0000 C.ar    1  LIG1        0.0763
     13 C           0.4250    2.7540    0.0000 C.ar    1  LIG1        0.3458
     14 O           1.2880    2.2540    0.0000 O.2     1  LIG1       -0.4177
     15 C           1.2880    1.2540    0.0000 C.ar    1  LIG1        0.1876
     16 O           0.4250    3.7540    0.0000 O.2     1  LIG1       -0.2445
     17 C          -1.3000    2.7540    0.0000 C.ar    1  LIG1        0.0065
     18 C          -2.1670    2.2540    0.0000 C.ar    1  LIG1        0.0002
     19 C          -2.1670    1.2540    0.0000 C.ar    1  LIG1        0.0000
     20 C          -1.3000    0.7540    0.0000 C.ar    1  LIG1        0.0005
@<TRIPOS>BOND
     1     1     2    1
     2     1    11   ar
     3     1    15   ar
     4     2     3   am
     5     2    10    2
     6     3     4    1
     7     4     5   ar
     8     4     9   ar
     9     5     6   ar
    10     6     7   ar
    11     7     8   ar
    12     8     9   ar
    13    11    12   ar
    14    11    20   ar
    15    12    13   ar
    16    12    17   ar
    17    13    14   ar
    18    13    16    2
    19    14    15   ar
    20    17    18   ar
    21    18    19   ar
    22    19    20   ar
