@<TRIPOS>MOLECULE
30382_ChemDiv_C066-1809
 23 25 0 0 0
SMALL
GASTEIGER
Energy = 0

@<TRIPOS>ATOM
      1 C          -0.8750   -0.2540    0.0000 C.ar    1  LIG1        0.0917
      2 C          -0.8750   -1.2540    0.0000 C.2     1  LIG1        0.2558
      3 N          -0.0080   -1.7540    0.0000 N.am    1  LIG1       -0.2533
      4 C           0.8540   -1.2540    0.0000 C.ar    1  LIG1        0.0544
      5 C           1.7170   -1.7630    0.0000 C.ar    1  LIG1        0.0180
      6 C           2.5790   -1.2670    0.0000 C.ar    1  LIG1        0.0382
      7 C           2.5880   -0.2630    0.0000 C.ar    1  LIG1        0.1388
      8 C           1.7170    0.2330    0.0000 C.ar    1  LIG1        0.0382
      9 C           0.8540   -0.2630    0.0000 C.ar    1  LIG1        0.0180
     10 O           3.4540    0.2290    0.0000 O.3     1  LIG1       -0.4714
     11 C           3.4580    1.2290    0.0000 C.3     1  LIG1        0.2525
     12 C          -0.0080   -2.7540    0.0000 C.3     1  LIG1        0.1203
     13 O          -1.7420   -1.7500    0.0000 O.2     1  LIG1       -0.2695
     14 C          -1.7380    0.2500    0.0000 C.ar    1  LIG1        0.0137
     15 C          -1.7380    1.2500    0.0000 C.ar    1  LIG1        0.0763
     16 C          -0.8750    1.7580    0.0000 C.ar    1  LIG1        0.3458
     17 O           0.0000    1.2500    0.0000 O.2     1  LIG1       -0.4177
     18 C           0.0000    0.2460    0.0000 C.ar    1  LIG1        0.1875
     19 O          -0.8750    2.7580    0.0000 O.2     1  LIG1       -0.2445
     20 C          -2.6000    1.7500    0.0000 C.ar    1  LIG1        0.0065
     21 C          -3.4630    1.2500    0.0000 C.ar    1  LIG1        0.0002
     22 C          -3.4630    0.2460    0.0000 C.ar    1  LIG1        0.0000
     23 C          -2.6000   -0.2540    0.0000 C.ar    1  LIG1        0.0005
@<TRIPOS>BOND
     1     1     2    1
     2     1    14   ar
     3     1    18   ar
     4     2     3   am
     5     2    13    2
     6     3     4    1
     7     3    12    1
     8     4     5   ar
     9     4     9   ar
    10     5     6   ar
    11     6     7   ar
    12     7     8   ar
    13     7    10    1
    14     8     9   ar
    15    10    11    1
    16    14    15   ar
    17    14    23   ar
    18    15    16   ar
    19    15    20   ar
    20    16    17   ar
    21    16    19    2
    22    17    18   ar
    23    20    21   ar
    24    21    22   ar
    25    22    23   ar
