@<TRIPOS>MOLECULE
30380_ChemDiv_C066-1733
 24 26 0 0 0
SMALL
GASTEIGER
Energy = 0

@<TRIPOS>ATOM
      1 C          -0.0080    1.2420    0.0000 C.ar    1  LIG1        0.0917
      2 C          -0.0080    0.2460    0.0000 C.2     1  LIG1        0.2558
      3 N           0.8580   -0.2540    0.0000 N.am    1  LIG1       -0.2551
      4 C           0.8580   -1.2540    0.0000 C.ar    1  LIG1        0.0538
      5 C           1.7170   -1.7460    0.0000 C.ar    1  LIG1        0.0103
      6 C           1.7330   -2.7380    0.0000 C.ar    1  LIG1       -0.0246
      7 C           0.8670   -3.2500    0.0000 C.ar    1  LIG1       -0.0257
      8 C          -0.0080   -2.7540    0.0000 C.ar    1  LIG1       -0.0033
      9 C          -0.0080   -1.7540    0.0000 C.ar    1  LIG1        0.0146
     10 C           0.8710   -4.2540    0.0000 C.3     1  LIG1        0.0307
     11 C           2.5960   -3.2380    0.0000 C.3     1  LIG1        0.0307
     12 C           1.7170    0.2460    0.0000 C.3     1  LIG1        0.0986
     13 C           2.5830   -0.2540    0.0000 C.3     1  LIG1        0.0237
     14 O          -0.8670   -0.2540    0.0000 O.2     1  LIG1       -0.2695
     15 C          -0.8750    1.7460    0.0000 C.ar    1  LIG1        0.0137
     16 C          -0.8670    2.7460    0.0000 C.ar    1  LIG1        0.0763
     17 C          -0.0080    3.2460    0.0000 C.ar    1  LIG1        0.3458
     18 O           0.8670    2.7460    0.0000 O.2     1  LIG1       -0.4177
     19 C           0.8710    1.7460    0.0000 C.ar    1  LIG1        0.1875
     20 O          -0.0080    4.2540    0.0000 O.2     1  LIG1       -0.2445
     21 C          -1.7380    3.2460    0.0000 C.ar    1  LIG1        0.0065
     22 C          -2.6000    2.7460    0.0000 C.ar    1  LIG1        0.0002
     23 C          -2.6000    1.7460    0.0000 C.ar    1  LIG1        0.0000
     24 C          -1.7380    1.2420    0.0000 C.ar    1  LIG1        0.0005
@<TRIPOS>BOND
     1     1     2    1
     2     1    15   ar
     3     1    19   ar
     4     2     3   am
     5     2    14    2
     6     3     4    1
     7     3    12    1
     8     4     5   ar
     9     4     9   ar
    10     5     6   ar
    11     6     7   ar
    12     6    11    1
    13     7     8   ar
    14     7    10    1
    15     8     9   ar
    16    12    13    1
    17    15    16   ar
    18    15    24   ar
    19    16    17   ar
    20    16    21   ar
    21    17    18   ar
    22    17    20    2
    23    18    19   ar
    24    21    22   ar
    25    22    23   ar
    26    23    24   ar
