@<TRIPOS>MOLECULE
30387_ChemDiv_3874-0034
 23 26 0 0 0
SMALL
GASTEIGER
Energy = 0

@<TRIPOS>ATOM
      1 C           0.0000    1.1920    0.0000 C.ar    1  LIG1        0.1620
      2 N          -0.8290    0.6130    0.0000 N.ar    1  LIG1       -0.3013
      3 C          -1.6380    1.2290    0.0000 C.ar    1  LIG1        0.0631
      4 C          -1.3000    2.1460    0.0000 C.ar    1  LIG1        0.0364
      5 C          -0.3210    2.1460    0.0000 C.ar    1  LIG1        0.1167
      6 N           0.3460    2.8920    0.0000 N.ar    1  LIG1       -0.2408
      7 C           1.3380    2.6670    0.0000 C.ar    1  LIG1        0.0990
      8 C           1.6380    1.7170    0.0000 C.ar    1  LIG1        0.1005
      9 N           0.9710    0.9790    0.0000 N.ar    1  LIG1       -0.2252
     10 C           2.6210    1.5040    0.0000 C.ar    1  LIG1        0.0207
     11 C           3.2710    2.2500    0.0000 C.ar    1  LIG1        0.0016
     12 C           2.9750    3.2040    0.0000 C.ar    1  LIG1        0.0016
     13 C           2.0000    3.4130    0.0000 C.ar    1  LIG1        0.0206
     14 C          -1.9580    2.8960    0.0000 C.ar    1  LIG1        0.0030
     15 C          -2.9380    2.7290    0.0000 C.ar    1  LIG1        0.0001
     16 C          -3.2750    1.7750    0.0000 C.ar    1  LIG1        0.0015
     17 C          -2.6210    1.0290    0.0000 C.ar    1  LIG1        0.0173
     18 C          -0.8460   -0.3960    0.0000 C.3     1  LIG1        0.2177
     19 C           0.0380   -0.9040    0.0000 C.2     1  LIG1        0.3404
     20 O           0.8920   -0.4080    0.0000 O.2     1  LIG1       -0.2479
     21 O           0.0130   -1.9040    0.0000 O.3     1  LIG1       -0.4472
     22 C           0.8830   -2.4040    0.0000 C.3     1  LIG1        0.2086
     23 C           0.8830   -3.4080    0.0000 C.3     1  LIG1        0.0513
@<TRIPOS>BOND
     1     1     2   ar
     2     1     5   ar
     3     1     9   ar
     4     2     3   ar
     5     2    18    1
     6     3     4   ar
     7     3    17   ar
     8     4     5   ar
     9     4    14   ar
    10     5     6   ar
    11     6     7   ar
    12     7     8   ar
    13     7    13   ar
    14     8     9   ar
    15     8    10   ar
    16    10    11   ar
    17    11    12   ar
    18    12    13   ar
    19    14    15   ar
    20    15    16   ar
    21    16    17   ar
    22    18    19    1
    23    19    20    2
    24    19    21    1
    25    21    22    1
    26    22    23    1
