@<TRIPOS>MOLECULE
30394_ChemDiv_K937-0657
 26 28 0 0 0
SMALL
GASTEIGER
Energy = 0

@<TRIPOS>ATOM
      1 C           0.4210   -1.0000    0.0000 C.ar    1  LIG1        0.0728
      2 C           1.2880   -0.5000    0.0000 C.ar    1  LIG1        0.0875
      3 N           1.2880    0.5000    0.0000 N.ar    1  LIG1       -0.2730
      4 C           0.4210    1.0000    0.0000 C.ar    1  LIG1        0.2647
      5 C          -0.4380    0.5000    0.0000 C.ar    1  LIG1        0.0567
      6 C          -0.4380   -0.5000    0.0000 C.ar    1  LIG1        0.0105
      7 C          -1.3000   -1.0000    0.0000 C.ar    1  LIG1        0.0003
      8 C          -2.1670   -0.5000    0.0000 C.ar    1  LIG1        0.0000
      9 C          -2.1670    0.5000    0.0000 C.ar    1  LIG1        0.0002
     10 C          -1.3000    1.0000    0.0000 C.ar    1  LIG1        0.0047
     11 O           0.4210    2.0000    0.0000 O.2     1  LIG1       -0.2666
     12 C           2.1540    1.0000    0.0000 C.ar    1  LIG1        0.0669
     13 C           2.1540    2.0000    0.0000 C.ar    1  LIG1        0.0185
     14 C           3.0250    2.5040    0.0000 C.ar    1  LIG1        0.0129
     15 C           3.8920    2.0000    0.0000 C.ar    1  LIG1        0.0578
     16 C           3.8920    1.0000    0.0000 C.ar    1  LIG1        0.0129
     17 C           3.0250    0.5000    0.0000 C.ar    1  LIG1        0.0185
     18 CL          4.7580    2.5080    0.0000 Cl      1  LIG1       -0.0822
     19 C           0.4210   -2.0040    0.0000 C.2     1  LIG1        0.2662
     20 O           1.2880   -2.5040    0.0000 O.2     1  LIG1       -0.2683
     21 N          -0.4380   -2.5040    0.0000 N.am    1  LIG1       -0.2015
     22 C          -1.3130   -2.0040    0.0000 C.3     1  LIG1        0.1181
     23 C          -2.1710   -2.5040    0.0000 C.3     1  LIG1        0.0555
     24 C          -3.0380   -2.0040    0.0000 C.3     1  LIG1        0.1441
     25 O          -3.9080   -2.5040    0.0000 O.3     1  LIG1       -0.3510
     26 C          -4.7630   -2.0040    0.0000 C.3     1  LIG1        0.1741
@<TRIPOS>BOND
     1     1     2   ar
     2     1     6   ar
     3     1    19    1
     4     2     3   ar
     5     3     4   ar
     6     3    12    1
     7     4     5   ar
     8     4    11    2
     9     5     6   ar
    10     5    10   ar
    11     6     7   ar
    12     7     8   ar
    13     8     9   ar
    14     9    10   ar
    15    12    13   ar
    16    12    17   ar
    17    13    14   ar
    18    14    15   ar
    19    15    16   ar
    20    15    18    1
    21    16    17   ar
    22    19    20    2
    23    19    21   am
    24    21    22    1
    25    22    23    1
    26    23    24    1
    27    24    25    1
    28    25    26    1
