@<TRIPOS>MOLECULE
30396_ChemDiv_K937-0680
 26 28 0 0 0
SMALL
GASTEIGER
Energy = 0

@<TRIPOS>ATOM
      1 C          -0.8790    0.5000    0.0000 C.ar    1  LIG1        0.0713
      2 C          -0.0080    1.0000    0.0000 C.ar    1  LIG1        0.0874
      3 N          -0.0080    2.0000    0.0000 N.ar    1  LIG1       -0.2730
      4 C          -0.8790    2.5000    0.0000 C.ar    1  LIG1        0.2647
      5 C          -1.7330    2.0000    0.0000 C.ar    1  LIG1        0.0567
      6 C          -1.7330    1.0000    0.0000 C.ar    1  LIG1        0.0104
      7 C          -2.5960    0.5000    0.0000 C.ar    1  LIG1        0.0003
      8 C          -3.4630    1.0000    0.0000 C.ar    1  LIG1        0.0000
      9 C          -3.4630    2.0000    0.0000 C.ar    1  LIG1        0.0002
     10 C          -2.5960    2.5000    0.0000 C.ar    1  LIG1        0.0047
     11 O          -0.8790    3.5040    0.0000 O.2     1  LIG1       -0.2666
     12 C           0.8580    2.5000    0.0000 C.ar    1  LIG1        0.0669
     13 C           0.8580    3.5040    0.0000 C.ar    1  LIG1        0.0185
     14 C           1.7250    4.0000    0.0000 C.ar    1  LIG1        0.0129
     15 C           2.5920    3.5040    0.0000 C.ar    1  LIG1        0.0578
     16 C           2.5920    2.5000    0.0000 C.ar    1  LIG1        0.0129
     17 C           1.7250    2.0000    0.0000 C.ar    1  LIG1        0.0185
     18 CL          3.4580    4.0040    0.0000 Cl      1  LIG1       -0.0822
     19 C          -0.8790   -0.5000    0.0000 C.2     1  LIG1        0.2505
     20 N          -1.7330   -1.0000    0.0000 N.am    1  LIG1       -0.2743
     21 C          -1.7330   -2.0040    0.0000 C.3     1  LIG1        0.0938
     22 C          -0.8790   -2.5040    0.0000 C.3     1  LIG1        0.0215
     23 C          -0.8790   -3.5040    0.0000 C.3     1  LIG1        0.0018
     24 C          -0.0080   -4.0040    0.0000 C.3     1  LIG1        0.0001
     25 C          -2.6130   -0.5000    0.0000 C.3     1  LIG1        0.1152
     26 O          -0.0080   -1.0000    0.0000 O.2     1  LIG1       -0.2699
@<TRIPOS>BOND
     1     1     2   ar
     2     1     6   ar
     3     1    19    1
     4     2     3   ar
     5     3     4   ar
     6     3    12    1
     7     4     5   ar
     8     4    11    2
     9     5     6   ar
    10     5    10   ar
    11     6     7   ar
    12     7     8   ar
    13     8     9   ar
    14     9    10   ar
    15    12    13   ar
    16    12    17   ar
    17    13    14   ar
    18    14    15   ar
    19    15    16   ar
    20    15    18    1
    21    16    17   ar
    22    19    20   am
    23    19    26    2
    24    20    21    1
    25    20    25    1
    26    21    22    1
    27    22    23    1
    28    23    24    1
