@<TRIPOS>MOLECULE
30398_ChemDiv_K937-0796
 31 35 0 0 0
SMALL
GASTEIGER
Energy = 0

@<TRIPOS>ATOM
      1 C          -0.8790    1.0330    0.0000 C.ar    1  LIG1        0.0731
      2 C          -0.0080    1.5420    0.0000 C.ar    1  LIG1        0.0875
      3 N          -0.0080    2.5330    0.0000 N.ar    1  LIG1       -0.2730
      4 C          -0.8790    3.0330    0.0000 C.ar    1  LIG1        0.2647
      5 C          -1.7420    2.5330    0.0000 C.ar    1  LIG1        0.0567
      6 C          -1.7420    1.5420    0.0000 C.ar    1  LIG1        0.0105
      7 C          -2.6040    1.0330    0.0000 C.ar    1  LIG1        0.0003
      8 C          -3.4670    1.5420    0.0000 C.ar    1  LIG1        0.0000
      9 C          -3.4670    2.5330    0.0000 C.ar    1  LIG1        0.0002
     10 C          -2.6040    3.0330    0.0000 C.ar    1  LIG1        0.0047
     11 O          -0.8790    4.0250    0.0000 O.2     1  LIG1       -0.2666
     12 C           0.8630    3.0330    0.0000 C.ar    1  LIG1        0.0665
     13 C           1.7250    2.5330    0.0000 C.ar    1  LIG1        0.0130
     14 C           2.5880    3.0330    0.0000 C.ar    1  LIG1       -0.0243
     15 C           2.5880    4.0370    0.0000 C.ar    1  LIG1       -0.0257
     16 C           1.7250    4.5380    0.0000 C.ar    1  LIG1       -0.0031
     17 C           0.8630    4.0370    0.0000 C.ar    1  LIG1        0.0173
     18 C           3.4630    4.5420    0.0000 C.3     1  LIG1        0.0307
     19 C           3.4630    2.5290    0.0000 C.3     1  LIG1        0.0307
     20 C          -0.8790    0.0330    0.0000 C.2     1  LIG1        0.2704
     21 N          -1.7420   -0.4630    0.0000 N.am    1  LIG1       -0.1753
     22 C          -1.7420   -1.4670    0.0000 C.ar    1  LIG1        0.0769
     23 C          -2.6040   -1.9670    0.0000 C.ar    1  LIG1        0.0568
     24 C          -2.6040   -2.9670    0.0000 C.ar    1  LIG1        0.1777
     25 C          -1.7420   -3.4670    0.0000 C.ar    1  LIG1        0.1765
     26 O          -1.9540   -4.4500    0.0000 O.3     1  LIG1       -0.4346
     27 C          -2.9540   -4.5420    0.0000 C.3     1  LIG1        0.4294
     28 O          -3.3500   -3.6500    0.0000 O.3     1  LIG1       -0.4346
     29 C          -0.8790   -2.9670    0.0000 C.ar    1  LIG1        0.0415
     30 C          -0.8790   -1.9670    0.0000 C.ar    1  LIG1        0.0199
     31 O          -0.0080   -0.4630    0.0000 O.2     1  LIG1       -0.2680
@<TRIPOS>BOND
     1     1     2   ar
     2     1     6   ar
     3     1    20    1
     4     2     3   ar
     5     3     4   ar
     6     3    12    1
     7     4     5   ar
     8     4    11    2
     9     5     6   ar
    10     5    10   ar
    11     6     7   ar
    12     7     8   ar
    13     8     9   ar
    14     9    10   ar
    15    12    13   ar
    16    12    17   ar
    17    13    14   ar
    18    14    15   ar
    19    14    19    1
    20    15    16   ar
    21    15    18    1
    22    16    17   ar
    23    20    21   am
    24    20    31    2
    25    21    22    1
    26    22    23   ar
    27    22    30   ar
    28    23    24   ar
    29    24    25   ar
    30    24    28    1
    31    25    26    1
    32    25    29   ar
    33    26    27    1
    34    27    28    1
    35    29    30   ar
