@<TRIPOS>MOLECULE
30392_ChemDiv_K937-0648
 31 34 0 0 0
SMALL
GASTEIGER
Energy = 0

@<TRIPOS>ATOM
      1 C          -0.4500    0.5040    0.0000 C.ar    1  LIG1        0.0731
      2 C           0.4210    1.0040    0.0000 C.ar    1  LIG1        0.0875
      3 N           0.4210    2.0040    0.0000 N.ar    1  LIG1       -0.2730
      4 C          -0.4500    2.5000    0.0000 C.ar    1  LIG1        0.2647
      5 C          -1.3130    2.0040    0.0000 C.ar    1  LIG1        0.0567
      6 C          -1.3130    1.0040    0.0000 C.ar    1  LIG1        0.0105
      7 C          -2.1750    0.5040    0.0000 C.ar    1  LIG1        0.0003
      8 C          -3.0380    1.0040    0.0000 C.ar    1  LIG1        0.0000
      9 C          -3.0380    2.0040    0.0000 C.ar    1  LIG1        0.0002
     10 C          -2.1750    2.5000    0.0000 C.ar    1  LIG1        0.0047
     11 O          -0.4500    3.5000    0.0000 O.2     1  LIG1       -0.2666
     12 C           1.2880    2.5000    0.0000 C.ar    1  LIG1        0.0669
     13 C           1.2880    3.5000    0.0000 C.ar    1  LIG1        0.0185
     14 C           2.1500    4.0000    0.0000 C.ar    1  LIG1        0.0129
     15 C           3.0210    3.5000    0.0000 C.ar    1  LIG1        0.0578
     16 C           3.0210    2.5000    0.0000 C.ar    1  LIG1        0.0129
     17 C           2.1500    2.0040    0.0000 C.ar    1  LIG1        0.0185
     18 CL          3.9000    4.0000    0.0000 Cl      1  LIG1       -0.0822
     19 C          -0.4500   -0.4920    0.0000 C.2     1  LIG1        0.2704
     20 N          -1.3130   -0.9920    0.0000 N.am    1  LIG1       -0.1752
     21 C          -1.3130   -2.0000    0.0000 C.ar    1  LIG1        0.0799
     22 C          -2.1750   -2.4960    0.0000 C.ar    1  LIG1        0.0909
     23 C          -3.0420   -1.9880    0.0000 C.2     1  LIG1        0.3426
     24 O          -3.0380   -0.9880    0.0000 O.2     1  LIG1       -0.2448
     25 O          -3.9040   -2.4880    0.0000 O.3     1  LIG1       -0.4413
     26 C          -3.9040   -3.4880    0.0000 C.3     1  LIG1        0.2560
     27 C          -2.1750   -3.5000    0.0000 C.ar    1  LIG1        0.0078
     28 C          -1.3130   -4.0000    0.0000 C.ar    1  LIG1        0.0003
     29 C          -0.4420   -3.5000    0.0000 C.ar    1  LIG1        0.0013
     30 C          -0.4420   -2.4960    0.0000 C.ar    1  LIG1        0.0168
     31 O           0.4210   -0.9920    0.0000 O.2     1  LIG1       -0.2680
@<TRIPOS>BOND
     1     1     2   ar
     2     1     6   ar
     3     1    19    1
     4     2     3   ar
     5     3     4   ar
     6     3    12    1
     7     4     5   ar
     8     4    11    2
     9     5     6   ar
    10     5    10   ar
    11     6     7   ar
    12     7     8   ar
    13     8     9   ar
    14     9    10   ar
    15    12    13   ar
    16    12    17   ar
    17    13    14   ar
    18    14    15   ar
    19    15    16   ar
    20    15    18    1
    21    16    17   ar
    22    19    20   am
    23    19    31    2
    24    20    21    1
    25    21    22   ar
    26    21    30   ar
    27    22    23    1
    28    22    27   ar
    29    23    24    2
    30    23    25    1
    31    25    26    1
    32    27    28   ar
    33    28    29   ar
    34    29    30   ar
