@<TRIPOS>MOLECULE
30395_ChemDiv_5574-0028
 23 26 0 0 0
SMALL
GASTEIGER
Energy = 0

@<TRIPOS>ATOM
      1 C           0.1290    0.4330    0.0000 C.ar    1  LIG1        0.1620
      2 N          -0.6710   -0.1670    0.0000 N.ar    1  LIG1       -0.3013
      3 C          -1.4670    0.4330    0.0000 C.ar    1  LIG1        0.0631
      4 C          -1.1710    1.3670    0.0000 C.ar    1  LIG1        0.0373
      5 C          -0.1710    1.3670    0.0000 C.ar    1  LIG1        0.1167
      6 N           0.4960    2.1000    0.0000 N.ar    1  LIG1       -0.2408
      7 C           1.4960    1.9000    0.0000 C.ar    1  LIG1        0.0990
      8 C           1.7960    0.9630    0.0000 C.ar    1  LIG1        0.1005
      9 N           1.1290    0.2330    0.0000 N.ar    1  LIG1       -0.2252
     10 C           2.7960    0.7670    0.0000 C.ar    1  LIG1        0.0207
     11 C           3.4670    1.5000    0.0000 C.ar    1  LIG1        0.0016
     12 C           3.1630    2.4330    0.0000 C.ar    1  LIG1        0.0016
     13 C           2.1630    2.6330    0.0000 C.ar    1  LIG1        0.0206
     14 C          -1.8420    2.1330    0.0000 C.ar    1  LIG1        0.0144
     15 C          -2.8040    1.9000    0.0000 C.ar    1  LIG1        0.0578
     16 C          -3.1380    0.9630    0.0000 C.ar    1  LIG1        0.0129
     17 C          -2.4710    0.2330    0.0000 C.ar    1  LIG1        0.0182
     18 CL         -3.4710    2.6710    0.0000 Cl      1  LIG1       -0.0822
     19 C          -0.6710   -1.1670    0.0000 C.3     1  LIG1        0.2177
     20 C          -1.5380   -1.6670    0.0000 C.2     1  LIG1        0.3405
     21 O          -1.5380   -2.6670    0.0000 O.2     1  LIG1       -0.2479
     22 O          -2.4040   -1.1670    0.0000 O.3     1  LIG1       -0.4431
     23 C          -3.2710   -1.6670    0.0000 C.3     1  LIG1        0.2557
@<TRIPOS>BOND
     1     1     2   ar
     2     1     5   ar
     3     1     9   ar
     4     2     3   ar
     5     2    19    1
     6     3     4   ar
     7     3    17   ar
     8     4     5   ar
     9     4    14   ar
    10     5     6   ar
    11     6     7   ar
    12     7     8   ar
    13     7    13   ar
    14     8     9   ar
    15     8    10   ar
    16    10    11   ar
    17    11    12   ar
    18    12    13   ar
    19    14    15   ar
    20    15    16   ar
    21    15    18    1
    22    16    17   ar
    23    19    20    1
    24    20    21    2
    25    20    22    1
    26    22    23    1
