@<TRIPOS>MOLECULE
30397_ChemDiv_5575-0071
 22 25 0 0 0
SMALL
GASTEIGER
Energy = 0

@<TRIPOS>ATOM
      1 C           0.1790    0.4330    0.0000 C.ar    1  LIG1        0.1619
      2 N          -0.6170   -0.1670    0.0000 N.ar    1  LIG1       -0.3061
      3 C          -1.4210    0.4000    0.0000 C.ar    1  LIG1        0.0630
      4 C          -1.1500    1.3670    0.0000 C.ar    1  LIG1        0.0373
      5 C          -0.1500    1.3670    0.0000 C.ar    1  LIG1        0.1167
      6 N           0.5460    2.1000    0.0000 N.ar    1  LIG1       -0.2408
      7 C           1.5170    1.9330    0.0000 C.ar    1  LIG1        0.0990
      8 C           1.8500    1.0000    0.0000 C.ar    1  LIG1        0.1005
      9 N           1.1790    0.2330    0.0000 N.ar    1  LIG1       -0.2252
     10 C           2.8170    0.7960    0.0000 C.ar    1  LIG1        0.0207
     11 C           3.4830    1.5380    0.0000 C.ar    1  LIG1        0.0016
     12 C           3.1460    2.5000    0.0000 C.ar    1  LIG1        0.0016
     13 C           2.1790    2.6710    0.0000 C.ar    1  LIG1        0.0206
     14 C          -1.8210    2.1000    0.0000 C.ar    1  LIG1        0.0144
     15 C          -2.7880    1.8670    0.0000 C.ar    1  LIG1        0.0578
     16 C          -3.0920    0.9000    0.0000 C.ar    1  LIG1        0.0129
     17 C          -2.3880    0.1710    0.0000 C.ar    1  LIG1        0.0181
     18 CL         -3.4880    2.6000    0.0000 Cl      1  LIG1       -0.0822
     19 C          -0.6170   -1.1670    0.0000 C.3     1  LIG1        0.1491
     20 C          -1.4830   -1.6670    0.0000 C.2     1  LIG1        0.0732
     21 O          -1.4830   -2.6670    0.0000 O.co2   1  LIG1       -0.5472
     22 O          -2.3580   -1.1670    0.0000 O.co2   1  LIG1       -0.5472
@<TRIPOS>BOND
     1     1     2   ar
     2     1     5   ar
     3     1     9   ar
     4     2     3   ar
     5     2    19    1
     6     3     4   ar
     7     3    17   ar
     8     4     5   ar
     9     4    14   ar
    10     5     6   ar
    11     6     7   ar
    12     7     8   ar
    13     7    13   ar
    14     8     9   ar
    15     8    10   ar
    16    10    11   ar
    17    11    12   ar
    18    12    13   ar
    19    14    15   ar
    20    15    16   ar
    21    15    18    1
    22    16    17   ar
    23    19    20    1
    24    20    21   ar
    25    20    22   ar
