@<TRIPOS>MOLECULE
30391_ChemDiv_5267-0920
 22 25 0 0 0
SMALL
GASTEIGER
Energy = 0

@<TRIPOS>ATOM
      1 C          -0.1040    0.7040    0.0000 C.ar    1  LIG1        0.1620
      2 N          -0.9420    0.2000    0.0000 N.ar    1  LIG1       -0.3013
      3 C          -1.7130    0.8330    0.0000 C.ar    1  LIG1        0.0631
      4 C          -1.3130    1.7710    0.0000 C.ar    1  LIG1        0.0364
      5 C          -0.3040    1.6710    0.0000 C.ar    1  LIG1        0.1167
      6 N           0.3920    2.3460    0.0000 N.ar    1  LIG1       -0.2408
      7 C           1.3670    2.0750    0.0000 C.ar    1  LIG1        0.0990
      8 C           1.6000    1.1040    0.0000 C.ar    1  LIG1        0.1005
      9 N           0.8670    0.4000    0.0000 N.ar    1  LIG1       -0.2252
     10 C           2.5420    0.8000    0.0000 C.ar    1  LIG1        0.0207
     11 C           3.3130    1.4750    0.0000 C.ar    1  LIG1        0.0016
     12 C           3.0750    2.4420    0.0000 C.ar    1  LIG1        0.0016
     13 C           2.1040    2.7460    0.0000 C.ar    1  LIG1        0.0206
     14 C          -1.9130    2.5750    0.0000 C.ar    1  LIG1        0.0030
     15 C          -2.9210    2.4420    0.0000 C.ar    1  LIG1        0.0001
     16 C          -3.3170    1.5420    0.0000 C.ar    1  LIG1        0.0015
     17 C          -2.7170    0.7380    0.0000 C.ar    1  LIG1        0.0173
     18 C          -1.0420   -0.7750    0.0000 C.3     1  LIG1        0.2177
     19 C          -0.1750   -1.2710    0.0000 C.2     1  LIG1        0.3405
     20 O           0.6960   -0.7750    0.0000 O.2     1  LIG1       -0.2479
     21 O          -0.1750   -2.2420    0.0000 O.3     1  LIG1       -0.4431
     22 C           0.6960   -2.7420    0.0000 C.3     1  LIG1        0.2557
@<TRIPOS>BOND
     1     1     2   ar
     2     1     5   ar
     3     1     9   ar
     4     2     3   ar
     5     2    18    1
     6     3     4   ar
     7     3    17   ar
     8     4     5   ar
     9     4    14   ar
    10     5     6   ar
    11     6     7   ar
    12     7     8   ar
    13     7    13   ar
    14     8     9   ar
    15     8    10   ar
    16    10    11   ar
    17    11    12   ar
    18    12    13   ar
    19    14    15   ar
    20    15    16   ar
    21    16    17   ar
    22    18    19    1
    23    19    20    2
    24    19    21    1
    25    21    22    1
