@<TRIPOS>MOLECULE
30399_ChemDiv_6153-0036
 21 24 0 0 0
SMALL
GASTEIGER
Energy = 0

@<TRIPOS>ATOM
      1 C           0.2460    0.3000    0.0000 C.ar    1  LIG1        0.1619
      2 N          -0.3250   -0.5330    0.0000 N.ar    1  LIG1       -0.3061
      3 C          -1.2460   -0.2380    0.0000 C.ar    1  LIG1        0.0629
      4 C          -1.2540    0.8080    0.0000 C.ar    1  LIG1        0.0364
      5 C          -0.3290    1.1380    0.0000 C.ar    1  LIG1        0.1167
      6 N           0.0580    2.0790    0.0000 N.ar    1  LIG1       -0.2408
      7 C           1.0170    2.1920    0.0000 C.ar    1  LIG1        0.0990
      8 C           1.5880    1.3580    0.0000 C.ar    1  LIG1        0.1005
      9 N           1.2000    0.4080    0.0000 N.ar    1  LIG1       -0.2252
     10 C           2.5460    1.4670    0.0000 C.ar    1  LIG1        0.0207
     11 C           2.9330    2.4130    0.0000 C.ar    1  LIG1        0.0016
     12 C           2.3580    3.2380    0.0000 C.ar    1  LIG1        0.0016
     13 C           1.4040    3.1290    0.0000 C.ar    1  LIG1        0.0206
     14 C          -2.0960    1.3250    0.0000 C.ar    1  LIG1        0.0030
     15 C          -2.9380    0.8040    0.0000 C.ar    1  LIG1        0.0001
     16 C          -2.9380   -0.2380    0.0000 C.ar    1  LIG1        0.0015
     17 C          -2.0920   -0.7500    0.0000 C.ar    1  LIG1        0.0173
     18 C          -0.0130   -1.5210    0.0000 C.3     1  LIG1        0.1491
     19 C          -0.6580   -2.2920    0.0000 C.2     1  LIG1        0.0732
     20 O          -1.6380   -2.1250    0.0000 O.co2   1  LIG1       -0.5472
     21 O          -0.3080   -3.2330    0.0000 O.co2   1  LIG1       -0.5472
@<TRIPOS>BOND
     1     1     2   ar
     2     1     5   ar
     3     1     9   ar
     4     2     3   ar
     5     2    18    1
     6     3     4   ar
     7     3    17   ar
     8     4     5   ar
     9     4    14   ar
    10     5     6   ar
    11     6     7   ar
    12     7     8   ar
    13     7    13   ar
    14     8     9   ar
    15     8    10   ar
    16    10    11   ar
    17    11    12   ar
    18    12    13   ar
    19    14    15   ar
    20    15    16   ar
    21    16    17   ar
    22    18    19    1
    23    19    20   ar
    24    19    21   ar
