@<TRIPOS>MOLECULE
30393_ChemDiv_5305-0030
 23 26 0 0 0
SMALL
GASTEIGER
Energy = 0

@<TRIPOS>ATOM
      1 C           0.0130    0.6670    0.0000 C.ar    1  LIG1        0.1620
      2 N          -0.8210    0.1710    0.0000 N.ar    1  LIG1       -0.3013
      3 C          -1.6000    0.8040    0.0000 C.ar    1  LIG1        0.0631
      4 C          -1.2000    1.7380    0.0000 C.ar    1  LIG1        0.0369
      5 C          -0.1920    1.6380    0.0000 C.ar    1  LIG1        0.1167
      6 N           0.5170    2.3040    0.0000 N.ar    1  LIG1       -0.2408
      7 C           1.4880    2.0420    0.0000 C.ar    1  LIG1        0.0990
      8 C           1.7130    1.0710    0.0000 C.ar    1  LIG1        0.1005
      9 N           0.9830    0.3630    0.0000 N.ar    1  LIG1       -0.2252
     10 C           2.6580    0.7670    0.0000 C.ar    1  LIG1        0.0207
     11 C           3.4290    1.4330    0.0000 C.ar    1  LIG1        0.0016
     12 C           3.1880    2.4040    0.0000 C.ar    1  LIG1        0.0016
     13 C           2.2170    2.6790    0.0000 C.ar    1  LIG1        0.0206
     14 C          -1.7920    2.5460    0.0000 C.ar    1  LIG1        0.0097
     15 C          -2.8000    2.4040    0.0000 C.ar    1  LIG1        0.0347
     16 C          -3.1710    1.5040    0.0000 C.ar    1  LIG1        0.0082
     17 C          -2.6040    0.7000    0.0000 C.ar    1  LIG1        0.0178
     18 BR         -3.4330    3.2130    0.0000 Br      1  LIG1       -0.0490
     19 C          -0.9250   -0.8380    0.0000 C.3     1  LIG1        0.2177
     20 C          -0.1920   -1.5420    0.0000 C.2     1  LIG1        0.3405
     21 O           0.7420   -1.2710    0.0000 O.2     1  LIG1       -0.2479
     22 O          -0.4580   -2.5130    0.0000 O.3     1  LIG1       -0.4431
     23 C           0.2380   -3.2080    0.0000 C.3     1  LIG1        0.2557
@<TRIPOS>BOND
     1     1     2   ar
     2     1     5   ar
     3     1     9   ar
     4     2     3   ar
     5     2    19    1
     6     3     4   ar
     7     3    17   ar
     8     4     5   ar
     9     4    14   ar
    10     5     6   ar
    11     6     7   ar
    12     7     8   ar
    13     7    13   ar
    14     8     9   ar
    15     8    10   ar
    16    10    11   ar
    17    11    12   ar
    18    12    13   ar
    19    14    15   ar
    20    15    16   ar
    21    15    18    1
    22    16    17   ar
    23    19    20    1
    24    20    21    2
    25    20    22    1
    26    22    23    1
