@<TRIPOS>MOLECULE
30402_ChemDiv_K783-4199
 23 24 0 0 0
SMALL
GASTEIGER
Energy = 0

@<TRIPOS>ATOM
      1 C          -1.7330    1.5000    0.0000 C.ar    1  LIG1        0.0820
      2 C          -0.8670    1.0000    0.0000 C.2     1  LIG1        0.2713
      3 N           0.0000    1.5000    0.0000 N.am    1  LIG1       -0.1754
      4 C           0.8630    1.0000    0.0000 C.ar    1  LIG1        0.0737
      5 C           1.7170    1.5000    0.0000 C.ar    1  LIG1        0.0168
      6 C           2.5830    1.0040    0.0000 C.ar    1  LIG1        0.0078
      7 C           2.5830    0.0000    0.0000 C.ar    1  LIG1        0.0757
      8 C           3.4580   -0.5000    0.0000 C.2     1  LIG1        0.3412
      9 O           4.3210    0.0000    0.0000 O.2     1  LIG1       -0.2449
     10 O           3.4580   -1.5040    0.0000 O.3     1  LIG1       -0.4454
     11 C           2.5830   -2.0040    0.0000 C.3     1  LIG1        0.2089
     12 C           2.5830   -3.0040    0.0000 C.3     1  LIG1        0.0513
     13 C           1.7170   -0.4960    0.0000 C.ar    1  LIG1        0.0078
     14 C           0.8540    0.0040    0.0000 C.ar    1  LIG1        0.0168
     15 O          -0.8750    0.0000    0.0000 O.2     1  LIG1       -0.2679
     16 C          -1.7330    2.5040    0.0000 C.ar    1  LIG1        0.1307
     17 O          -2.5960    3.0080    0.0000 O.2     1  LIG1       -0.4253
     18 C          -3.4540    2.5040    0.0000 C.ar    1  LIG1        0.3453
     19 C          -3.4540    1.5000    0.0000 C.ar    1  LIG1        0.0782
     20 C          -2.5960    1.0040    0.0000 C.ar    1  LIG1       -0.0083
     21 C          -2.5960    0.0040    0.0000 C.3     1  LIG1        0.0315
     22 O          -4.3250    3.0040    0.0000 O.2     1  LIG1       -0.2445
     23 C          -0.8630    3.0040    0.0000 C.3     1  LIG1        0.0727
@<TRIPOS>BOND
     1     1     2    1
     2     1    16   ar
     3     1    20   ar
     4     2     3   am
     5     2    15    2
     6     3     4    1
     7     4     5   ar
     8     4    14   ar
     9     5     6   ar
    10     6     7   ar
    11     7     8    1
    12     7    13   ar
    13     8     9    2
    14     8    10    1
    15    10    11    1
    16    11    12    1
    17    13    14   ar
    18    16    17   ar
    19    16    23    1
    20    17    18   ar
    21    18    19   ar
    22    18    22    2
    23    19    20   ar
    24    20    21    1
