@<TRIPOS>MOLECULE
30408_ChemDiv_K784-7278
 20 21 0 0 0
SMALL
GASTEIGER
Energy = 0

@<TRIPOS>ATOM
      1 C           0.6170   -1.4670    0.0000 C.ar    1  LIG1        0.0817
      2 C          -0.2580   -0.9670    0.0000 C.2     1  LIG1        0.2671
      3 N          -0.2580    0.0250    0.0000 N.am    1  LIG1       -0.2034
      4 C          -0.9670    0.7330    0.0000 C.3     1  LIG1        0.0956
      5 C          -1.9000    0.3540    0.0000 C.3     1  LIG1        0.0217
      6 C          -2.8210    0.7380    0.0000 C.3     1  LIG1        0.0018
      7 C          -3.2080    1.6670    0.0000 C.3     1  LIG1        0.0001
      8 C          -2.8290    2.5880    0.0000 C.3     1  LIG1        0.0000
      9 C          -1.9000    2.9750    0.0000 C.3     1  LIG1        0.0001
     10 C          -0.9790    2.5960    0.0000 C.3     1  LIG1        0.0018
     11 C          -0.5880    1.6670    0.0000 C.3     1  LIG1        0.0217
     12 O          -1.1210   -1.4670    0.0000 O.2     1  LIG1       -0.2683
     13 C           0.6170   -2.4750    0.0000 C.ar    1  LIG1        0.1307
     14 O           1.4710   -2.9670    0.0000 O.2     1  LIG1       -0.4253
     15 C           2.3290   -2.4750    0.0000 C.ar    1  LIG1        0.3453
     16 C           2.3290   -1.4670    0.0000 C.ar    1  LIG1        0.0782
     17 C           1.4710   -0.9670    0.0000 C.ar    1  LIG1       -0.0083
     18 C           1.4710    0.0290    0.0000 C.3     1  LIG1        0.0315
     19 O           3.2040   -2.9710    0.0000 O.2     1  LIG1       -0.2445
     20 C          -0.2580   -2.9710    0.0000 C.3     1  LIG1        0.0727
@<TRIPOS>BOND
     1     1     2    1
     2     1    13   ar
     3     1    17   ar
     4     2     3   am
     5     2    12    2
     6     3     4    1
     7     4     5    1
     8     4    11    1
     9     5     6    1
    10     6     7    1
    11     7     8    1
    12     8     9    1
    13     9    10    1
    14    10    11    1
    15    13    14   ar
    16    13    20    1
    17    14    15   ar
    18    15    16   ar
    19    15    19    2
    20    16    17   ar
    21    17    18    1
