@<TRIPOS>MOLECULE
30400_ChemDiv_K937-0816
 27 30 0 0 0
SMALL
GASTEIGER
Energy = 0

@<TRIPOS>ATOM
      1 C          -0.8750   -0.2580    0.0000 C.ar    1  LIG1        0.0713
      2 C          -0.0080    0.2460    0.0000 C.ar    1  LIG1        0.0874
      3 N          -0.0080    1.2460    0.0000 N.ar    1  LIG1       -0.2730
      4 C          -0.8750    1.7460    0.0000 C.ar    1  LIG1        0.2647
      5 C          -1.7420    1.2460    0.0000 C.ar    1  LIG1        0.0567
      6 C          -1.7420    0.2460    0.0000 C.ar    1  LIG1        0.0104
      7 C          -2.6130   -0.2580    0.0000 C.ar    1  LIG1        0.0003
      8 C          -3.4670    0.2460    0.0000 C.ar    1  LIG1        0.0000
      9 C          -3.4670    1.2460    0.0000 C.ar    1  LIG1        0.0002
     10 C          -2.6130    1.7460    0.0000 C.ar    1  LIG1        0.0047
     11 O          -0.8750    2.7460    0.0000 O.2     1  LIG1       -0.2666
     12 C           0.8580    1.7460    0.0000 C.ar    1  LIG1        0.0665
     13 C           1.7210    1.2460    0.0000 C.ar    1  LIG1        0.0130
     14 C           2.5920    1.7460    0.0000 C.ar    1  LIG1       -0.0243
     15 C           2.5920    2.7460    0.0000 C.ar    1  LIG1       -0.0257
     16 C           1.7210    3.2500    0.0000 C.ar    1  LIG1       -0.0031
     17 C           0.8580    2.7460    0.0000 C.ar    1  LIG1        0.0173
     18 C           3.4630    3.2540    0.0000 C.3     1  LIG1        0.0307
     19 C           3.4630    1.2330    0.0000 C.3     1  LIG1        0.0307
     20 C          -0.8750   -1.2580    0.0000 C.2     1  LIG1        0.2505
     21 N          -1.7420   -1.7580    0.0000 N.am    1  LIG1       -0.2760
     22 C          -1.7420   -2.7500    0.0000 C.3     1  LIG1        0.0937
     23 C          -2.6130   -3.2500    0.0000 C.3     1  LIG1        0.0216
     24 C          -3.4670   -2.7500    0.0000 C.3     1  LIG1        0.0035
     25 C          -3.4670   -1.7580    0.0000 C.3     1  LIG1        0.0216
     26 C          -2.6130   -1.2580    0.0000 C.3     1  LIG1        0.0937
     27 O          -0.0080   -1.7580    0.0000 O.2     1  LIG1       -0.2699
@<TRIPOS>BOND
     1     1     2   ar
     2     1     6   ar
     3     1    20    1
     4     2     3   ar
     5     3     4   ar
     6     3    12    1
     7     4     5   ar
     8     4    11    2
     9     5     6   ar
    10     5    10   ar
    11     6     7   ar
    12     7     8   ar
    13     8     9   ar
    14     9    10   ar
    15    12    13   ar
    16    12    17   ar
    17    13    14   ar
    18    14    15   ar
    19    14    19    1
    20    15    16   ar
    21    15    18    1
    22    16    17   ar
    23    20    21   am
    24    20    27    2
    25    21    22    1
    26    21    26    1
    27    22    23    1
    28    23    24    1
    29    24    25    1
    30    25    26    1
