@<TRIPOS>MOLECULE
30406_ChemDiv_K784-7273
 21 22 0 0 0
SMALL
GASTEIGER
Energy = 0

@<TRIPOS>ATOM
      1 C           1.7330   -0.2540    0.0000 C.ar    1  LIG1        0.0817
      2 C           1.7330   -1.2540    0.0000 C.ar    1  LIG1        0.1307
      3 O           2.6000   -1.7460    0.0000 O.2     1  LIG1       -0.4253
      4 C           3.4630   -1.2540    0.0000 C.ar    1  LIG1        0.3453
      5 C           3.4630   -0.2540    0.0000 C.ar    1  LIG1        0.0782
      6 C           2.6000    0.2580    0.0000 C.ar    1  LIG1       -0.0083
      7 C           2.6000    1.2580    0.0000 C.3     1  LIG1        0.0315
      8 O           4.3290   -1.7540    0.0000 O.2     1  LIG1       -0.2445
      9 C           0.8710   -1.7540    0.0000 C.3     1  LIG1        0.0727
     10 C           0.8710    0.2460    0.0000 C.2     1  LIG1        0.2671
     11 O           0.0000   -0.2540    0.0000 O.2     1  LIG1       -0.2683
     12 N           0.8670    1.2500    0.0000 N.am    1  LIG1       -0.2014
     13 C           0.0000    1.7500    0.0000 C.3     1  LIG1        0.1216
     14 C          -0.8630    1.2500    0.0000 C.3     1  LIG1        0.0861
     15 C          -1.7290    1.7500    0.0000 C.3     1  LIG1        0.1407
     16 N          -2.5920    1.2500    0.0000 N.4     1  LIG1        0.3813
     17 C          -3.4670    1.7580    0.0000 C.3     1  LIG1        0.1713
     18 C          -4.3210    1.2580    0.0000 C.3     1  LIG1        0.2047
     19 O          -4.3330    0.2580    0.0000 O.3     1  LIG1       -0.3411
     20 C          -3.4670   -0.2420    0.0000 C.3     1  LIG1        0.2047
     21 C          -2.5920    0.2580    0.0000 C.3     1  LIG1        0.1713
@<TRIPOS>BOND
     1     1     2   ar
     2     1     6   ar
     3     1    10    1
     4     2     3   ar
     5     2     9    1
     6     3     4   ar
     7     4     5   ar
     8     4     8    2
     9     5     6   ar
    10     6     7    1
    11    10    11    2
    12    10    12   am
    13    12    13    1
    14    13    14    1
    15    14    15    1
    16    15    16    1
    17    16    17    1
    18    16    21    1
    19    17    18    1
    20    18    19    1
    21    19    20    1
    22    20    21    1
