@<TRIPOS>MOLECULE
30404_ChemDiv_K784-7266
 23 25 0 0 0
SMALL
GASTEIGER
Energy = 0

@<TRIPOS>ATOM
      1 C           1.6290   -1.3000    0.0000 C.ar    1  LIG1        0.0817
      2 C           1.6290   -2.3000    0.0000 C.ar    1  LIG1        0.1307
      3 O           2.4790   -2.8040    0.0000 O.2     1  LIG1       -0.4253
      4 C           3.3580   -2.3000    0.0000 C.ar    1  LIG1        0.3453
      5 C           3.3580   -1.3000    0.0000 C.ar    1  LIG1        0.0782
      6 C           2.4790   -0.7960    0.0000 C.ar    1  LIG1       -0.0083
      7 C           2.4790    0.2080    0.0000 C.3     1  LIG1        0.0315
      8 O           4.2290   -2.8040    0.0000 O.2     1  LIG1       -0.2445
      9 C           0.7540   -2.8040    0.0000 C.3     1  LIG1        0.0727
     10 C           0.7540   -0.7960    0.0000 C.2     1  LIG1        0.2672
     11 N           0.7460    0.2080    0.0000 N.am    1  LIG1       -0.1976
     12 C           0.2460    1.0750    0.0000 C.3     1  LIG1        0.1627
     13 C          -0.7500    1.0750    0.0000 C.3     1  LIG1        0.2309
     14 O          -1.2500    1.9420    0.0000 O.3     1  LIG1       -0.4704
     15 C          -2.2500    1.9420    0.0000 C.ar    1  LIG1        0.1723
     16 C          -2.7500    1.0790    0.0000 C.ar    1  LIG1        0.1724
     17 O          -2.2500    0.2130    0.0000 O.3     1  LIG1       -0.4684
     18 C          -1.2460    0.2080    0.0000 C.3     1  LIG1        0.2505
     19 C          -3.7420    1.0790    0.0000 C.ar    1  LIG1        0.0400
     20 C          -4.2330    1.9420    0.0000 C.ar    1  LIG1        0.0033
     21 C          -3.7290    2.8080    0.0000 C.ar    1  LIG1        0.0033
     22 C          -2.7380    2.7960    0.0000 C.ar    1  LIG1        0.0400
     23 O          -0.1210   -1.3000    0.0000 O.2     1  LIG1       -0.2683
@<TRIPOS>BOND
     1     1     2   ar
     2     1     6   ar
     3     1    10    1
     4     2     3   ar
     5     2     9    1
     6     3     4   ar
     7     4     5   ar
     8     4     8    2
     9     5     6   ar
    10     6     7    1
    11    10    11   am
    12    10    23    2
    13    11    12    1
    14    12    13    1
    15    13    14    1
    16    13    18    1
    17    14    15    1
    18    15    16   ar
    19    15    22   ar
    20    16    17    1
    21    16    19   ar
    22    17    18    1
    23    19    20   ar
    24    20    21   ar
    25    21    22   ar
