@<TRIPOS>MOLECULE
30417_ChemDiv_6220-3665
 22 25 0 0 0
SMALL
GASTEIGER
Energy = 0

@<TRIPOS>ATOM
      1 C          -0.0080    1.1790    0.0000 C.ar    1  LIG1        0.1617
      2 C          -0.3040    2.1630    0.0000 C.ar    1  LIG1        0.1167
      3 N           0.3500    2.8750    0.0000 N.ar    1  LIG1       -0.2408
      4 C           1.3290    2.6960    0.0000 C.ar    1  LIG1        0.0990
      5 C           1.6580    1.7130    0.0000 C.ar    1  LIG1        0.1005
      6 N           0.9750    1.0000    0.0000 N.ar    1  LIG1       -0.2252
      7 C           2.6380    1.5380    0.0000 C.ar    1  LIG1        0.0207
      8 C           3.2920    2.2460    0.0000 C.ar    1  LIG1        0.0016
      9 C           2.9960    3.2290    0.0000 C.ar    1  LIG1        0.0016
     10 C           2.0170    3.4130    0.0000 C.ar    1  LIG1        0.0206
     11 C          -1.3080    2.1630    0.0000 C.ar    1  LIG1        0.0364
     12 C          -1.6670    1.2210    0.0000 C.ar    1  LIG1        0.0627
     13 N          -0.8380    0.5960    0.0000 N.ar    1  LIG1       -0.3089
     14 C          -0.8380   -0.3790    0.0000 C.3     1  LIG1        0.1395
     15 C           0.0210   -0.9130    0.0000 C.3     1  LIG1        0.1666
     16 O           0.0210   -1.8920    0.0000 O.3     1  LIG1       -0.3517
     17 C           0.8830   -2.4250    0.0000 C.3     1  LIG1        0.1423
     18 C           0.8540   -3.4080    0.0000 C.3     1  LIG1        0.0346
     19 C          -2.6460    1.0460    0.0000 C.ar    1  LIG1        0.0173
     20 C          -3.2960    1.8040    0.0000 C.ar    1  LIG1        0.0015
     21 C          -2.9420    2.7420    0.0000 C.ar    1  LIG1        0.0001
     22 C          -1.9670    2.9210    0.0000 C.ar    1  LIG1        0.0030
@<TRIPOS>BOND
     1     1     2   ar
     2     1     6   ar
     3     1    13   ar
     4     2     3   ar
     5     2    11   ar
     6     3     4   ar
     7     4     5   ar
     8     4    10   ar
     9     5     6   ar
    10     5     7   ar
    11     7     8   ar
    12     8     9   ar
    13     9    10   ar
    14    11    12   ar
    15    11    22   ar
    16    12    13   ar
    17    12    19   ar
    18    13    14    1
    19    14    15    1
    20    15    16    1
    21    16    17    1
    22    17    18    1
    23    19    20   ar
    24    20    21   ar
    25    21    22   ar
