@<TRIPOS>MOLECULE
30414_ChemDiv_K784-7284
 28 30 0 0 0
SMALL
GASTEIGER
Energy = 0

@<TRIPOS>ATOM
      1 C           3.4540   -1.7580    0.0000 C.ar    1  LIG1        0.0817
      2 C           3.4540   -2.7630    0.0000 C.ar    1  LIG1        0.1307
      3 O           4.3170   -3.2580    0.0000 O.2     1  LIG1       -0.4253
      4 C           5.1830   -2.7630    0.0000 C.ar    1  LIG1        0.3453
      5 C           5.1830   -1.7580    0.0000 C.ar    1  LIG1        0.0782
      6 C           4.3170   -1.2500    0.0000 C.ar    1  LIG1       -0.0083
      7 C           4.3170   -0.2460    0.0000 C.3     1  LIG1        0.0315
      8 O           6.0500   -3.2630    0.0000 O.2     1  LIG1       -0.2445
      9 C           2.5790   -3.2630    0.0000 C.3     1  LIG1        0.0727
     10 C           2.5790   -1.2500    0.0000 C.2     1  LIG1        0.2673
     11 O           1.7000   -1.7580    0.0000 O.2     1  LIG1       -0.2683
     12 N           2.5750   -0.2500    0.0000 N.am    1  LIG1       -0.1952
     13 C           1.7130    0.2500    0.0000 C.3     1  LIG1        0.1778
     14 C           0.8500   -0.2500    0.0000 C.3     1  LIG1        0.1626
     15 N          -0.0170    0.2500    0.0000 N.4     1  LIG1        0.3814
     16 C          -0.8790   -0.2460    0.0000 C.3     1  LIG1        0.1605
     17 C          -1.7420    0.2630    0.0000 C.3     1  LIG1        0.1544
     18 N          -1.7420    1.2630    0.0000 N.pl3   1  LIG1       -0.2972
     19 C          -2.6000    1.7630    0.0000 C.ar    1  LIG1        0.0483
     20 C          -2.6000    2.7630    0.0000 C.ar    1  LIG1        0.0176
     21 C          -3.4630    3.2630    0.0000 C.ar    1  LIG1        0.0382
     22 C          -4.3250    2.7710    0.0000 C.ar    1  LIG1        0.1388
     23 C          -4.3250    1.7630    0.0000 C.ar    1  LIG1        0.0382
     24 C          -3.4630    1.2630    0.0000 C.ar    1  LIG1        0.0176
     25 O          -5.1880    3.2670    0.0000 O.3     1  LIG1       -0.4714
     26 C          -6.0500    2.7790    0.0000 C.3     1  LIG1        0.2525
     27 C          -0.8750    1.7500    0.0000 C.3     1  LIG1        0.1544
     28 C          -0.0170    1.2500    0.0000 C.3     1  LIG1        0.1605
@<TRIPOS>BOND
     1     1     2   ar
     2     1     6   ar
     3     1    10    1
     4     2     3   ar
     5     2     9    1
     6     3     4   ar
     7     4     5   ar
     8     4     8    2
     9     5     6   ar
    10     6     7    1
    11    10    11    2
    12    10    12   am
    13    12    13    1
    14    13    14    1
    15    14    15    1
    16    15    16    1
    17    15    28    1
    18    16    17    1
    19    17    18    1
    20    18    19    1
    21    18    27    1
    22    19    20   ar
    23    19    24   ar
    24    20    21   ar
    25    21    22   ar
    26    22    23   ar
    27    22    25    1
    28    23    24   ar
    29    25    26    1
    30    27    28    1
