@<TRIPOS>MOLECULE
30412_ChemDiv_K784-7282
 18 19 0 0 0
SMALL
GASTEIGER
Energy = 0

@<TRIPOS>ATOM
      1 C          -0.0330   -1.5080    0.0000 C.ar    1  LIG1        0.0817
      2 C          -0.0330   -2.5170    0.0000 C.ar    1  LIG1        0.1307
      3 O           0.8290   -3.0040    0.0000 O.2     1  LIG1       -0.4253
      4 C           1.6920   -2.5170    0.0000 C.ar    1  LIG1        0.3453
      5 C           1.6920   -1.5080    0.0000 C.ar    1  LIG1        0.0782
      6 C           0.8290   -1.0040    0.0000 C.ar    1  LIG1       -0.0083
      7 C           0.8290    0.0040    0.0000 C.3     1  LIG1        0.0315
      8 O           2.5710   -3.0170    0.0000 O.2     1  LIG1       -0.2445
      9 C          -0.9080   -3.0170    0.0000 C.3     1  LIG1        0.0727
     10 C          -0.9080   -1.0080    0.0000 C.2     1  LIG1        0.2675
     11 N          -0.9080   -0.0040    0.0000 N.am    1  LIG1       -0.1933
     12 C          -1.7750    0.4920    0.0000 C.3     1  LIG1        0.1794
     13 C          -1.7710    1.4880    0.0000 C.ar    1  LIG1        0.1449
     14 O          -2.5750    2.0750    0.0000 O.2     1  LIG1       -0.4529
     15 C          -2.2710    3.0210    0.0000 C.ar    1  LIG1        0.1792
     16 C          -1.2710    3.0170    0.0000 C.ar    1  LIG1        0.0435
     17 C          -0.9710    2.0670    0.0000 C.ar    1  LIG1        0.0380
     18 O          -1.7750   -1.5080    0.0000 O.2     1  LIG1       -0.2683
@<TRIPOS>BOND
     1     1     2   ar
     2     1     6   ar
     3     1    10    1
     4     2     3   ar
     5     2     9    1
     6     3     4   ar
     7     4     5   ar
     8     4     8    2
     9     5     6   ar
    10     6     7    1
    11    10    11   am
    12    10    18    2
    13    11    12    1
    14    12    13    1
    15    13    14   ar
    16    13    17   ar
    17    14    15   ar
    18    15    16   ar
    19    16    17   ar
