@<TRIPOS>MOLECULE
30418_ChemDiv_3909-9273
 33 36 0 0 0
SMALL
GASTEIGER
Energy = 0

@<TRIPOS>ATOM
      1 C          -0.8710    1.2380    0.0000 C.ar    1  LIG1        0.1566
      2 N          -0.0040    1.7380    0.0000 N.ar    1  LIG1       -0.1579
      3 N          -0.0040    2.7380    0.0000 N.ar    1  LIG1       -0.1943
      4 C          -0.8710    3.2380    0.0000 C.ar    1  LIG1        0.2803
      5 C          -1.7330    2.7380    0.0000 C.ar    1  LIG1        0.0596
      6 C          -1.7330    1.7380    0.0000 C.ar    1  LIG1        0.0286
      7 C          -2.5960    1.2380    0.0000 C.ar    1  LIG1        0.0019
      8 C          -3.4710    1.7380    0.0000 C.ar    1  LIG1        0.0001
      9 C          -3.4710    2.7380    0.0000 C.ar    1  LIG1        0.0002
     10 C          -2.5960    3.2380    0.0000 C.ar    1  LIG1        0.0048
     11 O          -0.8710    4.2330    0.0000 O.2     1  LIG1       -0.2652
     12 C           0.8630    3.2380    0.0000 C.ar    1  LIG1        0.0860
     13 C           0.8630    4.2420    0.0000 C.ar    1  LIG1        0.0201
     14 C           1.7250    4.7420    0.0000 C.ar    1  LIG1        0.0129
     15 C           2.5960    4.2420    0.0000 C.ar    1  LIG1        0.0578
     16 C           2.5960    3.2380    0.0000 C.ar    1  LIG1        0.0129
     17 C           1.7250    2.7380    0.0000 C.ar    1  LIG1        0.0201
     18 CL          3.4670    4.7460    0.0000 Cl      1  LIG1       -0.0822
     19 C          -0.8710    0.2380    0.0000 C.2     1  LIG1        0.2884
     20 N          -1.7330   -0.2630    0.0000 N.am    1  LIG1       -0.1739
     21 C          -1.7290   -1.2580    0.0000 C.ar    1  LIG1        0.0800
     22 C          -2.5920   -1.7580    0.0000 C.ar    1  LIG1        0.0568
     23 C          -2.5920   -2.7580    0.0000 C.ar    1  LIG1        0.1767
     24 C          -1.7170   -3.2580    0.0000 C.ar    1  LIG1        0.2061
     25 C          -0.8500   -2.7500    0.0000 C.ar    1  LIG1        0.1767
     26 C          -0.8670   -1.7500    0.0000 C.ar    1  LIG1        0.0568
     27 O           0.0130   -3.2420    0.0000 O.3     1  LIG1       -0.4682
     28 C           0.8750   -2.7330    0.0000 C.3     1  LIG1        0.2526
     29 O          -1.7130   -4.2460    0.0000 O.3     1  LIG1       -0.4654
     30 C          -0.8500   -4.7460    0.0000 C.3     1  LIG1        0.2528
     31 O          -3.4540   -3.2580    0.0000 O.3     1  LIG1       -0.4682
     32 C          -3.4420   -4.2580    0.0000 C.3     1  LIG1        0.2526
     33 O          -0.0040   -0.2630    0.0000 O.2     1  LIG1       -0.2663
@<TRIPOS>BOND
     1     1     2   ar
     2     1     6   ar
     3     1    19    1
     4     2     3   ar
     5     3     4   ar
     6     3    12    1
     7     4     5   ar
     8     4    11    2
     9     5     6   ar
    10     5    10   ar
    11     6     7   ar
    12     7     8   ar
    13     8     9   ar
    14     9    10   ar
    15    12    13   ar
    16    12    17   ar
    17    13    14   ar
    18    14    15   ar
    19    15    16   ar
    20    15    18    1
    21    16    17   ar
    22    19    20   am
    23    19    33    2
    24    20    21    1
    25    21    22   ar
    26    21    26   ar
    27    22    23   ar
    28    23    24   ar
    29    23    31    1
    30    24    25   ar
    31    24    29    1
    32    25    26   ar
    33    25    27    1
    34    27    28    1
    35    29    30    1
    36    31    32    1
