@<TRIPOS>MOLECULE
30416_ChemDiv_K784-7330
 26 27 0 0 0
SMALL
GASTEIGER
Energy = 0

@<TRIPOS>ATOM
      1 C           2.5830   -0.2500    0.0000 C.ar    1  LIG1        0.0817
      2 C           2.5830   -1.2540    0.0000 C.ar    1  LIG1        0.1307
      3 O           3.4460   -1.7460    0.0000 O.2     1  LIG1       -0.4253
      4 C           4.3170   -1.2540    0.0000 C.ar    1  LIG1        0.3453
      5 C           4.3170   -0.2500    0.0000 C.ar    1  LIG1        0.0782
      6 C           3.4460    0.2580    0.0000 C.ar    1  LIG1       -0.0083
      7 C           3.4460    1.2630    0.0000 C.3     1  LIG1        0.0315
      8 O           5.1880   -1.7540    0.0000 O.2     1  LIG1       -0.2445
      9 C           1.7130   -1.7540    0.0000 C.3     1  LIG1        0.0727
     10 C           1.7130    0.2580    0.0000 C.2     1  LIG1        0.2671
     11 O           0.8330   -0.2500    0.0000 O.2     1  LIG1       -0.2683
     12 N           1.7080    1.2580    0.0000 N.am    1  LIG1       -0.2015
     13 C           0.8460    1.7580    0.0000 C.3     1  LIG1        0.1172
     14 C          -0.0170    1.2580    0.0000 C.3     1  LIG1        0.0448
     15 C          -0.8790    1.7460    0.0000 C.3     1  LIG1        0.0926
     16 N          -1.7420    1.2460    0.0000 N.pl3   1  LIG1       -0.3074
     17 C          -1.7420    0.2500    0.0000 C.ar    1  LIG1        0.0478
     18 C          -2.6130   -0.2420    0.0000 C.ar    1  LIG1        0.0145
     19 C          -2.6130   -1.2380    0.0000 C.ar    1  LIG1        0.0013
     20 C          -1.7420   -1.7380    0.0000 C.ar    1  LIG1        0.0001
     21 C          -0.8750   -1.2330    0.0000 C.ar    1  LIG1        0.0013
     22 C          -0.8790   -0.2420    0.0000 C.ar    1  LIG1        0.0145
     23 C          -2.6040    1.7420    0.0000 C.3     1  LIG1        0.0908
     24 C          -3.4670    1.2420    0.0000 C.3     1  LIG1        0.0214
     25 C          -4.3290    1.7420    0.0000 C.3     1  LIG1        0.0018
     26 C          -5.1920    1.2420    0.0000 C.3     1  LIG1        0.0001
@<TRIPOS>BOND
     1     1     2   ar
     2     1     6   ar
     3     1    10    1
     4     2     3   ar
     5     2     9    1
     6     3     4   ar
     7     4     5   ar
     8     4     8    2
     9     5     6   ar
    10     6     7    1
    11    10    11    2
    12    10    12   am
    13    12    13    1
    14    13    14    1
    15    14    15    1
    16    15    16    1
    17    16    17    1
    18    16    23    1
    19    17    18   ar
    20    17    22   ar
    21    18    19   ar
    22    19    20   ar
    23    20    21   ar
    24    21    22   ar
    25    23    24    1
    26    24    25    1
    27    25    26    1
