@<TRIPOS>MOLECULE
30420_ChemDiv_8017-4075
 35 39 0 0 0
SMALL
GASTEIGER
Energy = 0

@<TRIPOS>ATOM
      1 N          -3.5000    0.0000    0.0000 N.ar    1  LIG1       -0.1948
      2 N          -4.0000    0.8710    0.0000 N.ar    1  LIG1       -0.1669
      3 C          -5.0000    0.8710    0.0000 C.ar    1  LIG1        0.0795
      4 C          -5.5000    0.0000    0.0000 C.ar    1  LIG1        0.0199
      5 C          -5.0000   -0.8630    0.0000 C.ar    1  LIG1        0.0591
      6 C          -4.0000   -0.8630    0.0000 C.ar    1  LIG1        0.2803
      7 O          -3.5000   -1.7290    0.0000 O.2     1  LIG1       -0.2652
      8 C          -5.5000   -1.7290    0.0000 C.ar    1  LIG1        0.0048
      9 C          -6.4960   -1.7290    0.0000 C.ar    1  LIG1        0.0002
     10 C          -6.9960   -0.8630    0.0000 C.ar    1  LIG1        0.0000
     11 C          -6.4880    0.0080    0.0000 C.ar    1  LIG1        0.0014
     12 C          -5.5000    1.7330    0.0000 C.3     1  LIG1        0.0539
     13 C          -2.5000    0.0000    0.0000 C.ar    1  LIG1        0.0860
     14 C          -2.0000    0.8710    0.0000 C.ar    1  LIG1        0.0194
     15 C          -1.0000    0.8710    0.0000 C.ar    1  LIG1        0.0061
     16 C          -0.5000    0.0080    0.0000 C.ar    1  LIG1        0.0555
     17 C           0.5000    0.0080    0.0000 C.2     1  LIG1        0.2690
     18 N           0.9960    0.8710    0.0000 N.am    1  LIG1       -0.1754
     19 C           1.9960    0.8710    0.0000 C.ar    1  LIG1        0.0737
     20 C           2.4960    1.7330    0.0000 C.ar    1  LIG1        0.0168
     21 C           3.4960    1.7330    0.0000 C.ar    1  LIG1        0.0058
     22 C           3.9960    0.8710    0.0000 C.ar    1  LIG1        0.0537
     23 C           4.9960    0.8710    0.0000 C.2     1  LIG1        0.2490
     24 N           5.4960    0.0000    0.0000 N.am    1  LIG1       -0.2761
     25 C           4.9960   -0.8630    0.0000 C.3     1  LIG1        0.0937
     26 C           5.4960   -1.7290    0.0000 C.3     1  LIG1        0.0216
     27 C           6.4960   -1.7290    0.0000 C.3     1  LIG1        0.0035
     28 C           6.9960   -0.8630    0.0000 C.3     1  LIG1        0.0216
     29 C           6.4960    0.0000    0.0000 C.3     1  LIG1        0.0937
     30 O           5.4960    1.7330    0.0000 O.2     1  LIG1       -0.2699
     31 C           3.4960    0.0000    0.0000 C.ar    1  LIG1        0.0058
     32 C           2.4960    0.0000    0.0000 C.ar    1  LIG1        0.0168
     33 O           0.9960   -0.8630    0.0000 O.2     1  LIG1       -0.2680
     34 C          -1.0000   -0.8630    0.0000 C.ar    1  LIG1        0.0061
     35 C          -2.0000   -0.8630    0.0000 C.ar    1  LIG1        0.0194
@<TRIPOS>BOND
     1     1     2   ar
     2     1     6   ar
     3     1    13    1
     4     2     3   ar
     5     3     4   ar
     6     3    12    1
     7     4     5   ar
     8     4    11   ar
     9     5     6   ar
    10     5     8   ar
    11     6     7    2
    12     8     9   ar
    13     9    10   ar
    14    10    11   ar
    15    13    14   ar
    16    13    35   ar
    17    14    15   ar
    18    15    16   ar
    19    16    17    1
    20    16    34   ar
    21    17    18   am
    22    17    33    2
    23    18    19    1
    24    19    20   ar
    25    19    32   ar
    26    20    21   ar
    27    21    22   ar
    28    22    23    1
    29    22    31   ar
    30    23    24   am
    31    23    30    2
    32    24    25    1
    33    24    29    1
    34    25    26    1
    35    26    27    1
    36    27    28    1
    37    28    29    1
    38    31    32   ar
    39    34    35   ar
