@<TRIPOS>MOLECULE
30424_ChemDiv_C066-0341
 23 26 0 0 0
SMALL
GASTEIGER
Energy = 0

@<TRIPOS>ATOM
      1 C           0.0460    1.3000    0.0000 C.ar    1  LIG1        0.1582
      2 N           0.9170    1.7960    0.0000 N.ar    1  LIG1       -0.1402
      3 N           0.9170    2.7960    0.0000 N.ar    1  LIG1       -0.1054
      4 C           0.0460    3.2920    0.0000 C.ar    1  LIG1        0.2967
      5 C          -0.8130    2.7960    0.0000 C.ar    1  LIG1        0.0610
      6 C          -0.8130    1.7960    0.0000 C.ar    1  LIG1        0.0287
      7 C          -1.6710    1.3000    0.0000 C.ar    1  LIG1        0.0019
      8 C          -2.5420    1.7960    0.0000 C.ar    1  LIG1        0.0001
      9 C          -2.5420    2.7830    0.0000 C.ar    1  LIG1        0.0002
     10 C          -1.6710    3.2920    0.0000 C.ar    1  LIG1        0.0049
     11 O           0.0460    4.2830    0.0000 O.2     1  LIG1       -0.2636
     12 C           0.0460    0.3040    0.0000 C.2     1  LIG1        0.2885
     13 N           0.9170   -0.1960    0.0000 N.am    1  LIG1       -0.1740
     14 C           0.9170   -1.2040    0.0000 C.ar    1  LIG1        0.0770
     15 C           1.7750   -1.6920    0.0000 C.ar    1  LIG1        0.0568
     16 C           1.7880   -2.7000    0.0000 C.ar    1  LIG1        0.1777
     17 C           0.9170   -3.2000    0.0000 C.ar    1  LIG1        0.1765
     18 O           1.1420   -4.1920    0.0000 O.3     1  LIG1       -0.4346
     19 C           2.1380   -4.2830    0.0000 C.3     1  LIG1        0.4294
     20 O           2.5380   -3.3630    0.0000 O.3     1  LIG1       -0.4346
     21 C           0.0460   -2.7000    0.0000 C.ar    1  LIG1        0.0415
     22 C           0.0460   -1.7000    0.0000 C.ar    1  LIG1        0.0199
     23 O          -0.8130   -0.1960    0.0000 O.2     1  LIG1       -0.2663
@<TRIPOS>BOND
     1     1     2   ar
     2     1     6   ar
     3     1    12    1
     4     2     3   ar
     5     3     4   ar
     6     4     5   ar
     7     4    11    2
     8     5     6   ar
     9     5    10   ar
    10     6     7   ar
    11     7     8   ar
    12     8     9   ar
    13     9    10   ar
    14    12    13   am
    15    12    23    2
    16    13    14    1
    17    14    15   ar
    18    14    22   ar
    19    15    16   ar
    20    16    17   ar
    21    16    20    1
    22    17    18    1
    23    17    21   ar
    24    18    19    1
    25    19    20    1
    26    21    22   ar
