@<TRIPOS>MOLECULE
30423_ChemDiv_6956-0120
 22 25 0 0 0
SMALL
GASTEIGER
Energy = 0

@<TRIPOS>ATOM
      1 C           0.6670    0.1630    0.0000 C.ar    1  LIG1        0.1619
      2 N           0.0880   -0.6500    0.0000 N.ar    1  LIG1       -0.3061
      3 C          -0.8710   -0.3420    0.0000 C.ar    1  LIG1        0.0629
      4 C          -0.8790    0.6580    0.0000 C.ar    1  LIG1        0.0369
      5 C           0.0790    0.9750    0.0000 C.ar    1  LIG1        0.1167
      6 N           0.4750    1.8960    0.0000 N.ar    1  LIG1       -0.2408
      7 C           1.4790    2.0000    0.0000 C.ar    1  LIG1        0.0990
      8 C           2.0710    1.1920    0.0000 C.ar    1  LIG1        0.1005
      9 N           1.6580    0.2710    0.0000 N.ar    1  LIG1       -0.2252
     10 C           3.0630    1.2960    0.0000 C.ar    1  LIG1        0.0207
     11 C           3.4670    2.2130    0.0000 C.ar    1  LIG1        0.0016
     12 C           2.8710    3.0210    0.0000 C.ar    1  LIG1        0.0016
     13 C           1.8790    2.9130    0.0000 C.ar    1  LIG1        0.0206
     14 C          -1.7460    1.1540    0.0000 C.ar    1  LIG1        0.0097
     15 C          -2.6000    0.6540    0.0000 C.ar    1  LIG1        0.0347
     16 C          -2.6080   -0.3420    0.0000 C.ar    1  LIG1        0.0082
     17 C          -1.7380   -0.8420    0.0000 C.ar    1  LIG1        0.0178
     18 BR         -3.4710    1.1580    0.0000 Br      1  LIG1       -0.0490
     19 C           0.7830   -1.3500    0.0000 C.3     1  LIG1        0.1491
     20 C           0.5250   -2.3130    0.0000 C.2     1  LIG1        0.0732
     21 O          -0.4330   -2.5710    0.0000 O.co2   1  LIG1       -0.5472
     22 O           1.2290   -3.0170    0.0000 O.co2   1  LIG1       -0.5472
@<TRIPOS>BOND
     1     1     2   ar
     2     1     5   ar
     3     1     9   ar
     4     2     3   ar
     5     2    19    1
     6     3     4   ar
     7     3    17   ar
     8     4     5   ar
     9     4    14   ar
    10     5     6   ar
    11     6     7   ar
    12     7     8   ar
    13     7    13   ar
    14     8     9   ar
    15     8    10   ar
    16    10    11   ar
    17    11    12   ar
    18    12    13   ar
    19    14    15   ar
    20    15    16   ar
    21    15    18    1
    22    16    17   ar
    23    19    20    1
    24    20    21   ar
    25    20    22   ar
