@<TRIPOS>MOLECULE
30425_ChemDiv_D011-1812
 24 27 0 0 0
SMALL
GASTEIGER
Energy = 0

@<TRIPOS>ATOM
      1 C           0.3790    0.5710    0.0000 C.ar    1  LIG1        0.1620
      2 N          -0.2000   -0.2460    0.0000 N.ar    1  LIG1       -0.3013
      3 C          -1.1540    0.0630    0.0000 C.ar    1  LIG1        0.0631
      4 C          -1.1580    1.0580    0.0000 C.ar    1  LIG1        0.0364
      5 C          -0.2080    1.3750    0.0000 C.ar    1  LIG1        0.1167
      6 N           0.1880    2.2960    0.0000 N.ar    1  LIG1       -0.2408
      7 C           1.1750    2.4000    0.0000 C.ar    1  LIG1        0.0990
      8 C           1.7710    1.5960    0.0000 C.ar    1  LIG1        0.1005
      9 N           1.3670    0.6790    0.0000 N.ar    1  LIG1       -0.2252
     10 C           2.7710    1.7000    0.0000 C.ar    1  LIG1        0.0207
     11 C           3.1670    2.6290    0.0000 C.ar    1  LIG1        0.0016
     12 C           2.5670    3.4420    0.0000 C.ar    1  LIG1        0.0016
     13 C           1.5790    3.3170    0.0000 C.ar    1  LIG1        0.0206
     14 C          -2.0250    1.5580    0.0000 C.ar    1  LIG1        0.0030
     15 C          -2.8880    1.0580    0.0000 C.ar    1  LIG1        0.0001
     16 C          -2.8880    0.0540    0.0000 C.ar    1  LIG1        0.0015
     17 C          -2.0250   -0.4380    0.0000 C.ar    1  LIG1        0.0173
     18 C           0.1170   -1.1920    0.0000 C.3     1  LIG1        0.2177
     19 C          -0.5540   -1.9380    0.0000 C.2     1  LIG1        0.3403
     20 O          -0.2380   -2.8830    0.0000 O.2     1  LIG1       -0.2479
     21 O          -1.5250   -1.7380    0.0000 O.3     1  LIG1       -0.4509
     22 C          -2.1960   -2.4830    0.0000 C.3     1  LIG1        0.1691
     23 C          -3.1710   -2.2830    0.0000 C.3     1  LIG1        0.0473
     24 C          -1.8750   -3.4380    0.0000 C.3     1  LIG1        0.0473
@<TRIPOS>BOND
     1     1     2   ar
     2     1     5   ar
     3     1     9   ar
     4     2     3   ar
     5     2    18    1
     6     3     4   ar
     7     3    17   ar
     8     4     5   ar
     9     4    14   ar
    10     5     6   ar
    11     6     7   ar
    12     7     8   ar
    13     7    13   ar
    14     8     9   ar
    15     8    10   ar
    16    10    11   ar
    17    11    12   ar
    18    12    13   ar
    19    14    15   ar
    20    15    16   ar
    21    16    17   ar
    22    18    19    1
    23    19    20    2
    24    19    21    1
    25    21    22    1
    26    22    23    1
    27    22    24    1
