@<TRIPOS>MOLECULE
30428_ChemDiv_C066-0594
 35 37 0 0 0
SMALL
GASTEIGER
Energy = 0

@<TRIPOS>ATOM
      1 N          -0.0080    2.9960    0.0000 N.ar    1  LIG1       -0.1942
      2 N          -0.0080    1.9960    0.0000 N.ar    1  LIG1       -0.1579
      3 C          -0.8790    1.4960    0.0000 C.ar    1  LIG1        0.1562
      4 C          -1.7420    1.9960    0.0000 C.ar    1  LIG1        0.0285
      5 C          -1.7420    2.9960    0.0000 C.ar    1  LIG1        0.0596
      6 C          -0.8790    3.4920    0.0000 C.ar    1  LIG1        0.2803
      7 O          -0.8790    4.4920    0.0000 O.2     1  LIG1       -0.2652
      8 C          -2.6080    3.4920    0.0000 C.ar    1  LIG1        0.0048
      9 C          -3.4670    2.9960    0.0000 C.ar    1  LIG1        0.0002
     10 C          -3.4670    1.9960    0.0000 C.ar    1  LIG1        0.0001
     11 C          -2.6080    1.4960    0.0000 C.ar    1  LIG1        0.0019
     12 C          -0.8790    0.4960    0.0000 C.2     1  LIG1        0.2847
     13 N          -0.0080    0.0000    0.0000 N.am    1  LIG1       -0.1903
     14 C          -0.0080   -1.0000    0.0000 C.3     1  LIG1        0.2017
     15 C           0.8540   -1.5000    0.0000 C.2     1  LIG1        0.2637
     16 O           1.7170   -1.0000    0.0000 O.2     1  LIG1       -0.2714
     17 N           0.8540   -2.5040    0.0000 N.am    1  LIG1       -0.1975
     18 C          -0.0210   -3.0080    0.0000 C.3     1  LIG1        0.1775
     19 C          -0.0080   -4.0040    0.0000 C.3     1  LIG1        0.1624
     20 N          -0.8710   -4.5080    0.0000 N.4     1  LIG1        0.3786
     21 C          -0.8710   -5.5000    0.0000 C.3     1  LIG1        0.1388
     22 C          -0.0040   -6.0040    0.0000 C.3     1  LIG1        0.0688
     23 C          -1.7420   -4.0080    0.0000 C.3     1  LIG1        0.1388
     24 C          -1.7420   -3.0130    0.0000 C.3     1  LIG1        0.0688
     25 O          -1.7420    0.0000    0.0000 O.2     1  LIG1       -0.2666
     26 C           0.8630    3.4920    0.0000 C.ar    1  LIG1        0.0892
     27 C           1.7210    2.9960    0.0000 C.ar    1  LIG1        0.0593
     28 C           2.5790    3.4920    0.0000 C.ar    1  LIG1        0.1739
     29 C           2.5790    4.4920    0.0000 C.ar    1  LIG1        0.1725
     30 C           1.7210    4.9920    0.0000 C.ar    1  LIG1        0.0416
     31 C           0.8630    4.4920    0.0000 C.ar    1  LIG1        0.0226
     32 O           3.4630    5.0040    0.0000 O.3     1  LIG1       -0.4684
     33 C           3.4580    6.0040    0.0000 C.3     1  LIG1        0.2526
     34 O           3.4630    2.9830    0.0000 O.3     1  LIG1       -0.4683
     35 C           3.4580    1.9790    0.0000 C.3     1  LIG1        0.2526
@<TRIPOS>BOND
     1     1     2   ar
     2     1     6   ar
     3     1    26    1
     4     2     3   ar
     5     3     4   ar
     6     3    12    1
     7     4     5   ar
     8     4    11   ar
     9     5     6   ar
    10     5     8   ar
    11     6     7    2
    12     8     9   ar
    13     9    10   ar
    14    10    11   ar
    15    12    13   am
    16    12    25    2
    17    13    14    1
    18    14    15    1
    19    15    16    2
    20    15    17   am
    21    17    18    1
    22    18    19    1
    23    19    20    1
    24    20    21    1
    25    20    23    1
    26    21    22    1
    27    23    24    1
    28    26    27   ar
    29    26    31   ar
    30    27    28   ar
    31    28    29   ar
    32    28    34    1
    33    29    30   ar
    34    29    32    1
    35    30    31   ar
    36    32    33    1
    37    34    35    1
