@<TRIPOS>MOLECULE
30429_ChemDiv_D011-1815
 26 29 0 0 0
SMALL
GASTEIGER
Energy = 0

@<TRIPOS>ATOM
      1 C           1.5290    0.6420    0.0000 C.ar    1  LIG1        0.1620
      2 N           0.9460   -0.1750    0.0000 N.ar    1  LIG1       -0.3013
      3 C          -0.0040    0.1290    0.0000 C.ar    1  LIG1        0.0631
      4 C          -0.0170    1.1290    0.0000 C.ar    1  LIG1        0.0364
      5 C           0.9330    1.4460    0.0000 C.ar    1  LIG1        0.1167
      6 N           1.3330    2.3630    0.0000 N.ar    1  LIG1       -0.2408
      7 C           2.3250    2.4670    0.0000 C.ar    1  LIG1        0.0990
      8 C           2.9210    1.6630    0.0000 C.ar    1  LIG1        0.1005
      9 N           2.5210    0.7460    0.0000 N.ar    1  LIG1       -0.2252
     10 C           3.9130    1.7710    0.0000 C.ar    1  LIG1        0.0207
     11 C           4.3170    2.6960    0.0000 C.ar    1  LIG1        0.0016
     12 C           3.7170    3.5080    0.0000 C.ar    1  LIG1        0.0016
     13 C           2.7250    3.3830    0.0000 C.ar    1  LIG1        0.0206
     14 C          -0.8790    1.6290    0.0000 C.ar    1  LIG1        0.0030
     15 C          -1.7420    1.1290    0.0000 C.ar    1  LIG1        0.0001
     16 C          -1.7420    0.1250    0.0000 C.ar    1  LIG1        0.0015
     17 C          -0.8790   -0.3670    0.0000 C.ar    1  LIG1        0.0173
     18 C           1.2630   -1.1210    0.0000 C.3     1  LIG1        0.2177
     19 C           0.6000   -1.8670    0.0000 C.2     1  LIG1        0.3404
     20 O           0.9170   -2.8130    0.0000 O.2     1  LIG1       -0.2479
     21 O          -0.3750   -1.6670    0.0000 O.3     1  LIG1       -0.4472
     22 C          -1.0380   -2.4130    0.0000 C.3     1  LIG1        0.2085
     23 C          -2.0250   -2.2130    0.0000 C.3     1  LIG1        0.0474
     24 C          -2.6830   -2.9580    0.0000 C.3     1  LIG1        0.0038
     25 C          -3.6630   -2.7580    0.0000 C.3     1  LIG1        0.0001
     26 C          -4.3210   -3.5040    0.0000 C.3     1  LIG1        0.0000
@<TRIPOS>BOND
     1     1     2   ar
     2     1     5   ar
     3     1     9   ar
     4     2     3   ar
     5     2    18    1
     6     3     4   ar
     7     3    17   ar
     8     4     5   ar
     9     4    14   ar
    10     5     6   ar
    11     6     7   ar
    12     7     8   ar
    13     7    13   ar
    14     8     9   ar
    15     8    10   ar
    16    10    11   ar
    17    11    12   ar
    18    12    13   ar
    19    14    15   ar
    20    15    16   ar
    21    16    17   ar
    22    18    19    1
    23    19    20    2
    24    19    21    1
    25    21    22    1
    26    22    23    1
    27    23    24    1
    28    24    25    1
    29    25    26    1
