@<TRIPOS>MOLECULE
30427_ChemDiv_D011-1813
 25 28 0 0 0
SMALL
GASTEIGER
Energy = 0

@<TRIPOS>ATOM
      1 C           1.2000    0.3710    0.0000 C.ar    1  LIG1        0.1620
      2 N           0.6170   -0.4460    0.0000 N.ar    1  LIG1       -0.3013
      3 C          -0.3330   -0.1420    0.0000 C.ar    1  LIG1        0.0631
      4 C          -0.3420    0.8580    0.0000 C.ar    1  LIG1        0.0364
      5 C           0.6130    1.1750    0.0000 C.ar    1  LIG1        0.1167
      6 N           1.0080    2.0920    0.0000 N.ar    1  LIG1       -0.2408
      7 C           1.9960    2.1960    0.0000 C.ar    1  LIG1        0.0990
      8 C           2.5920    1.3920    0.0000 C.ar    1  LIG1        0.1005
      9 N           2.1880    0.4750    0.0000 N.ar    1  LIG1       -0.2252
     10 C           3.5920    1.5000    0.0000 C.ar    1  LIG1        0.0207
     11 C           3.9880    2.4250    0.0000 C.ar    1  LIG1        0.0016
     12 C           3.3880    3.2380    0.0000 C.ar    1  LIG1        0.0016
     13 C           2.4000    3.1170    0.0000 C.ar    1  LIG1        0.0206
     14 C          -1.2040    1.3580    0.0000 C.ar    1  LIG1        0.0030
     15 C          -2.0670    0.8580    0.0000 C.ar    1  LIG1        0.0001
     16 C          -2.0670   -0.1460    0.0000 C.ar    1  LIG1        0.0015
     17 C          -1.2040   -0.6420    0.0000 C.ar    1  LIG1        0.0173
     18 C           0.9380   -1.3960    0.0000 C.3     1  LIG1        0.2177
     19 C           0.2670   -2.1420    0.0000 C.2     1  LIG1        0.3404
     20 O           0.5830   -3.0880    0.0000 O.2     1  LIG1       -0.2479
     21 O          -0.7040   -1.9420    0.0000 O.3     1  LIG1       -0.4472
     22 C          -1.3750   -2.6880    0.0000 C.3     1  LIG1        0.2085
     23 C          -2.3500   -2.4880    0.0000 C.3     1  LIG1        0.0474
     24 C          -3.0170   -3.2330    0.0000 C.3     1  LIG1        0.0038
     25 C          -3.9920   -3.0330    0.0000 C.3     1  LIG1        0.0001
@<TRIPOS>BOND
     1     1     2   ar
     2     1     5   ar
     3     1     9   ar
     4     2     3   ar
     5     2    18    1
     6     3     4   ar
     7     3    17   ar
     8     4     5   ar
     9     4    14   ar
    10     5     6   ar
    11     6     7   ar
    12     7     8   ar
    13     7    13   ar
    14     8     9   ar
    15     8    10   ar
    16    10    11   ar
    17    11    12   ar
    18    12    13   ar
    19    14    15   ar
    20    15    16   ar
    21    16    17   ar
    22    18    19    1
    23    19    20    2
    24    19    21    1
    25    21    22    1
    26    22    23    1
    27    23    24    1
    28    24    25    1
