@<TRIPOS>MOLECULE
30430_ChemDiv_C066-0612
 36 40 0 0 0
SMALL
GASTEIGER
Energy = 0

@<TRIPOS>ATOM
      1 N           0.7710    2.2500    0.0000 N.ar    1  LIG1       -0.1943
      2 N           0.7710    1.2500    0.0000 N.ar    1  LIG1       -0.1579
      3 C          -0.1000    0.7500    0.0000 C.ar    1  LIG1        0.1562
      4 C          -0.9670    1.2500    0.0000 C.ar    1  LIG1        0.0285
      5 C          -0.9670    2.2500    0.0000 C.ar    1  LIG1        0.0596
      6 C          -0.1000    2.7580    0.0000 C.ar    1  LIG1        0.2803
      7 O          -0.1000    3.7500    0.0000 O.2     1  LIG1       -0.2652
      8 C          -1.8290    2.7580    0.0000 C.ar    1  LIG1        0.0048
      9 C          -2.6920    2.2500    0.0000 C.ar    1  LIG1        0.0002
     10 C          -2.6920    1.2500    0.0000 C.ar    1  LIG1        0.0001
     11 C          -1.8290    0.7500    0.0000 C.ar    1  LIG1        0.0019
     12 C          -0.1000   -0.2500    0.0000 C.2     1  LIG1        0.2847
     13 N           0.7710   -0.7500    0.0000 N.am    1  LIG1       -0.1903
     14 C           0.7710   -1.7540    0.0000 C.3     1  LIG1        0.2021
     15 C          -0.1000   -2.2500    0.0000 C.2     1  LIG1        0.2677
     16 N          -0.1000   -3.2460    0.0000 N.am    1  LIG1       -0.1776
     17 C          -0.9710   -3.7380    0.0000 C.ar    1  LIG1        0.0766
     18 C          -1.8290   -3.2380    0.0000 C.ar    1  LIG1        0.0568
     19 C          -2.6960   -3.7380    0.0000 C.ar    1  LIG1        0.1777
     20 C          -2.7080   -4.7420    0.0000 C.ar    1  LIG1        0.1765
     21 O          -3.6500   -5.0420    0.0000 O.3     1  LIG1       -0.4346
     22 C          -4.2380   -4.2420    0.0000 C.3     1  LIG1        0.4294
     23 O          -3.6460   -3.4290    0.0000 O.3     1  LIG1       -0.4346
     24 C          -1.8290   -5.2380    0.0000 C.ar    1  LIG1        0.0415
     25 C          -0.9670   -4.7420    0.0000 C.ar    1  LIG1        0.0199
     26 O          -0.9670   -1.7420    0.0000 O.2     1  LIG1       -0.2710
     27 O          -0.9670   -0.7500    0.0000 O.2     1  LIG1       -0.2666
     28 C           1.6420    2.7580    0.0000 C.ar    1  LIG1        0.0870
     29 C           2.5000    2.2420    0.0000 C.ar    1  LIG1        0.0337
     30 C           3.3670    2.7460    0.0000 C.ar    1  LIG1        0.0930
     31 C           3.3670    3.7460    0.0000 C.ar    1  LIG1        0.1493
     32 C           2.4880    4.2420    0.0000 C.ar    1  LIG1        0.0393
     33 C           1.6330    3.7460    0.0000 C.ar    1  LIG1        0.0224
     34 O           4.2330    4.2420    0.0000 O.3     1  LIG1       -0.4706
     35 C           4.2330    5.2380    0.0000 C.3     1  LIG1        0.2525
     36 CL          4.2330    2.2420    0.0000 Cl      1  LIG1       -0.0790
@<TRIPOS>BOND
     1     1     2   ar
     2     1     6   ar
     3     1    28    1
     4     2     3   ar
     5     3     4   ar
     6     3    12    1
     7     4     5   ar
     8     4    11   ar
     9     5     6   ar
    10     5     8   ar
    11     6     7    2
    12     8     9   ar
    13     9    10   ar
    14    10    11   ar
    15    12    13   am
    16    12    27    2
    17    13    14    1
    18    14    15    1
    19    15    16   am
    20    15    26    2
    21    16    17    1
    22    17    18   ar
    23    17    25   ar
    24    18    19   ar
    25    19    20   ar
    26    19    23    1
    27    20    21    1
    28    20    24   ar
    29    21    22    1
    30    22    23    1
    31    24    25   ar
    32    28    29   ar
    33    28    33   ar
    34    29    30   ar
    35    30    31   ar
    36    30    36    1
    37    31    32   ar
    38    31    34    1
    39    32    33   ar
    40    34    35    1
