@<TRIPOS>MOLECULE
30434_ChemDiv_K784-7336
 24 24 0 0 0
SMALL
GASTEIGER
Energy = 0

@<TRIPOS>ATOM
      1 C           1.7250   -0.9960    0.0000 C.ar    1  LIG1        0.0817
      2 C           1.7250   -2.0000    0.0000 C.ar    1  LIG1        0.1307
      3 O           2.5880   -2.4960    0.0000 O.2     1  LIG1       -0.4253
      4 C           3.4540   -2.0000    0.0000 C.ar    1  LIG1        0.3453
      5 C           3.4540   -0.9960    0.0000 C.ar    1  LIG1        0.0782
      6 C           2.5880   -0.4880    0.0000 C.ar    1  LIG1       -0.0083
      7 C           2.5880    0.5130    0.0000 C.3     1  LIG1        0.0315
      8 O           4.3250   -2.5000    0.0000 O.2     1  LIG1       -0.2445
      9 C           0.8540   -2.5000    0.0000 C.3     1  LIG1        0.0727
     10 C           0.8540   -0.4880    0.0000 C.2     1  LIG1        0.2671
     11 O          -0.0210   -0.9960    0.0000 O.2     1  LIG1       -0.2683
     12 N           0.8500    0.5080    0.0000 N.am    1  LIG1       -0.2014
     13 C          -0.0130    1.0080    0.0000 C.3     1  LIG1        0.1216
     14 C          -0.8750    0.5080    0.0000 C.3     1  LIG1        0.0861
     15 C          -1.7330    1.0080    0.0000 C.3     1  LIG1        0.1404
     16 N          -2.5960    0.5080    0.0000 N.4     1  LIG1        0.3773
     17 C          -2.5960   -0.4880    0.0000 C.3     1  LIG1        0.1383
     18 C          -3.4670   -0.9880    0.0000 C.3     1  LIG1        0.0570
     19 C          -3.4580   -1.9830    0.0000 C.3     1  LIG1        0.0061
     20 C          -4.3290   -0.4880    0.0000 C.3     1  LIG1        0.0061
     21 C          -3.4670    1.0080    0.0000 C.3     1  LIG1        0.1383
     22 C          -3.4670    2.0040    0.0000 C.3     1  LIG1        0.0570
     23 C          -4.3290    2.5040    0.0000 C.3     1  LIG1        0.0061
     24 C          -2.6080    2.5040    0.0000 C.3     1  LIG1        0.0061
@<TRIPOS>BOND
     1     1     2   ar
     2     1     6   ar
     3     1    10    1
     4     2     3   ar
     5     2     9    1
     6     3     4   ar
     7     4     5   ar
     8     4     8    2
     9     5     6   ar
    10     6     7    1
    11    10    11    2
    12    10    12   am
    13    12    13    1
    14    13    14    1
    15    14    15    1
    16    15    16    1
    17    16    17    1
    18    16    21    1
    19    17    18    1
    20    18    19    1
    21    18    20    1
    22    21    22    1
    23    22    23    1
    24    22    24    1
