@<TRIPOS>MOLECULE
30448_ChemDiv_4052-0002
 17 19 0 0 0
SMALL
GASTEIGER
Energy = 0

@<TRIPOS>ATOM
      1 C           0.1290    0.8170    0.0000 C.ar    1  LIG1        0.1608
      2 C          -0.4630   -0.0170    0.0000 C.ar    1  LIG1        0.1206
      3 N          -1.4130    0.2830    0.0000 N.ar    1  LIG1       -0.2836
      4 C          -1.4130    1.2880    0.0000 C.ar    1  LIG1        0.1480
      5 N          -0.4630    1.5960    0.0000 N.ar    1  LIG1       -0.2234
      6 C          -2.2790    1.7880    0.0000 C.ar    1  LIG1        0.0374
      7 C          -3.1500    1.2880    0.0000 C.ar    1  LIG1        0.0046
      8 C          -3.1500    0.2830    0.0000 C.ar    1  LIG1        0.0192
      9 C          -2.2790   -0.2080    0.0000 C.ar    1  LIG1        0.0819
     10 BR         -0.1710   -0.9290    0.0000 Br      1  LIG1       -0.0281
     11 C           1.1250    0.8170    0.0000 C.3     1  LIG1        0.3713
     12 N           1.6330   -0.0380    0.0000 N.ar    1  LIG1       -0.1541
     13 C           2.6380   -0.0380    0.0000 C.ar    1  LIG1        0.2904
     14 C           3.1460   -0.9290    0.0000 C.ar    1  LIG1        0.0758
     15 C           2.6380   -1.7830    0.0000 C.ar    1  LIG1        0.0126
     16 C           1.6330   -1.7830    0.0000 C.ar    1  LIG1        0.0758
     17 C           1.1250   -0.9290    0.0000 C.ar    1  LIG1        0.2904
@<TRIPOS>BOND
     1     1     2   ar
     2     1     5   ar
     3     1    11    1
     4     2     3   ar
     5     2    10    1
     6     3     4   ar
     7     3     9   ar
     8     4     5   ar
     9     4     6   ar
    10     6     7   ar
    11     7     8   ar
    12     8     9   ar
    13    11    12    1
    14    12    13   ar
    15    12    17   ar
    16    13    14   ar
    17    14    15   ar
    18    15    16   ar
    19    16    17   ar
