@<TRIPOS>MOLECULE
30440_ChemDiv_K784-7456
 23 24 0 0 0
SMALL
GASTEIGER
Energy = 0

@<TRIPOS>ATOM
      1 C           2.1580   -0.2500    0.0000 C.ar    1  LIG1        0.0817
      2 C           2.1580   -1.2580    0.0000 C.ar    1  LIG1        0.1307
      3 O           3.0210   -1.7460    0.0000 O.2     1  LIG1       -0.4253
      4 C           3.8830   -1.2580    0.0000 C.ar    1  LIG1        0.3453
      5 C           3.8830   -0.2500    0.0000 C.ar    1  LIG1        0.0782
      6 C           3.0210    0.2540    0.0000 C.ar    1  LIG1       -0.0083
      7 C           3.0210    1.2630    0.0000 C.3     1  LIG1        0.0315
      8 O           4.7630   -1.7580    0.0000 O.2     1  LIG1       -0.2445
      9 C           1.2830   -1.7580    0.0000 C.3     1  LIG1        0.0727
     10 C           1.2830    0.2500    0.0000 C.2     1  LIG1        0.2671
     11 N           1.2830    1.2540    0.0000 N.am    1  LIG1       -0.2014
     12 C           0.4210    1.7500    0.0000 C.3     1  LIG1        0.1214
     13 C          -0.4420    1.2540    0.0000 C.3     1  LIG1        0.0786
     14 C          -1.3040    1.7500    0.0000 C.3     1  LIG1        0.1401
     15 N          -2.1630    1.2540    0.0000 N.4     1  LIG1        0.3773
     16 C          -3.0330    1.7630    0.0000 C.3     1  LIG1        0.1385
     17 C          -3.8880    1.2630    0.0000 C.3     1  LIG1        0.0629
     18 C          -3.9040    0.2630    0.0000 C.3     1  LIG1        0.0119
     19 C          -3.0330   -0.2330    0.0000 C.3     1  LIG1        0.0629
     20 C          -2.1630    0.2630    0.0000 C.3     1  LIG1        0.1385
     21 C          -4.7670   -0.2330    0.0000 C.3     1  LIG1        0.0004
     22 C          -0.4420    0.2540    0.0000 C.3     1  LIG1        0.0080
     23 O           0.4170   -0.2500    0.0000 O.2     1  LIG1       -0.2683
@<TRIPOS>BOND
     1     1     2   ar
     2     1     6   ar
     3     1    10    1
     4     2     3   ar
     5     2     9    1
     6     3     4   ar
     7     4     5   ar
     8     4     8    2
     9     5     6   ar
    10     6     7    1
    11    10    11   am
    12    10    23    2
    13    11    12    1
    14    12    13    1
    15    13    14    1
    16    13    22    1
    17    14    15    1
    18    15    16    1
    19    15    20    1
    20    16    17    1
    21    17    18    1
    22    18    19    1
    23    18    21    1
    24    19    20    1
