@<TRIPOS>MOLECULE
30444_ChemDiv_4048-4680
 24 27 0 0 0
SMALL
GASTEIGER
Energy = 0

@<TRIPOS>ATOM
      1 C          -0.8750   -0.2040    0.0000 C.ar    1  LIG1        0.0588
      2 C          -0.6170   -1.1670    0.0000 C.ar    1  LIG1        0.1902
      3 C           0.3460   -1.4290    0.0000 C.ar    1  LIG1        0.1282
      4 C           1.0420   -0.7130    0.0000 C.ar    1  LIG1        0.1479
      5 O           2.0380   -0.7540    0.0000 O.3     1  LIG1       -0.4802
      6 C           2.3920    0.1670    0.0000 C.3     1  LIG1        0.1508
      7 C           3.0040    0.9750    0.0000 C.2     1  LIG1        0.0829
      8 O           3.9880    0.8630    0.0000 O.co2   1  LIG1       -0.5460
      9 O           2.6080    1.8920    0.0000 O.co2   1  LIG1       -0.5460
     10 C           1.6130    0.7920    0.0000 C.3     1  LIG1        0.0709
     11 C           0.7710    0.2380    0.0000 C.ar    1  LIG1        0.0164
     12 C          -0.1710    0.4920    0.0000 C.ar    1  LIG1        0.0036
     13 CL          0.6080   -2.4000    0.0000 Cl      1  LIG1       -0.0758
     14 O          -1.4540   -1.7210    0.0000 O.2     1  LIG1       -0.3524
     15 N          -2.2420   -1.1000    0.0000 N.ar    1  LIG1       -0.0769
     16 C          -1.8830   -0.1580    0.0000 C.ar    1  LIG1        0.1251
     17 C          -2.4330    0.6630    0.0000 C.ar    1  LIG1        0.0484
     18 C          -1.9880    1.5580    0.0000 C.ar    1  LIG1        0.1416
     19 F          -0.9830    1.6170    0.0000 F       1  LIG1       -0.2041
     20 C          -2.5420    2.4040    0.0000 C.ar    1  LIG1        0.0297
     21 C          -3.5460    2.3420    0.0000 C.ar    1  LIG1        0.0023
     22 C          -3.9920    1.4330    0.0000 C.ar    1  LIG1        0.0002
     23 C          -3.4500    0.6000    0.0000 C.ar    1  LIG1        0.0038
     24 H           3.2750   -0.3000    0.0000 H       1  LIG1        0.0806
@<TRIPOS>BOND
     1     1     2   ar
     2     1    12   ar
     3     1    16   ar
     4     2     3   ar
     5     2    14   ar
     6     3     4   ar
     7     3    13    1
     8     4     5    1
     9     4    11   ar
    10     5     6    1
    11     6     7    1
    12     6    10    1
    13     6    24    1
    14     7     8   ar
    15     7     9   ar
    16    10    11    1
    17    11    12   ar
    18    14    15   ar
    19    15    16   ar
    20    16    17    1
    21    17    18   ar
    22    17    23   ar
    23    18    19    1
    24    18    20   ar
    25    20    21   ar
    26    21    22   ar
    27    22    23   ar
