@<TRIPOS>MOLECULE
30455_ChemDiv_3875-0245
 28 31 0 0 0
SMALL
GASTEIGER
Energy = 0

@<TRIPOS>ATOM
      1 C           1.7130   -0.5540    0.0000 C.3     1  LIG1        0.0537
      2 C           0.8170   -1.0040    0.0000 C.3     1  LIG1        0.0955
      3 C           0.0000   -0.5540    0.0000 C.2     1  LIG1        0.2421
      4 N          -0.8960   -1.0040    0.0000 N.am    1  LIG1       -0.2024
      5 C          -1.7960   -0.5540    0.0000 C.3     1  LIG1        0.1491
      6 C          -1.7960    0.4830    0.0000 C.3     1  LIG1        0.1587
      7 C          -2.6080    1.0040    0.0000 C.ar    1  LIG1        0.0024
      8 C          -2.6080    1.9710    0.0000 C.ar    1  LIG1       -0.0213
      9 C          -1.7960    2.4960    0.0000 C.3     1  LIG1        0.0582
     10 C          -0.8960    1.9710    0.0000 C.3     1  LIG1        0.1472
     11 O          -0.8960    1.0040    0.0000 O.3     1  LIG1       -0.3497
     12 C          -3.5080    2.4960    0.0000 C.ar    1  LIG1       -0.0044
     13 C          -4.3210    1.9710    0.0000 C.ar    1  LIG1       -0.0003
     14 C          -4.3210    1.0040    0.0000 C.ar    1  LIG1       -0.0003
     15 C          -3.5080    0.4830    0.0000 C.ar    1  LIG1       -0.0022
     16 O           0.0000    0.4830    0.0000 O.2     1  LIG1       -0.2733
     17 C           2.6040   -1.0040    0.0000 C.ar    1  LIG1       -0.0179
     18 C           3.4960   -0.5540    0.0000 C.ar    1  LIG1       -0.0039
     19 C           4.3170   -1.0040    0.0000 C.ar    1  LIG1       -0.0003
     20 C           4.3170   -2.0500    0.0000 C.ar    1  LIG1       -0.0000
     21 C           3.4960   -2.4920    0.0000 C.ar    1  LIG1       -0.0003
     22 C           2.6040   -2.0500    0.0000 C.ar    1  LIG1       -0.0039
     23 C           1.7130    0.4830    0.0000 C.ar    1  LIG1       -0.0179
     24 C           0.8170    1.0040    0.0000 C.ar    1  LIG1       -0.0039
     25 C           0.8170    1.9710    0.0000 C.ar    1  LIG1       -0.0003
     26 C           1.7130    2.4960    0.0000 C.ar    1  LIG1       -0.0000
     27 C           2.6040    1.9710    0.0000 C.ar    1  LIG1       -0.0003
     28 C           2.6040    1.0040    0.0000 C.ar    1  LIG1       -0.0039
@<TRIPOS>BOND
     1     1     2    1
     2     1    17    1
     3     1    23    1
     4     2     3    1
     5     3     4   am
     6     3    16    2
     7     4     5    1
     8     5     6    1
     9     6     7    1
    10     6    11    1
    11     7     8   ar
    12     7    15   ar
    13     8     9    1
    14     8    12   ar
    15     9    10    1
    16    10    11    1
    17    12    13   ar
    18    13    14   ar
    19    14    15   ar
    20    17    18   ar
    21    17    22   ar
    22    18    19   ar
    23    19    20   ar
    24    20    21   ar
    25    21    22   ar
    26    23    24   ar
    27    23    28   ar
    28    24    25   ar
    29    25    26   ar
    30    26    27   ar
    31    27    28   ar
