@<TRIPOS>MOLECULE
30451_ChemDiv_D011-2013
 25 28 0 0 0
SMALL
GASTEIGER
Energy = 0

@<TRIPOS>ATOM
      1 C           0.6710    1.1460    0.0000 C.ar    1  LIG1        0.1620
      2 N           0.0880    0.3330    0.0000 N.ar    1  LIG1       -0.3013
      3 C          -0.8630    0.6330    0.0000 C.ar    1  LIG1        0.0631
      4 C          -0.8710    1.6380    0.0000 C.ar    1  LIG1        0.0373
      5 C           0.0830    1.9540    0.0000 C.ar    1  LIG1        0.1167
      6 N           0.4750    2.8630    0.0000 N.ar    1  LIG1       -0.2408
      7 C           1.4630    2.9790    0.0000 C.ar    1  LIG1        0.0990
      8 C           2.0630    2.1670    0.0000 C.ar    1  LIG1        0.1005
      9 N           1.6580    1.2500    0.0000 N.ar    1  LIG1       -0.2252
     10 C           3.0630    2.2750    0.0000 C.ar    1  LIG1        0.0207
     11 C           3.4580    3.2080    0.0000 C.ar    1  LIG1        0.0016
     12 C           2.8580    4.0040    0.0000 C.ar    1  LIG1        0.0016
     13 C           1.8710    3.8960    0.0000 C.ar    1  LIG1        0.0206
     14 C          -1.7330    2.1330    0.0000 C.ar    1  LIG1        0.0144
     15 C          -2.5960    1.6290    0.0000 C.ar    1  LIG1        0.0578
     16 C          -2.5960    0.6330    0.0000 C.ar    1  LIG1        0.0129
     17 C          -1.7330    0.1290    0.0000 C.ar    1  LIG1        0.0182
     18 CL         -3.4630    2.1330    0.0000 Cl      1  LIG1       -0.0822
     19 C           0.4080   -0.6170    0.0000 C.3     1  LIG1        0.2177
     20 C          -0.2630   -1.3580    0.0000 C.2     1  LIG1        0.3403
     21 O          -1.2330   -1.1580    0.0000 O.2     1  LIG1       -0.2479
     22 O           0.0670   -2.3040    0.0000 O.3     1  LIG1       -0.4509
     23 C          -0.6000   -3.0500    0.0000 C.3     1  LIG1        0.1691
     24 C          -0.2710   -4.0040    0.0000 C.3     1  LIG1        0.0473
     25 C          -1.5750   -2.8580    0.0000 C.3     1  LIG1        0.0473
@<TRIPOS>BOND
     1     1     2   ar
     2     1     5   ar
     3     1     9   ar
     4     2     3   ar
     5     2    19    1
     6     3     4   ar
     7     3    17   ar
     8     4     5   ar
     9     4    14   ar
    10     5     6   ar
    11     6     7   ar
    12     7     8   ar
    13     7    13   ar
    14     8     9   ar
    15     8    10   ar
    16    10    11   ar
    17    11    12   ar
    18    12    13   ar
    19    14    15   ar
    20    15    16   ar
    21    15    18    1
    22    16    17   ar
    23    19    20    1
    24    20    21    2
    25    20    22    1
    26    22    23    1
    27    23    24    1
    28    23    25    1
