@<TRIPOS>MOLECULE
30452_ChemDiv_C075-0223
 34 37 0 0 0
SMALL
GASTEIGER
Energy = 0

@<TRIPOS>ATOM
      1 N           1.2960    1.0040    0.0000 N.ar    1  LIG1       -0.1579
      2 C           1.3040   -0.0080    0.0000 C.ar    1  LIG1        0.1562
      3 C           0.4250   -0.4960    0.0000 C.ar    1  LIG1        0.0285
      4 C          -0.4380   -0.0080    0.0000 C.ar    1  LIG1        0.0596
      5 C          -0.4290    1.0000    0.0000 C.ar    1  LIG1        0.2803
      6 N           0.4250    1.4880    0.0000 N.ar    1  LIG1       -0.1943
      7 C           0.4250    2.5040    0.0000 C.ar    1  LIG1        0.0862
      8 C          -0.4380    3.0040    0.0000 C.ar    1  LIG1        0.0224
      9 C          -0.4420    3.9960    0.0000 C.ar    1  LIG1        0.0384
     10 C           0.4250    4.5000    0.0000 C.ar    1  LIG1        0.1388
     11 C           1.2960    4.0000    0.0000 C.ar    1  LIG1        0.0384
     12 C           1.2960    3.0040    0.0000 C.ar    1  LIG1        0.0224
     13 O           0.4130    5.5170    0.0000 O.3     1  LIG1       -0.4714
     14 C          -0.4500    6.0000    0.0000 C.3     1  LIG1        0.2525
     15 O          -1.2920    1.4880    0.0000 O.2     1  LIG1       -0.2652
     16 C          -1.2920   -0.5000    0.0000 C.ar    1  LIG1        0.0048
     17 C          -1.2920   -1.5000    0.0000 C.ar    1  LIG1        0.0002
     18 C          -0.4290   -2.0000    0.0000 C.ar    1  LIG1        0.0001
     19 C           0.4420   -1.4960    0.0000 C.ar    1  LIG1        0.0019
     20 C           2.1670   -0.5000    0.0000 C.2     1  LIG1        0.2847
     21 N           2.1670   -1.4960    0.0000 N.am    1  LIG1       -0.1904
     22 C           1.3040   -2.0000    0.0000 C.3     1  LIG1        0.2002
     23 C           1.2960   -2.9920    0.0000 C.2     1  LIG1        0.2478
     24 N           0.4250   -3.4880    0.0000 N.am    1  LIG1       -0.2781
     25 C          -0.4380   -2.9920    0.0000 C.3     1  LIG1        0.0939
     26 C          -1.2960   -3.4880    0.0000 C.3     1  LIG1        0.0307
     27 C          -1.2960   -4.4960    0.0000 C.3     1  LIG1        0.0833
     28 C          -2.1710   -4.9960    0.0000 C.2     1  LIG1        0.2604
     29 O          -2.1710   -6.0000    0.0000 O.2     1  LIG1       -0.2717
     30 N          -3.0330   -4.4960    0.0000 N.am    1  LIG1       -0.0878
     31 C          -0.4380   -5.0000    0.0000 C.3     1  LIG1        0.0307
     32 C           0.4250   -4.5000    0.0000 C.3     1  LIG1        0.0939
     33 O           2.1670   -3.4880    0.0000 O.2     1  LIG1       -0.2729
     34 O           3.0290    0.0040    0.0000 O.2     1  LIG1       -0.2666
@<TRIPOS>BOND
     1     1     2   ar
     2     1     6   ar
     3     2     3   ar
     4     2    20    1
     5     3     4   ar
     6     3    19   ar
     7     4     5   ar
     8     4    16   ar
     9     5     6   ar
    10     5    15    2
    11     6     7    1
    12     7     8   ar
    13     7    12   ar
    14     8     9   ar
    15     9    10   ar
    16    10    11   ar
    17    10    13    1
    18    11    12   ar
    19    13    14    1
    20    16    17   ar
    21    17    18   ar
    22    18    19   ar
    23    20    21   am
    24    20    34    2
    25    21    22    1
    26    22    23    1
    27    23    24   am
    28    23    33    2
    29    24    25    1
    30    24    32    1
    31    25    26    1
    32    26    27    1
    33    27    28    1
    34    27    31    1
    35    28    29    2
    36    28    30   am
    37    31    32    1
