@<TRIPOS>MOLECULE
30458_ChemDiv_K979-0679
 31 35 0 0 0
SMALL
GASTEIGER
Energy = 0

@<TRIPOS>ATOM
      1 N           0.4330    2.5540    0.0000 N.ar    1  LIG1       -0.1913
      2 N           0.4330    1.5460    0.0000 N.ar    1  LIG1       -0.1578
      3 C          -0.4460    1.0460    0.0000 C.ar    1  LIG1        0.1566
      4 C          -0.4460    0.0540    0.0000 C.2     1  LIG1        0.2884
      5 N          -1.3130   -0.4460    0.0000 N.am    1  LIG1       -0.1740
      6 C          -1.3130   -1.4580    0.0000 C.ar    1  LIG1        0.0770
      7 C          -2.1790   -1.9540    0.0000 C.ar    1  LIG1        0.0568
      8 C          -2.1750   -2.9540    0.0000 C.ar    1  LIG1        0.1777
      9 C          -1.3040   -3.4540    0.0000 C.ar    1  LIG1        0.1765
     10 O          -1.5170   -4.4380    0.0000 O.3     1  LIG1       -0.4346
     11 C          -2.4920   -4.5420    0.0000 C.3     1  LIG1        0.4294
     12 O          -2.9080   -3.6290    0.0000 O.3     1  LIG1       -0.4346
     13 C          -0.4380   -2.9580    0.0000 C.ar    1  LIG1        0.0415
     14 C          -0.4380   -1.9580    0.0000 C.ar    1  LIG1        0.0199
     15 O           0.4170   -0.4460    0.0000 O.2     1  LIG1       -0.2663
     16 C          -1.3130    1.5460    0.0000 C.ar    1  LIG1        0.0286
     17 C          -1.3040    2.5540    0.0000 C.ar    1  LIG1        0.0596
     18 C          -0.4460    3.0710    0.0000 C.ar    1  LIG1        0.2804
     19 O          -0.4460    4.0580    0.0000 O.2     1  LIG1       -0.2652
     20 C          -2.1750    3.0540    0.0000 C.ar    1  LIG1        0.0048
     21 C          -3.0330    2.5540    0.0000 C.ar    1  LIG1        0.0002
     22 C          -3.0330    1.5460    0.0000 C.ar    1  LIG1        0.0001
     23 C          -2.1750    1.0500    0.0000 C.ar    1  LIG1        0.0019
     24 C           1.3000    3.0540    0.0000 C.ar    1  LIG1        0.1198
     25 C           2.1670    2.5460    0.0000 C.ar    1  LIG1        0.1563
     26 O           2.1630    1.5540    0.0000 O.3     1  LIG1       -0.4699
     27 C           3.0210    1.0500    0.0000 C.3     1  LIG1        0.2525
     28 C           3.0210    3.0460    0.0000 C.ar    1  LIG1        0.0385
     29 C           3.0290    4.0420    0.0000 C.ar    1  LIG1        0.0032
     30 C           2.1630    4.5420    0.0000 C.ar    1  LIG1        0.0018
     31 C           1.3000    4.0420    0.0000 C.ar    1  LIG1        0.0223
@<TRIPOS>BOND
     1     1     2   ar
     2     1    18   ar
     3     1    24    1
     4     2     3   ar
     5     3     4    1
     6     3    16   ar
     7     4     5   am
     8     4    15    2
     9     5     6    1
    10     6     7   ar
    11     6    14   ar
    12     7     8   ar
    13     8     9   ar
    14     8    12    1
    15     9    10    1
    16     9    13   ar
    17    10    11    1
    18    11    12    1
    19    13    14   ar
    20    16    17   ar
    21    16    23   ar
    22    17    18   ar
    23    17    20   ar
    24    18    19    2
    25    20    21   ar
    26    21    22   ar
    27    22    23   ar
    28    24    25   ar
    29    24    31   ar
    30    25    26    1
    31    25    28   ar
    32    26    27    1
    33    28    29   ar
    34    29    30   ar
    35    30    31   ar
