@<TRIPOS>MOLECULE
30453_ChemDiv_3875-0108
 24 27 0 0 0
SMALL
GASTEIGER
Energy = 0

@<TRIPOS>ATOM
      1 C          -0.8750    0.7880    0.0000 C.3     1  LIG1        0.2860
      2 O          -1.7380    1.3000    0.0000 O.3     1  LIG1       -0.4629
      3 C          -2.6040    0.8040    0.0000 C.ar    1  LIG1        0.1729
      4 C          -2.6040   -0.2000    0.0000 C.ar    1  LIG1        0.1724
      5 O          -1.7380   -0.7000    0.0000 O.3     1  LIG1       -0.4679
      6 C          -0.8750   -0.1880    0.0000 C.3     1  LIG1        0.2584
      7 C          -3.4750   -0.7000    0.0000 C.ar    1  LIG1        0.0400
      8 C          -4.3380   -0.1880    0.0000 C.ar    1  LIG1        0.0033
      9 C          -4.3380    0.7880    0.0000 C.ar    1  LIG1        0.0033
     10 C          -3.4750    1.3000    0.0000 C.ar    1  LIG1        0.0401
     11 C           0.0040    1.2830    0.0000 C.2     1  LIG1        0.2856
     12 N           0.8750    0.7710    0.0000 N.am    1  LIG1       -0.1993
     13 C           1.7500    1.2540    0.0000 C.3     1  LIG1        0.1492
     14 C           2.6040    0.7460    0.0000 C.3     1  LIG1        0.1587
     15 C           2.5920   -0.2580    0.0000 C.ar    1  LIG1        0.0024
     16 C           3.4420   -0.7710    0.0000 C.ar    1  LIG1       -0.0213
     17 C           4.3210   -0.2710    0.0000 C.3     1  LIG1        0.0582
     18 C           4.3330    0.7170    0.0000 C.3     1  LIG1        0.1472
     19 O           3.4790    1.2290    0.0000 O.3     1  LIG1       -0.3497
     20 C           3.4420   -1.7750    0.0000 C.ar    1  LIG1       -0.0044
     21 C           2.5750   -2.2710    0.0000 C.ar    1  LIG1       -0.0003
     22 C           1.7080   -1.7630    0.0000 C.ar    1  LIG1       -0.0003
     23 C           1.7080   -0.7540    0.0000 C.ar    1  LIG1       -0.0022
     24 O           0.0380    2.2750    0.0000 O.2     1  LIG1       -0.2693
@<TRIPOS>BOND
     1     1     2    1
     2     1     6    1
     3     1    11    1
     4     2     3    1
     5     3     4   ar
     6     3    10   ar
     7     4     5    1
     8     4     7   ar
     9     5     6    1
    10     7     8   ar
    11     8     9   ar
    12     9    10   ar
    13    11    12   am
    14    11    24    2
    15    12    13    1
    16    13    14    1
    17    14    15    1
    18    14    19    1
    19    15    16   ar
    20    15    23   ar
    21    16    17    1
    22    16    20   ar
    23    17    18    1
    24    18    19    1
    25    20    21   ar
    26    21    22   ar
    27    22    23   ar
