@<TRIPOS>MOLECULE
30459_ChemDiv_4251-0435
 16 17 0 0 0
SMALL
GASTEIGER
Energy = 0

@<TRIPOS>ATOM
      1 N           3.5040   -0.7380    0.0000 N.1     1  LIG1       -0.1958
      2 C           2.5830   -1.2420    0.0000 C.1     1  LIG1        0.0747
      3 C           1.7330   -1.7330    0.0000 C.3     1  LIG1        0.1241
      4 C           0.8790   -1.2420    0.0000 C.3     1  LIG1        0.1050
      5 N          -0.0420   -1.7330    0.0000 N.3     1  LIG1       -0.2140
      6 C          -0.8960   -1.2420    0.0000 C.3     1  LIG1        0.1227
      7 C          -0.8960   -0.2460    0.0000 C.3     1  LIG1        0.1545
      8 C          -1.7460    0.2540    0.0000 C.ar    1  LIG1        0.0021
      9 C          -1.7460    1.2380    0.0000 C.ar    1  LIG1       -0.0213
     10 C          -0.8960    1.7380    0.0000 C.3     1  LIG1        0.0582
     11 C          -0.0420    1.2380    0.0000 C.3     1  LIG1        0.1472
     12 O          -0.0420    0.2540    0.0000 O.3     1  LIG1       -0.3500
     13 C          -2.5960    1.7380    0.0000 C.ar    1  LIG1       -0.0044
     14 C          -3.5080    1.2380    0.0000 C.ar    1  LIG1       -0.0003
     15 C          -3.5080    0.2540    0.0000 C.ar    1  LIG1       -0.0003
     16 C          -2.5960   -0.2460    0.0000 C.ar    1  LIG1       -0.0022
@<TRIPOS>BOND
     1     1     2    3
     2     2     3    1
     3     3     4    1
     4     4     5    1
     5     5     6    1
     6     6     7    1
     7     7     8    1
     8     7    12    1
     9     8     9   ar
    10     8    16   ar
    11     9    10    1
    12     9    13   ar
    13    10    11    1
    14    11    12    1
    15    13    14   ar
    16    14    15   ar
    17    15    16   ar
