@<TRIPOS>MOLECULE
30466_ChemDiv_4052-3038
 31 36 0 0 0
SMALL
GASTEIGER
Energy = 0

@<TRIPOS>ATOM
      1 C          -3.1670   -0.5250    0.0000 C.ar    1  LIG1        0.0560
      2 C          -2.5000   -1.2670    0.0000 C.ar    1  LIG1        0.1357
      3 N          -1.5170   -1.2670    0.0000 N.pl3   1  LIG1       -0.2823
      4 C          -1.0210   -0.3790    0.0000 C.3     1  LIG1        0.1555
      5 C          -0.0080   -0.3790    0.0000 C.3     1  LIG1        0.1610
      6 N           0.4880   -1.2380    0.0000 N.4     1  LIG1        0.3834
      7 C           1.4830   -1.2670    0.0000 C.3     1  LIG1        0.1664
      8 C           2.0500   -0.4080    0.0000 C.ar    1  LIG1        0.0376
      9 C           3.0540   -0.4080    0.0000 C.ar    1  LIG1        0.0416
     10 C           3.5500    0.4500    0.0000 C.ar    1  LIG1        0.1763
     11 C           3.0540    1.3630    0.0000 C.ar    1  LIG1        0.1764
     12 O           3.7670    2.0580    0.0000 O.3     1  LIG1       -0.4346
     13 C           4.6420    1.6080    0.0000 C.3     1  LIG1        0.4294
     14 O           4.5460    0.6250    0.0000 O.3     1  LIG1       -0.4346
     15 C           2.0500    1.3380    0.0000 C.ar    1  LIG1        0.0401
     16 C           1.5540    0.4630    0.0000 C.ar    1  LIG1        0.0048
     17 C          -0.0250   -2.1130    0.0000 C.3     1  LIG1        0.1610
     18 C          -1.0080   -2.1130    0.0000 C.3     1  LIG1        0.1555
     19 N          -2.7960   -2.1830    0.0000 N.ar    1  LIG1       -0.2090
     20 C          -3.8080   -2.4000    0.0000 C.ar    1  LIG1        0.2005
     21 N          -4.4750   -1.6420    0.0000 N.ar    1  LIG1       -0.2172
     22 C          -4.1500   -0.7250    0.0000 C.ar    1  LIG1        0.1152
     23 S          -4.6460    0.1170    0.0000 S.2     1  LIG1       -0.0674
     24 C          -3.9790    0.8290    0.0000 C.ar    1  LIG1        0.0370
     25 C          -3.0630    0.4330    0.0000 C.ar    1  LIG1        0.0112
     26 C          -2.1750    0.9000    0.0000 C.ar    1  LIG1        0.0007
     27 C          -2.1500    1.9040    0.0000 C.ar    1  LIG1        0.0000
     28 C          -1.2460    2.4040    0.0000 C.ar    1  LIG1        0.0000
     29 C          -0.4000    1.8630    0.0000 C.ar    1  LIG1        0.0000
     30 C          -0.4210    0.8670    0.0000 C.ar    1  LIG1        0.0000
     31 C          -1.3170    0.3790    0.0000 C.ar    1  LIG1        0.0000
@<TRIPOS>BOND
     1     1     2   ar
     2     1    22   ar
     3     1    25   ar
     4     2     3    1
     5     2    19   ar
     6     3     4    1
     7     3    18    1
     8     4     5    1
     9     5     6    1
    10     6     7    1
    11     6    17    1
    12     7     8    1
    13     8     9   ar
    14     8    16   ar
    15     9    10   ar
    16    10    11   ar
    17    10    14    1
    18    11    12    1
    19    11    15   ar
    20    12    13    1
    21    13    14    1
    22    15    16   ar
    23    17    18    1
    24    19    20   ar
    25    20    21   ar
    26    21    22   ar
    27    22    23   ar
    28    23    24   ar
    29    24    25   ar
    30    25    26    1
    31    26    27   ar
    32    26    31   ar
    33    27    28   ar
    34    28    29   ar
    35    29    30   ar
    36    30    31   ar
