@<TRIPOS>MOLECULE
30462_ChemDiv_K979-1000
 36 40 0 0 0
SMALL
GASTEIGER
Energy = 0

@<TRIPOS>ATOM
      1 N           0.8540    2.2630    0.0000 N.ar    1  LIG1       -0.1913
      2 N           0.8540    1.2500    0.0000 N.ar    1  LIG1       -0.1578
      3 C          -0.0250    0.7500    0.0000 C.ar    1  LIG1        0.1548
      4 C          -0.0250   -0.2420    0.0000 C.2     1  LIG1        0.2685
      5 N          -0.8960   -0.7460    0.0000 N.am    1  LIG1       -0.2748
      6 C          -0.8960   -1.7460    0.0000 C.3     1  LIG1        0.0938
      7 C          -1.7500   -2.2380    0.0000 C.3     1  LIG1        0.0219
      8 C          -2.6170   -1.7420    0.0000 C.3     1  LIG1        0.0078
      9 C          -3.4790   -2.2460    0.0000 C.3     1  LIG1        0.0265
     10 C          -3.4790   -3.2420    0.0000 C.ar    1  LIG1       -0.0222
     11 C          -4.3290   -3.7500    0.0000 C.ar    1  LIG1       -0.0043
     12 C          -4.3290   -4.7500    0.0000 C.ar    1  LIG1       -0.0003
     13 C          -3.4710   -5.2460    0.0000 C.ar    1  LIG1       -0.0000
     14 C          -2.6040   -4.7460    0.0000 C.ar    1  LIG1       -0.0003
     15 C          -2.6080   -3.7420    0.0000 C.ar    1  LIG1       -0.0043
     16 C          -2.6170   -0.7500    0.0000 C.3     1  LIG1        0.0219
     17 C          -1.7630   -0.2420    0.0000 C.3     1  LIG1        0.0938
     18 O           0.8380   -0.7460    0.0000 O.2     1  LIG1       -0.2682
     19 C          -0.8960    1.2500    0.0000 C.ar    1  LIG1        0.0285
     20 C          -0.8880    2.2630    0.0000 C.ar    1  LIG1        0.0596
     21 C          -0.0250    2.7750    0.0000 C.ar    1  LIG1        0.2804
     22 O          -0.0250    3.7710    0.0000 O.2     1  LIG1       -0.2652
     23 C          -1.7580    2.7630    0.0000 C.ar    1  LIG1        0.0048
     24 C          -2.6170    2.2630    0.0000 C.ar    1  LIG1        0.0002
     25 C          -2.6170    1.2500    0.0000 C.ar    1  LIG1        0.0001
     26 C          -1.7580    0.7540    0.0000 C.ar    1  LIG1        0.0019
     27 C           1.7250    2.7630    0.0000 C.ar    1  LIG1        0.1200
     28 C           2.5920    2.2500    0.0000 C.ar    1  LIG1        0.1594
     29 C           3.4460    2.7540    0.0000 C.ar    1  LIG1        0.0753
     30 C           3.4540    3.7540    0.0000 C.ar    1  LIG1        0.1419
     31 C           2.5880    4.2540    0.0000 C.ar    1  LIG1        0.0387
     32 C           1.7250    3.7540    0.0000 C.ar    1  LIG1        0.0255
     33 O           4.3250    4.2500    0.0000 O.3     1  LIG1       -0.4713
     34 C           4.3250    5.2460    0.0000 C.3     1  LIG1        0.2525
     35 O           2.5880    1.2580    0.0000 O.3     1  LIG1       -0.4698
     36 C           3.4460    0.7540    0.0000 C.3     1  LIG1        0.2525
@<TRIPOS>BOND
     1     1     2   ar
     2     1    21   ar
     3     1    27    1
     4     2     3   ar
     5     3     4    1
     6     3    19   ar
     7     4     5   am
     8     4    18    2
     9     5     6    1
    10     5    17    1
    11     6     7    1
    12     7     8    1
    13     8     9    1
    14     8    16    1
    15     9    10    1
    16    10    11   ar
    17    10    15   ar
    18    11    12   ar
    19    12    13   ar
    20    13    14   ar
    21    14    15   ar
    22    16    17    1
    23    19    20   ar
    24    19    26   ar
    25    20    21   ar
    26    20    23   ar
    27    21    22    2
    28    23    24   ar
    29    24    25   ar
    30    25    26   ar
    31    27    28   ar
    32    27    32   ar
    33    28    29   ar
    34    28    35    1
    35    29    30   ar
    36    30    31   ar
    37    30    33    1
    38    31    32   ar
    39    33    34    1
    40    35    36    1
