@<TRIPOS>MOLECULE
30460_ChemDiv_K979-0710
 33 37 0 0 0
SMALL
GASTEIGER
Energy = 0

@<TRIPOS>ATOM
      1 C          -0.8670    0.5000    0.0000 C.ar    1  LIG1        0.1566
      2 N           0.0080    1.0000    0.0000 N.ar    1  LIG1       -0.1579
      3 N          -0.0040    2.0080    0.0000 N.ar    1  LIG1       -0.1943
      4 C          -0.8790    2.5170    0.0000 C.ar    1  LIG1        0.2803
      5 C          -1.7380    2.0080    0.0000 C.ar    1  LIG1        0.0596
      6 C          -1.7380    1.0000    0.0000 C.ar    1  LIG1        0.0286
      7 C          -2.6000    0.4960    0.0000 C.ar    1  LIG1        0.0019
      8 C          -3.4540    0.9960    0.0000 C.ar    1  LIG1        0.0001
      9 C          -3.4630    2.0000    0.0000 C.ar    1  LIG1        0.0002
     10 C          -2.6080    2.4920    0.0000 C.ar    1  LIG1        0.0048
     11 O          -0.8790    3.5130    0.0000 O.2     1  LIG1       -0.2652
     12 C           0.8670    2.5080    0.0000 C.ar    1  LIG1        0.0862
     13 C           0.8630    3.5040    0.0000 C.ar    1  LIG1        0.0224
     14 C           1.7250    4.0000    0.0000 C.ar    1  LIG1        0.0384
     15 C           2.5880    3.5130    0.0000 C.ar    1  LIG1        0.1386
     16 C           2.5880    2.5130    0.0000 C.ar    1  LIG1        0.0384
     17 C           1.7330    2.0080    0.0000 C.ar    1  LIG1        0.0224
     18 O           3.4580    4.0040    0.0000 O.3     1  LIG1       -0.4755
     19 C           3.4540    5.0040    0.0000 C.3     1  LIG1        0.2055
     20 C           2.5830    5.5040    0.0000 C.3     1  LIG1        0.0512
     21 C          -0.8630   -0.4880    0.0000 C.2     1  LIG1        0.2885
     22 N          -1.7290   -0.9880    0.0000 N.am    1  LIG1       -0.1725
     23 C          -1.7290   -2.0040    0.0000 C.ar    1  LIG1        0.0929
     24 C          -2.5920   -2.5000    0.0000 C.ar    1  LIG1        0.0197
     25 C          -2.5920   -3.5000    0.0000 C.ar    1  LIG1        0.0190
     26 C          -1.7210   -4.0000    0.0000 C.ar    1  LIG1        0.0814
     27 N          -0.8540   -3.5040    0.0000 N.ar    1  LIG1       -0.2425
     28 C          -0.8540   -2.5040    0.0000 C.ar    1  LIG1        0.1153
     29 C          -1.7170   -5.0000    0.0000 C.ar    1  LIG1        0.0191
     30 C          -2.5830   -5.5040    0.0000 C.ar    1  LIG1        0.0015
     31 C          -3.4460   -5.0000    0.0000 C.ar    1  LIG1        0.0001
     32 C          -3.4460   -3.9960    0.0000 C.ar    1  LIG1        0.0015
     33 O          -0.0040   -0.9960    0.0000 O.2     1  LIG1       -0.2663
@<TRIPOS>BOND
     1     1     2   ar
     2     1     6   ar
     3     1    21    1
     4     2     3   ar
     5     3     4   ar
     6     3    12    1
     7     4     5   ar
     8     4    11    2
     9     5     6   ar
    10     5    10   ar
    11     6     7   ar
    12     7     8   ar
    13     8     9   ar
    14     9    10   ar
    15    12    13   ar
    16    12    17   ar
    17    13    14   ar
    18    14    15   ar
    19    15    16   ar
    20    15    18    1
    21    16    17   ar
    22    18    19    1
    23    19    20    1
    24    21    22   am
    25    21    33    2
    26    22    23    1
    27    23    24   ar
    28    23    28   ar
    29    24    25   ar
    30    25    26   ar
    31    25    32   ar
    32    26    27   ar
    33    26    29   ar
    34    27    28   ar
    35    29    30   ar
    36    30    31   ar
    37    31    32   ar
