@<TRIPOS>MOLECULE
30464_ChemDiv_K979-1043
 34 37 0 0 0
SMALL
GASTEIGER
Energy = 0

@<TRIPOS>ATOM
      1 N           0.4330    2.2710    0.0000 N.ar    1  LIG1       -0.1913
      2 N           0.4330    1.2630    0.0000 N.ar    1  LIG1       -0.1578
      3 C          -0.4460    0.7580    0.0000 C.ar    1  LIG1        0.1566
      4 C          -0.4460   -0.2290    0.0000 C.2     1  LIG1        0.2884
      5 N          -1.3130   -0.7290    0.0000 N.am    1  LIG1       -0.1741
      6 C          -1.3130   -1.7460    0.0000 C.ar    1  LIG1        0.0750
      7 C          -2.1750   -2.2500    0.0000 C.ar    1  LIG1        0.0332
      8 C          -2.1750   -3.2500    0.0000 C.ar    1  LIG1        0.0747
      9 N          -3.0290   -3.7500    0.0000 N.am    1  LIG1       -0.1792
     10 C          -3.0420   -4.7500    0.0000 C.2     1  LIG1        0.2461
     11 O          -3.9040   -5.2500    0.0000 O.2     1  LIG1       -0.2730
     12 C          -2.1750   -5.2420    0.0000 C.3     1  LIG1        0.0968
     13 C          -1.3040   -3.7420    0.0000 C.ar    1  LIG1        0.0167
     14 C          -0.4460   -3.2420    0.0000 C.ar    1  LIG1        0.0027
     15 C          -0.4380   -2.2380    0.0000 C.ar    1  LIG1        0.0167
     16 O           0.4170   -0.7290    0.0000 O.2     1  LIG1       -0.2663
     17 C          -1.3130    1.2630    0.0000 C.ar    1  LIG1        0.0286
     18 C          -1.3040    2.2710    0.0000 C.ar    1  LIG1        0.0596
     19 C          -0.4460    2.7830    0.0000 C.ar    1  LIG1        0.2804
     20 O          -0.4460    3.7790    0.0000 O.2     1  LIG1       -0.2652
     21 C          -2.1750    2.7710    0.0000 C.ar    1  LIG1        0.0048
     22 C          -3.0290    2.2710    0.0000 C.ar    1  LIG1        0.0002
     23 C          -3.0290    1.2630    0.0000 C.ar    1  LIG1        0.0001
     24 C          -2.1750    0.7670    0.0000 C.ar    1  LIG1        0.0019
     25 C           1.3040    2.7710    0.0000 C.ar    1  LIG1        0.1200
     26 C           2.1710    2.2630    0.0000 C.ar    1  LIG1        0.1594
     27 C           3.0250    2.7630    0.0000 C.ar    1  LIG1        0.0753
     28 C           3.0290    3.7630    0.0000 C.ar    1  LIG1        0.1419
     29 C           2.1630    4.2580    0.0000 C.ar    1  LIG1        0.0387
     30 C           1.3040    3.7630    0.0000 C.ar    1  LIG1        0.0255
     31 O           3.9000    4.2540    0.0000 O.3     1  LIG1       -0.4713
     32 C           3.9000    5.2500    0.0000 C.3     1  LIG1        0.2525
     33 O           2.1630    1.2710    0.0000 O.3     1  LIG1       -0.4698
     34 C           3.0250    0.7670    0.0000 C.3     1  LIG1        0.2525
@<TRIPOS>BOND
     1     1     2   ar
     2     1    19   ar
     3     1    25    1
     4     2     3   ar
     5     3     4    1
     6     3    17   ar
     7     4     5   am
     8     4    16    2
     9     5     6    1
    10     6     7   ar
    11     6    15   ar
    12     7     8   ar
    13     8     9    1
    14     8    13   ar
    15     9    10   am
    16    10    11    2
    17    10    12    1
    18    13    14   ar
    19    14    15   ar
    20    17    18   ar
    21    17    24   ar
    22    18    19   ar
    23    18    21   ar
    24    19    20    2
    25    21    22   ar
    26    22    23   ar
    27    23    24   ar
    28    25    26   ar
    29    25    30   ar
    30    26    27   ar
    31    26    33    1
    32    27    28   ar
    33    28    29   ar
    34    28    31    1
    35    29    30   ar
    36    31    32    1
    37    33    34    1
