@<TRIPOS>MOLECULE
30468_ChemDiv_4052-3375
 35 39 0 0 0
SMALL
GASTEIGER
Energy = 0

@<TRIPOS>ATOM
      1 C          -1.5130    1.0630    0.0000 C.ar    1  LIG1        0.1030
      2 C          -1.4880    0.0670    0.0000 C.3     1  LIG1        0.2312
      3 O          -0.6330   -0.4290    0.0000 O.3     1  LIG1       -0.4384
      4 C           0.2330    0.0790    0.0000 C.2     1  LIG1        0.3420
      5 C           1.1920   -0.1670    0.0000 C.ar    1  LIG1        0.0819
      6 C           1.4670   -1.1170    0.0000 C.ar    1  LIG1        0.0467
      7 C           2.4420   -1.3580    0.0000 C.ar    1  LIG1        0.1757
      8 C           3.1290   -0.6380    0.0000 C.ar    1  LIG1        0.2061
      9 C           2.8380    0.3330    0.0000 C.ar    1  LIG1        0.1757
     10 C           1.8750    0.5580    0.0000 C.ar    1  LIG1        0.0467
     11 O           3.5250    1.0500    0.0000 O.3     1  LIG1       -0.4683
     12 C           3.2500    2.0040    0.0000 C.3     1  LIG1        0.2526
     13 O           4.0880   -0.8710    0.0000 O.3     1  LIG1       -0.4654
     14 C           4.8000   -0.1460    0.0000 C.3     1  LIG1        0.2528
     15 O           2.7130   -2.2960    0.0000 O.3     1  LIG1       -0.4683
     16 C           3.6790   -2.5420    0.0000 C.3     1  LIG1        0.2526
     17 O           0.1830    1.1460    0.0000 O.2     1  LIG1       -0.2449
     18 C          -2.3540   -0.4540    0.0000 C.ar    1  LIG1        0.0263
     19 C          -2.3380   -1.4420    0.0000 C.ar    1  LIG1        0.0398
     20 C          -3.2000   -1.9630    0.0000 C.ar    1  LIG1        0.1762
     21 C          -4.0790   -1.4830    0.0000 C.ar    1  LIG1        0.1764
     22 O          -4.8040   -2.1460    0.0000 O.3     1  LIG1       -0.4346
     23 C          -4.3880   -3.0580    0.0000 C.3     1  LIG1        0.4294
     24 O          -3.3960   -2.9330    0.0000 O.3     1  LIG1       -0.4346
     25 C          -4.0830   -0.4630    0.0000 C.ar    1  LIG1        0.0400
     26 C          -3.2330    0.0290    0.0000 C.ar    1  LIG1        0.0029
     27 C          -2.3750    1.5420    0.0000 C.ar    1  LIG1        0.0174
     28 C          -2.3880    2.5460    0.0000 C.ar    1  LIG1        0.0028
     29 C          -1.5290    3.0630    0.0000 C.ar    1  LIG1        0.0207
     30 C          -0.6460    2.5710    0.0000 C.ar    1  LIG1        0.0986
     31 N          -0.6460    1.5750    0.0000 N.ar    1  LIG1       -0.2443
     32 C          -3.2380    3.0500    0.0000 C.ar    1  LIG1        0.0001
     33 C          -4.1170    2.5380    0.0000 C.ar    1  LIG1        0.0000
     34 C          -4.1170    1.5380    0.0000 C.ar    1  LIG1        0.0000
     35 C          -3.2380    1.0500    0.0000 C.ar    1  LIG1        0.0013
@<TRIPOS>BOND
     1     1     2    1
     2     1    27   ar
     3     1    31   ar
     4     2     3    1
     5     2    18    1
     6     3     4    1
     7     4     5    1
     8     4    17    2
     9     5     6   ar
    10     5    10   ar
    11     6     7   ar
    12     7     8   ar
    13     7    15    1
    14     8     9   ar
    15     8    13    1
    16     9    10   ar
    17     9    11    1
    18    11    12    1
    19    13    14    1
    20    15    16    1
    21    18    19   ar
    22    18    26   ar
    23    19    20   ar
    24    20    21   ar
    25    20    24    1
    26    21    22    1
    27    21    25   ar
    28    22    23    1
    29    23    24    1
    30    25    26   ar
    31    27    28   ar
    32    27    35   ar
    33    28    29   ar
    34    28    32   ar
    35    29    30   ar
    36    30    31   ar
    37    32    33   ar
    38    33    34   ar
    39    34    35   ar
