@<TRIPOS>MOLECULE
30461_ChemDiv_4640-0044
 23 25 0 0 0
SMALL
GASTEIGER
Energy = 0

@<TRIPOS>ATOM
      1 C          -0.4500   -2.0000    0.0000 C.2     1  LIG1        0.2453
      2 N          -0.4500   -1.0040    0.0000 N.am    1  LIG1       -0.2024
      3 C          -1.3170   -0.4960    0.0000 C.3     1  LIG1        0.1491
      4 C          -1.3170    0.5000    0.0000 C.3     1  LIG1        0.1587
      5 C          -2.1830    1.0080    0.0000 C.ar    1  LIG1        0.0024
      6 C          -2.1830    2.0040    0.0000 C.ar    1  LIG1       -0.0213
      7 C          -1.3170    2.5130    0.0000 C.3     1  LIG1        0.0582
      8 C          -0.4500    2.0040    0.0000 C.3     1  LIG1        0.1472
      9 O          -0.4500    1.0080    0.0000 O.3     1  LIG1       -0.3497
     10 C          -3.0460    2.5130    0.0000 C.ar    1  LIG1       -0.0044
     11 C          -3.9080    2.0040    0.0000 C.ar    1  LIG1       -0.0003
     12 C          -3.9080    1.0080    0.0000 C.ar    1  LIG1       -0.0003
     13 C          -3.0460    0.5000    0.0000 C.ar    1  LIG1       -0.0022
     14 C           0.4210   -2.5080    0.0000 C.3     1  LIG1        0.1340
     15 C           1.2830   -2.0000    0.0000 C.3     1  LIG1        0.2150
     16 O           1.2830   -1.0040    0.0000 O.3     1  LIG1       -0.4749
     17 C           2.1460   -0.5080    0.0000 C.ar    1  LIG1        0.1386
     18 C           3.0380   -1.0040    0.0000 C.ar    1  LIG1        0.0369
     19 C           3.9040   -0.5210    0.0000 C.ar    1  LIG1        0.0031
     20 C           3.9040    0.4830    0.0000 C.ar    1  LIG1        0.0002
     21 C           3.0380    0.9540    0.0000 C.ar    1  LIG1        0.0031
     22 C           2.1750    0.4830    0.0000 C.ar    1  LIG1        0.0369
     23 O          -1.3170   -2.5080    0.0000 O.2     1  LIG1       -0.2732
@<TRIPOS>BOND
     1     1     2   am
     2     1    14    1
     3     1    23    2
     4     2     3    1
     5     3     4    1
     6     4     5    1
     7     4     9    1
     8     5     6   ar
     9     5    13   ar
    10     6     7    1
    11     6    10   ar
    12     7     8    1
    13     8     9    1
    14    10    11   ar
    15    11    12   ar
    16    12    13   ar
    17    14    15    1
    18    15    16    1
    19    16    17    1
    20    17    18   ar
    21    17    22   ar
    22    18    19   ar
    23    19    20   ar
    24    20    21   ar
    25    21    22   ar
