@<TRIPOS>MOLECULE
30473_ChemDiv_3807-2814
 22 24 0 0 0
SMALL
GASTEIGER
Energy = 0

@<TRIPOS>ATOM
      1 C          -0.5500    0.3170    0.0000 C.ar    1  LIG1        0.0309
      2 C          -0.5500    1.3460    0.0000 C.ar    1  LIG1        0.0072
      3 C           0.3210    1.8210    0.0000 C.ar    1  LIG1        0.0056
      4 C           1.1920    1.3460    0.0000 C.ar    1  LIG1       -0.0019
      5 C           1.1920    0.3170    0.0000 C.ar    1  LIG1       -0.0004
      6 C           0.3210   -0.1540    0.0000 C.ar    1  LIG1        0.0011
      7 C           2.0710   -0.1540    0.0000 C.ar    1  LIG1       -0.0000
      8 C           2.9250    0.3170    0.0000 C.ar    1  LIG1       -0.0000
      9 C           2.9250    1.3460    0.0000 C.ar    1  LIG1       -0.0000
     10 C           2.0710    1.8210    0.0000 C.ar    1  LIG1       -0.0002
     11 C           0.0920    2.8130    0.0000 C.3     1  LIG1        0.1688
     12 O          -0.8920    2.9210    0.0000 O.3     1  LIG1       -0.3443
     13 C          -1.2960    2.0290    0.0000 C.3     1  LIG1        0.1687
     14 C          -1.4330   -0.1790    0.0000 C.3     1  LIG1        0.1359
     15 N          -1.4330   -1.1790    0.0000 N.4     1  LIG1        0.3049
     16 C          -2.4330   -1.1790    0.0000 C.3     1  LIG1        0.1091
     17 C          -2.9290   -2.0380    0.0000 C.3     1  LIG1        0.0610
     18 C          -2.4500   -2.9170    0.0000 C.3     1  LIG1        0.0063
     19 C          -1.4330   -2.1750    0.0000 C.3     1  LIG1        0.1091
     20 C          -0.5540   -2.6880    0.0000 C.3     1  LIG1        0.0610
     21 C           0.3040   -2.1920    0.0000 C.3     1  LIG1        0.0063
     22 C          -0.4330   -1.1790    0.0000 C.3     1  LIG1        0.1708
@<TRIPOS>BOND
     1     1     2   ar
     2     1     6   ar
     3     1    14    1
     4     2     3   ar
     5     2    13    1
     6     3     4   ar
     7     3    11    1
     8     4     5   ar
     9     4    10   ar
    10     5     6   ar
    11     5     7   ar
    12     7     8   ar
    13     8     9   ar
    14     9    10   ar
    15    11    12    1
    16    12    13    1
    17    14    15    1
    18    15    16    1
    19    15    19    1
    20    15    22    1
    21    16    17    1
    22    17    18    1
    23    19    20    1
    24    20    21    1
