@<TRIPOS>MOLECULE
30470_ChemDiv_4055-0022
 21 23 0 0 0
SMALL
GASTEIGER
Energy = 0

@<TRIPOS>ATOM
      1 N          -0.8670    0.4830    0.0000 N.pl3   1  LIG1       -0.2805
      2 C           0.0000    0.9960    0.0000 C.ar    1  LIG1        0.0580
      3 C           0.0000    1.9880    0.0000 C.ar    1  LIG1        0.0461
      4 S          -0.8880    2.5000    0.0000 S.3     1  LIG1       -0.0843
      5 C          -1.7330    1.9830    0.0000 C.ar    1  LIG1        0.0431
      6 C          -1.7330    0.9790    0.0000 C.ar    1  LIG1        0.0578
      7 C          -2.5920    0.4830    0.0000 C.ar    1  LIG1        0.0153
      8 C          -3.4580    0.9710    0.0000 C.ar    1  LIG1        0.0013
      9 C          -3.4670    1.9830    0.0000 C.ar    1  LIG1        0.0006
     10 C          -2.6040    2.4750    0.0000 C.ar    1  LIG1        0.0077
     11 C           0.8580    2.5000    0.0000 C.ar    1  LIG1        0.0446
     12 C           1.7290    2.0040    0.0000 C.ar    1  LIG1        0.1393
     13 C           1.7290    0.9960    0.0000 C.ar    1  LIG1        0.0382
     14 C           0.8750    0.4920    0.0000 C.ar    1  LIG1        0.0184
     15 O           2.5790    2.5130    0.0000 O.3     1  LIG1       -0.4714
     16 C           3.4630    2.0290    0.0000 C.3     1  LIG1        0.2525
     17 C          -0.8670   -0.5040    0.0000 C.3     1  LIG1        0.1585
     18 C           0.0000   -0.9960    0.0000 C.3     1  LIG1        0.1614
     19 N           0.0000   -2.0000    0.0000 N.4     1  LIG1        0.3881
     20 C          -0.8670   -2.5080    0.0000 C.3     1  LIG1        0.2026
     21 C           0.8580   -2.4960    0.0000 C.3     1  LIG1        0.2026
@<TRIPOS>BOND
     1     1     2    1
     2     1     6    1
     3     1    17    1
     4     2     3   ar
     5     2    14   ar
     6     3     4    1
     7     3    11   ar
     8     4     5    1
     9     5     6   ar
    10     5    10   ar
    11     6     7   ar
    12     7     8   ar
    13     8     9   ar
    14     9    10   ar
    15    11    12   ar
    16    12    13   ar
    17    12    15    1
    18    13    14   ar
    19    15    16    1
    20    17    18    1
    21    18    19    1
    22    19    20    1
    23    19    21    1
