@<TRIPOS>MOLECULE
30475_ChemDiv_4251-0523
 15 16 0 0 0
SMALL
GASTEIGER
Energy = 0

@<TRIPOS>ATOM
      1 C           0.5580   -0.0710    0.0000 C.ar    1  LIG1        0.0325
      2 C           1.4040    0.5000    0.0000 C.ar    1  LIG1        0.0072
      3 C           2.2500   -0.0710    0.0000 C.ar    1  LIG1        0.0056
      4 C           2.9540    0.6420    0.0000 C.3     1  LIG1        0.1688
      5 O           2.5960    1.5460    0.0000 O.3     1  LIG1       -0.3443
      6 C           1.6170    1.4130    0.0000 C.3     1  LIG1        0.1687
      7 C           2.2500   -1.0460    0.0000 C.ar    1  LIG1       -0.0021
      8 C           1.4040   -1.5420    0.0000 C.ar    1  LIG1       -0.0004
      9 C           0.5580   -1.0460    0.0000 C.ar    1  LIG1        0.0012
     10 C          -0.3580    0.5000    0.0000 C.3     1  LIG1        0.1659
     11 N          -1.2000   -0.0710    0.0000 N.4     1  LIG1        0.3807
     12 C          -1.2000   -1.0460    0.0000 C.3     1  LIG1        0.1392
     13 C          -2.0460   -1.5420    0.0000 C.3     1  LIG1        0.0689
     14 C          -2.0460    0.5000    0.0000 C.3     1  LIG1        0.1392
     15 C          -2.9580   -0.0710    0.0000 C.3     1  LIG1        0.0689
@<TRIPOS>BOND
     1     1     2   ar
     2     1     9   ar
     3     1    10    1
     4     2     3   ar
     5     2     6    1
     6     3     4    1
     7     3     7   ar
     8     4     5    1
     9     5     6    1
    10     7     8   ar
    11     8     9   ar
    12    10    11    1
    13    11    12    1
    14    11    14    1
    15    12    13    1
    16    14    15    1
