@<TRIPOS>MOLECULE
30478_ChemDiv_4060-0011
 26 29 0 0 0
SMALL
GASTEIGER
Energy = 0

@<TRIPOS>ATOM
      1 C           0.8750    1.2880    0.0000 C.2     1  LIG1        0.4484
      2 N           1.8830    1.2880    0.0000 N.am    1  LIG1       -0.0001
      3 C           2.3750    0.4210    0.0000 C.2     1  LIG1        0.3227
      4 C           1.8830   -0.4380    0.0000 C.3     1  LIG1        0.1591
      5 C           0.8750   -0.4380    0.0000 C.3     1  LIG1        0.2682
      6 N           0.3830    0.4210    0.0000 N.2     1  LIG1       -0.0891
      7 C           0.3830   -1.3880    0.0000 C.2     1  LIG1        0.2861
      8 N           0.8750   -2.2460    0.0000 N.am    1  LIG1       -0.1763
      9 C           1.8830   -2.2460    0.0000 C.ar    1  LIG1        0.0735
     10 C           2.3750   -3.0960    0.0000 C.ar    1  LIG1        0.0166
     11 C           3.3630   -3.0960    0.0000 C.ar    1  LIG1        0.0013
     12 C           3.8710   -2.2460    0.0000 C.ar    1  LIG1        0.0001
     13 C           3.3630   -1.3880    0.0000 C.ar    1  LIG1        0.0013
     14 C           2.3750   -1.3880    0.0000 C.ar    1  LIG1        0.0166
     15 O          -0.6040   -1.3880    0.0000 O.2     1  LIG1       -0.2692
     16 O           3.4210    0.4210    0.0000 O.2     1  LIG1       -0.2533
     17 N           0.3830    2.1460    0.0000 N.pl3   1  LIG1       -0.0106
     18 C          -0.6040    2.1080    0.0000 C.ar    1  LIG1        0.2619
     19 N          -1.2000    1.2880    0.0000 N.ar    1  LIG1       -0.2077
     20 C          -2.1500    1.6000    0.0000 C.ar    1  LIG1        0.0907
     21 C          -2.1500    2.6000    0.0000 C.ar    1  LIG1        0.0512
     22 S          -1.2000    2.9080    0.0000 S.2     1  LIG1       -0.0316
     23 C          -3.0080    3.1000    0.0000 C.ar    1  LIG1        0.0081
     24 C          -3.8750    2.6000    0.0000 C.ar    1  LIG1        0.0006
     25 C          -3.8750    1.6000    0.0000 C.ar    1  LIG1        0.0016
     26 C          -3.0080    1.1000    0.0000 C.ar    1  LIG1        0.0197
@<TRIPOS>BOND
     1     1     2    1
     2     1     6    2
     3     1    17    1
     4     2     3   am
     5     3     4    1
     6     3    16    2
     7     4     5    1
     8     5     6    1
     9     5     7    1
    10     7     8   am
    11     7    15    2
    12     8     9    1
    13     9    10   ar
    14     9    14   ar
    15    10    11   ar
    16    11    12   ar
    17    12    13   ar
    18    13    14   ar
    19    17    18    1
    20    18    19   ar
    21    18    22   ar
    22    19    20   ar
    23    20    21   ar
    24    20    26   ar
    25    21    22   ar
    26    21    23   ar
    27    23    24   ar
    28    24    25   ar
    29    25    26   ar
