@<TRIPOS>MOLECULE
30472_ChemDiv_7572-1590
 24 26 0 0 0
SMALL
GASTEIGER
Energy = 0

@<TRIPOS>ATOM
      1 N          -1.7330    0.0000    0.0000 N.pl3   1  LIG1       -0.2805
      2 C          -0.8630    0.5040    0.0000 C.ar    1  LIG1        0.0580
      3 C          -0.8630    1.5130    0.0000 C.ar    1  LIG1        0.0461
      4 S          -1.7330    2.0130    0.0000 S.3     1  LIG1       -0.0843
      5 C          -2.5920    1.5130    0.0000 C.ar    1  LIG1        0.0431
      6 C          -2.5920    0.5040    0.0000 C.ar    1  LIG1        0.0578
      7 C          -3.4670    0.0130    0.0000 C.ar    1  LIG1        0.0153
      8 C          -4.3290    0.5040    0.0000 C.ar    1  LIG1        0.0013
      9 C          -4.3290    1.5130    0.0000 C.ar    1  LIG1        0.0006
     10 C          -3.4670    2.0130    0.0000 C.ar    1  LIG1        0.0077
     11 C           0.0040    2.0130    0.0000 C.ar    1  LIG1        0.0446
     12 C           0.8790    1.5130    0.0000 C.ar    1  LIG1        0.1391
     13 O           1.7380    2.0000    0.0000 O.3     1  LIG1       -0.4754
     14 C           2.5920    1.5000    0.0000 C.3     1  LIG1        0.2053
     15 C           3.4630    2.0000    0.0000 C.3     1  LIG1        0.0438
     16 C           4.3250    1.5000    0.0000 C.3     1  LIG1        0.0038
     17 C           3.4630    2.9880    0.0000 C.3     1  LIG1        0.0038
     18 C           0.8790    0.5000    0.0000 C.ar    1  LIG1        0.0382
     19 C           0.0040    0.0000    0.0000 C.ar    1  LIG1        0.0184
     20 C          -1.7330   -0.9960    0.0000 C.3     1  LIG1        0.1585
     21 C          -2.5920   -1.4880    0.0000 C.3     1  LIG1        0.1614
     22 N          -2.5920   -2.4790    0.0000 N.4     1  LIG1        0.3881
     23 C          -3.4670   -2.9710    0.0000 C.3     1  LIG1        0.2026
     24 C          -1.7380   -2.9830    0.0000 C.3     1  LIG1        0.2026
@<TRIPOS>BOND
     1     1     2    1
     2     1     6    1
     3     1    20    1
     4     2     3   ar
     5     2    19   ar
     6     3     4    1
     7     3    11   ar
     8     4     5    1
     9     5     6   ar
    10     5    10   ar
    11     6     7   ar
    12     7     8   ar
    13     8     9   ar
    14     9    10   ar
    15    11    12   ar
    16    12    13    1
    17    12    18   ar
    18    13    14    1
    19    14    15    1
    20    15    16    1
    21    15    17    1
    22    18    19   ar
    23    20    21    1
    24    21    22    1
    25    22    23    1
    26    22    24    1
