@<TRIPOS>MOLECULE
30477_ChemDiv_5586-2708
 20 22 0 0 0
SMALL
GASTEIGER
Energy = 0

@<TRIPOS>ATOM
      1 C          -0.5500    0.2040    0.0000 C.ar    1  LIG1        0.0309
      2 C          -0.5500    1.2290    0.0000 C.ar    1  LIG1        0.0072
      3 C           0.3210    1.7040    0.0000 C.ar    1  LIG1        0.0056
      4 C           1.1920    1.2290    0.0000 C.ar    1  LIG1       -0.0019
      5 C           1.1920    0.2040    0.0000 C.ar    1  LIG1       -0.0004
      6 C           0.3210   -0.2670    0.0000 C.ar    1  LIG1        0.0011
      7 C           2.0710   -0.2670    0.0000 C.ar    1  LIG1       -0.0000
      8 C           2.9250    0.2040    0.0000 C.ar    1  LIG1       -0.0000
      9 C           2.9250    1.2290    0.0000 C.ar    1  LIG1       -0.0000
     10 C           2.0710    1.7040    0.0000 C.ar    1  LIG1       -0.0002
     11 C           0.0920    2.7000    0.0000 C.3     1  LIG1        0.1688
     12 O          -0.8920    2.8040    0.0000 O.3     1  LIG1       -0.3443
     13 C          -1.2960    1.9170    0.0000 C.3     1  LIG1        0.1687
     14 C          -1.4330   -0.2960    0.0000 C.3     1  LIG1        0.1359
     15 N          -1.4330   -1.2920    0.0000 N.4     1  LIG1        0.3049
     16 C          -2.4290   -1.2920    0.0000 C.3     1  LIG1        0.1093
     17 C          -2.9290   -2.1500    0.0000 C.3     1  LIG1        0.0671
     18 C          -1.4330   -2.2880    0.0000 C.3     1  LIG1        0.1093
     19 C          -0.5540   -2.8000    0.0000 C.3     1  LIG1        0.0671
     20 C          -0.4330   -1.2920    0.0000 C.3     1  LIG1        0.1708
@<TRIPOS>BOND
     1     1     2   ar
     2     1     6   ar
     3     1    14    1
     4     2     3   ar
     5     2    13    1
     6     3     4   ar
     7     3    11    1
     8     4     5   ar
     9     4    10   ar
    10     5     6   ar
    11     5     7   ar
    12     7     8   ar
    13     8     9   ar
    14     9    10   ar
    15    11    12    1
    16    12    13    1
    17    14    15    1
    18    15    16    1
    19    15    18    1
    20    15    20    1
    21    16    17    1
    22    18    19    1
