@<TRIPOS>MOLECULE
30474_ChemDiv_4055-0071
 22 22 0 0 0
SMALL
GASTEIGER
Energy = 0

@<TRIPOS>ATOM
      1 S           3.0670   -1.1210    0.0000 S.O2    1  LIG1        0.0959
      2 C           2.2540   -0.5420    0.0000 C.ar    1  LIG1        0.2674
      3 O           1.3040   -0.8540    0.0000 O.2     1  LIG1       -0.4289
      4 C           0.7250   -0.0420    0.0000 C.ar    1  LIG1        0.2223
      5 C           1.3040    0.7790    0.0000 C.ar    1  LIG1        0.0489
      6 C           2.2540    0.4630    0.0000 C.ar    1  LIG1        0.0618
      7 C          -0.2790   -0.0420    0.0000 C.2     1  LIG1        0.3766
      8 O          -0.7790   -0.9040    0.0000 O.2     1  LIG1       -0.2414
      9 O          -0.7790    0.8330    0.0000 O.3     1  LIG1       -0.4368
     10 C          -1.7790    0.8580    0.0000 C.3     1  LIG1        0.2693
     11 C          -2.2790    1.7000    0.0000 C.3     1  LIG1        0.1570
     12 N          -3.2880    1.7000    0.0000 N.4     1  LIG1        0.3044
     13 C          -4.2880    1.7000    0.0000 C.3     1  LIG1        0.1091
     14 C          -4.7880    0.8580    0.0000 C.3     1  LIG1        0.0671
     15 C          -3.2880    0.7000    0.0000 C.3     1  LIG1        0.1091
     16 C          -2.4130    0.2000    0.0000 C.3     1  LIG1        0.0671
     17 C          -3.2880    2.7080    0.0000 C.3     1  LIG1        0.1706
     18 N           3.8920   -1.6960    0.0000 N.3     1  LIG1       -0.1498
     19 C           3.7630   -2.7040    0.0000 C.3     1  LIG1        0.1151
     20 C           4.7830   -1.3000    0.0000 C.3     1  LIG1        0.1151
     21 O           2.4920   -1.9380    0.0000 O.2     1  LIG1       -0.1498
     22 O           3.6580   -0.3040    0.0000 O.2     1  LIG1       -0.1498
@<TRIPOS>BOND
     1     1     2    1
     2     1    18    1
     3     1    21    2
     4     1    22    2
     5     2     3   ar
     6     2     6   ar
     7     3     4   ar
     8     4     5   ar
     9     4     7    1
    10     5     6   ar
    11     7     8    2
    12     7     9    1
    13     9    10    1
    14    10    11    1
    15    11    12    1
    16    12    13    1
    17    12    15    1
    18    12    17    1
    19    13    14    1
    20    15    16    1
    21    18    19    1
    22    18    20    1
