@<TRIPOS>MOLECULE
30486_ChemDiv_K979-1136
 34 37 0 0 0
SMALL
GASTEIGER
Energy = 0

@<TRIPOS>ATOM
      1 C          -0.4420    0.2460    0.0000 C.ar    1  LIG1        0.1548
      2 N           0.4380    0.7460    0.0000 N.ar    1  LIG1       -0.1579
      3 N           0.4290    1.7540    0.0000 N.ar    1  LIG1       -0.1941
      4 C          -0.4460    2.2710    0.0000 C.ar    1  LIG1        0.2803
      5 C          -1.3080    1.7540    0.0000 C.ar    1  LIG1        0.0596
      6 C          -1.3080    0.7460    0.0000 C.ar    1  LIG1        0.0285
      7 C          -2.1670    0.2460    0.0000 C.ar    1  LIG1        0.0019
      8 C          -3.0250    0.7460    0.0000 C.ar    1  LIG1        0.0001
      9 C          -3.0330    1.7460    0.0000 C.ar    1  LIG1        0.0002
     10 C          -2.1750    2.2540    0.0000 C.ar    1  LIG1        0.0048
     11 O          -0.4460    3.2670    0.0000 O.2     1  LIG1       -0.2652
     12 C           1.3000    2.2540    0.0000 C.ar    1  LIG1        0.0920
     13 C           1.3000    3.2500    0.0000 C.ar    1  LIG1        0.0563
     14 C           2.1630    3.7580    0.0000 C.ar    1  LIG1        0.1433
     15 C           3.0290    3.2580    0.0000 C.ar    1  LIG1        0.0739
     16 C           3.0290    2.2540    0.0000 C.ar    1  LIG1        0.1433
     17 C           2.1670    1.7540    0.0000 C.ar    1  LIG1        0.0563
     18 O           3.8920    1.7540    0.0000 O.3     1  LIG1       -0.4713
     19 C           4.7580    2.2630    0.0000 C.3     1  LIG1        0.2525
     20 O           2.1580    4.7500    0.0000 O.3     1  LIG1       -0.4713
     21 C           1.2920    5.2460    0.0000 C.3     1  LIG1        0.2525
     22 C          -0.4380   -0.7460    0.0000 C.2     1  LIG1        0.2686
     23 N          -1.3080   -1.2460    0.0000 N.am    1  LIG1       -0.2713
     24 C          -2.1670   -0.7460    0.0000 C.3     1  LIG1        0.1154
     25 C          -3.0250   -1.2460    0.0000 C.3     1  LIG1        0.1182
     26 N          -3.0250   -2.2420    0.0000 N.am    1  LIG1       -0.2425
     27 C          -3.8960   -2.7460    0.0000 C.2     1  LIG1        0.4050
     28 O          -4.7630   -2.2460    0.0000 O.2     1  LIG1       -0.2262
     29 O          -3.8960   -3.7460    0.0000 O.3     1  LIG1       -0.4345
     30 C          -4.7630   -4.2460    0.0000 C.3     1  LIG1        0.2102
     31 C          -4.7630   -5.2460    0.0000 C.3     1  LIG1        0.0513
     32 C          -2.1670   -2.7380    0.0000 C.3     1  LIG1        0.1182
     33 C          -1.3080   -2.2460    0.0000 C.3     1  LIG1        0.1154
     34 O           0.4290   -1.2500    0.0000 O.2     1  LIG1       -0.2682
@<TRIPOS>BOND
     1     1     2   ar
     2     1     6   ar
     3     1    22    1
     4     2     3   ar
     5     3     4   ar
     6     3    12    1
     7     4     5   ar
     8     4    11    2
     9     5     6   ar
    10     5    10   ar
    11     6     7   ar
    12     7     8   ar
    13     8     9   ar
    14     9    10   ar
    15    12    13   ar
    16    12    17   ar
    17    13    14   ar
    18    14    15   ar
    19    14    20    1
    20    15    16   ar
    21    16    17   ar
    22    16    18    1
    23    18    19    1
    24    20    21    1
    25    22    23   am
    26    22    34    2
    27    23    24    1
    28    23    33    1
    29    24    25    1
    30    25    26    1
    31    26    27   am
    32    26    32    1
    33    27    28    2
    34    27    29    1
    35    29    30    1
    36    30    31    1
    37    32    33    1
