@<TRIPOS>MOLECULE
30483_ChemDiv_5586-2453
 29 32 0 0 0
SMALL
GASTEIGER
Energy = 0

@<TRIPOS>ATOM
      1 C           0.4380   -1.9880    0.0000 C.3     1  LIG1        0.0537
      2 C           0.4380   -0.9920    0.0000 C.3     1  LIG1        0.0955
      3 C           1.3330   -0.5130    0.0000 C.2     1  LIG1        0.2421
      4 N           1.3330    0.4920    0.0000 N.am    1  LIG1       -0.2024
      5 C           0.4540    0.9960    0.0000 C.3     1  LIG1        0.1491
      6 C           0.4540    2.0080    0.0000 C.3     1  LIG1        0.1587
      7 C          -0.4040    2.4830    0.0000 C.ar    1  LIG1        0.0024
      8 C          -0.4040    3.4960    0.0000 C.ar    1  LIG1       -0.0213
      9 C           0.4540    4.0000    0.0000 C.3     1  LIG1        0.0582
     10 C           1.3330    3.5080    0.0000 C.3     1  LIG1        0.1472
     11 O           1.3330    2.4830    0.0000 O.3     1  LIG1       -0.3497
     12 C          -1.2460    4.0000    0.0000 C.ar    1  LIG1       -0.0044
     13 C          -2.1250    3.5080    0.0000 C.ar    1  LIG1       -0.0003
     14 C          -2.1250    2.4830    0.0000 C.ar    1  LIG1       -0.0003
     15 C          -1.2460    2.0080    0.0000 C.ar    1  LIG1       -0.0022
     16 O           2.1750   -1.0170    0.0000 O.2     1  LIG1       -0.2733
     17 C          -0.4170   -2.4750    0.0000 C.ar    1  LIG1       -0.0177
     18 C          -1.2960   -1.9750    0.0000 C.ar    1  LIG1       -0.0007
     19 C          -2.1790   -2.4250    0.0000 C.ar    1  LIG1        0.0417
     20 C          -2.1790   -3.4630    0.0000 C.ar    1  LIG1        0.1957
     21 C          -1.3170   -3.9670    0.0000 C.ar    1  LIG1        0.0417
     22 C          -0.4420   -3.4880    0.0000 C.ar    1  LIG1       -0.0007
     23 O          -3.0210   -3.9670    0.0000 O.3     1  LIG1       -0.2866
     24 C           1.2790   -2.4750    0.0000 C.ar    1  LIG1       -0.0179
     25 C           2.1750   -2.0250    0.0000 C.ar    1  LIG1       -0.0039
     26 C           3.0170   -2.5080    0.0000 C.ar    1  LIG1       -0.0003
     27 C           3.0170   -3.4920    0.0000 C.ar    1  LIG1       -0.0000
     28 C           2.1540   -3.9960    0.0000 C.ar    1  LIG1       -0.0003
     29 C           1.2790   -3.5040    0.0000 C.ar    1  LIG1       -0.0039
@<TRIPOS>BOND
     1     1     2    1
     2     1    17    1
     3     1    24    1
     4     2     3    1
     5     3     4   am
     6     3    16    2
     7     4     5    1
     8     5     6    1
     9     6     7    1
    10     6    11    1
    11     7     8   ar
    12     7    15   ar
    13     8     9    1
    14     8    12   ar
    15     9    10    1
    16    10    11    1
    17    12    13   ar
    18    13    14   ar
    19    14    15   ar
    20    17    18   ar
    21    17    22   ar
    22    18    19   ar
    23    19    20   ar
    24    20    21   ar
    25    20    23    1
    26    21    22   ar
    27    24    25   ar
    28    24    29   ar
    29    25    26   ar
    30    26    27   ar
    31    27    28   ar
    32    28    29   ar
