@<TRIPOS>MOLECULE
30484_ChemDiv_K979-1106
 36 40 0 0 0
SMALL
GASTEIGER
Energy = 0

@<TRIPOS>ATOM
      1 C          -0.0170    0.2630    0.0000 C.ar    1  LIG1        0.1548
      2 N           0.8630    0.7670    0.0000 N.ar    1  LIG1       -0.1579
      3 N           0.8540    1.7750    0.0000 N.ar    1  LIG1       -0.1941
      4 C          -0.0210    2.2920    0.0000 C.ar    1  LIG1        0.2803
      5 C          -0.8830    1.7750    0.0000 C.ar    1  LIG1        0.0596
      6 C          -0.8830    0.7670    0.0000 C.ar    1  LIG1        0.0285
      7 C          -1.7460    0.2630    0.0000 C.ar    1  LIG1        0.0019
      8 C          -2.6000    0.7670    0.0000 C.ar    1  LIG1        0.0001
      9 C          -2.6130    1.7670    0.0000 C.ar    1  LIG1        0.0002
     10 C          -1.7540    2.2710    0.0000 C.ar    1  LIG1        0.0048
     11 O          -0.0210    3.2880    0.0000 O.2     1  LIG1       -0.2652
     12 C           1.7250    2.2750    0.0000 C.ar    1  LIG1        0.0920
     13 C           2.5920    1.7750    0.0000 C.ar    1  LIG1        0.0563
     14 C           3.4540    2.2750    0.0000 C.ar    1  LIG1        0.1433
     15 C           3.4540    3.2750    0.0000 C.ar    1  LIG1        0.0739
     16 C           2.5880    3.7790    0.0000 C.ar    1  LIG1        0.1433
     17 C           1.7250    3.2670    0.0000 C.ar    1  LIG1        0.0563
     18 O           2.5830    4.7710    0.0000 O.3     1  LIG1       -0.4713
     19 C           1.7170    5.2670    0.0000 C.3     1  LIG1        0.2525
     20 O           4.3170    1.7750    0.0000 O.3     1  LIG1       -0.4713
     21 C           5.1880    2.2830    0.0000 C.3     1  LIG1        0.2525
     22 C          -0.0130   -0.7250    0.0000 C.2     1  LIG1        0.2686
     23 N          -0.8830   -1.2250    0.0000 N.am    1  LIG1       -0.2713
     24 C          -0.8830   -2.2250    0.0000 C.3     1  LIG1        0.1152
     25 C          -1.7290   -2.7290    0.0000 C.3     1  LIG1        0.1123
     26 N          -2.5920   -2.2420    0.0000 N.pl3   1  LIG1       -0.3040
     27 C          -3.4630   -2.7540    0.0000 C.ar    1  LIG1        0.0488
     28 C          -3.4580   -3.7630    0.0000 C.ar    1  LIG1        0.0259
     29 C          -4.3170   -4.2670    0.0000 C.ar    1  LIG1        0.0589
     30 CL         -4.3040   -5.2670    0.0000 Cl      1  LIG1       -0.0822
     31 C          -5.1830   -3.7750    0.0000 C.ar    1  LIG1        0.0115
     32 C          -5.1920   -2.7790    0.0000 C.ar    1  LIG1        0.0021
     33 C          -4.3290   -2.2710    0.0000 C.ar    1  LIG1        0.0146
     34 C          -2.6000   -1.2330    0.0000 C.3     1  LIG1        0.1123
     35 C          -1.7460   -0.7250    0.0000 C.3     1  LIG1        0.1152
     36 O           0.8540   -1.2330    0.0000 O.2     1  LIG1       -0.2682
@<TRIPOS>BOND
     1     1     2   ar
     2     1     6   ar
     3     1    22    1
     4     2     3   ar
     5     3     4   ar
     6     3    12    1
     7     4     5   ar
     8     4    11    2
     9     5     6   ar
    10     5    10   ar
    11     6     7   ar
    12     7     8   ar
    13     8     9   ar
    14     9    10   ar
    15    12    13   ar
    16    12    17   ar
    17    13    14   ar
    18    14    15   ar
    19    14    20    1
    20    15    16   ar
    21    16    17   ar
    22    16    18    1
    23    18    19    1
    24    20    21    1
    25    22    23   am
    26    22    36    2
    27    23    24    1
    28    23    35    1
    29    24    25    1
    30    25    26    1
    31    26    27    1
    32    26    34    1
    33    27    28   ar
    34    27    33   ar
    35    28    29   ar
    36    29    30    1
    37    29    31   ar
    38    31    32   ar
    39    32    33   ar
    40    34    35    1
