@<TRIPOS>MOLECULE
30485_ChemDiv_6030-2168
 19 20 0 0 0
SMALL
GASTEIGER
Energy = 0

@<TRIPOS>ATOM
      1 C          -2.1710    0.7580    0.0000 C.ar    1  LIG1        0.0024
      2 C          -1.3000    0.2580    0.0000 C.3     1  LIG1        0.1587
      3 O          -0.4380    0.7580    0.0000 O.3     1  LIG1       -0.3497
      4 C          -0.4380    1.7580    0.0000 C.3     1  LIG1        0.1472
      5 C          -1.3000    2.2630    0.0000 C.3     1  LIG1        0.0582
      6 C          -2.1630    1.7580    0.0000 C.ar    1  LIG1       -0.0213
      7 C          -3.0330    2.2580    0.0000 C.ar    1  LIG1       -0.0044
      8 C          -3.8960    1.7580    0.0000 C.ar    1  LIG1       -0.0003
      9 C          -3.8960    0.7580    0.0000 C.ar    1  LIG1       -0.0003
     10 C          -3.0330    0.2580    0.0000 C.ar    1  LIG1       -0.0022
     11 C          -1.3040   -0.7420    0.0000 C.3     1  LIG1        0.1491
     12 N          -0.4420   -1.2420    0.0000 N.am    1  LIG1       -0.2024
     13 C           0.4290   -0.7540    0.0000 C.2     1  LIG1        0.2418
     14 O           0.4290    0.2460    0.0000 O.2     1  LIG1       -0.2733
     15 C           1.2920   -1.2540    0.0000 C.3     1  LIG1        0.0927
     16 C           2.1540   -0.7540    0.0000 C.3     1  LIG1        0.0513
     17 C           3.0170   -1.2580    0.0000 C.2     1  LIG1        0.0508
     18 O           3.8920   -0.7580    0.0000 O.co2   1  LIG1       -0.5492
     19 O           3.0170   -2.2580    0.0000 O.co2   1  LIG1       -0.5492
@<TRIPOS>BOND
     1     1     2    1
     2     1     6   ar
     3     1    10   ar
     4     2     3    1
     5     2    11    1
     6     3     4    1
     7     4     5    1
     8     5     6    1
     9     6     7   ar
    10     7     8   ar
    11     8     9   ar
    12     9    10   ar
    13    11    12    1
    14    12    13   am
    15    13    14    2
    16    13    15    1
    17    15    16    1
    18    16    17    1
    19    17    18   ar
    20    17    19   ar
