@<TRIPOS>MOLECULE
30489_ChemDiv_D068-0028
 24 27 0 0 0
SMALL
GASTEIGER
Energy = 0

@<TRIPOS>ATOM
      1 C          -1.2830    0.4880    0.0000 C.3     1  LIG1        0.2145
      2 C          -1.2880   -0.5080    0.0000 C.2     1  LIG1        0.2729
      3 N          -0.4380   -0.9960    0.0000 N.am    1  LIG1       -0.2001
      4 C           0.4330   -0.5080    0.0000 C.3     1  LIG1        0.1492
      5 C           1.2920   -0.9960    0.0000 C.3     1  LIG1        0.1587
      6 C           2.1540   -0.5080    0.0000 C.ar    1  LIG1        0.0024
      7 C           3.0210   -0.9960    0.0000 C.ar    1  LIG1       -0.0213
      8 C           3.0170   -2.0040    0.0000 C.3     1  LIG1        0.0582
      9 C           2.1540   -2.5000    0.0000 C.3     1  LIG1        0.1472
     10 O           1.2830   -1.9920    0.0000 O.3     1  LIG1       -0.3497
     11 C           3.8790   -0.5130    0.0000 C.ar    1  LIG1       -0.0044
     12 C           3.8920    0.4880    0.0000 C.ar    1  LIG1       -0.0003
     13 C           3.0210    0.9960    0.0000 C.ar    1  LIG1       -0.0003
     14 C           2.1580    0.4960    0.0000 C.ar    1  LIG1       -0.0022
     15 O          -2.1580   -0.9960    0.0000 O.2     1  LIG1       -0.2703
     16 C          -2.1580    0.9960    0.0000 C.ar    1  LIG1        0.0095
     17 C          -2.1580    1.9960    0.0000 C.ar    1  LIG1       -0.0209
     18 C          -1.2830    2.5040    0.0000 C.3     1  LIG1        0.0582
     19 C          -0.4210    1.9960    0.0000 C.3     1  LIG1        0.1478
     20 O          -0.4210    0.9960    0.0000 O.3     1  LIG1       -0.3424
     21 C          -3.0330    2.5040    0.0000 C.ar    1  LIG1       -0.0044
     22 C          -3.8960    1.9960    0.0000 C.ar    1  LIG1       -0.0003
     23 C          -3.8960    0.9960    0.0000 C.ar    1  LIG1       -0.0003
     24 C          -3.0330    0.4880    0.0000 C.ar    1  LIG1       -0.0018
@<TRIPOS>BOND
     1     1     2    1
     2     1    16    1
     3     1    20    1
     4     2     3   am
     5     2    15    2
     6     3     4    1
     7     4     5    1
     8     5     6    1
     9     5    10    1
    10     6     7   ar
    11     6    14   ar
    12     7     8    1
    13     7    11   ar
    14     8     9    1
    15     9    10    1
    16    11    12   ar
    17    12    13   ar
    18    13    14   ar
    19    16    17   ar
    20    16    24   ar
    21    17    18    1
    22    17    21   ar
    23    18    19    1
    24    19    20    1
    25    21    22   ar
    26    22    23   ar
    27    23    24   ar
