@<TRIPOS>MOLECULE
30487_ChemDiv_8016-0568
 25 28 0 0 0
SMALL
GASTEIGER
Energy = 0

@<TRIPOS>ATOM
      1 C           2.1670   -1.2540    0.0000 C.ar    1  LIG1       -0.0130
      2 C           2.1670   -0.2540    0.0000 C.ar    1  LIG1       -0.0035
      3 C           3.0330    0.2500    0.0000 C.ar    1  LIG1       -0.0003
      4 C           3.8960   -0.2540    0.0000 C.ar    1  LIG1       -0.0000
      5 C           3.8960   -1.2540    0.0000 C.ar    1  LIG1       -0.0003
      6 C           3.0330   -1.7460    0.0000 C.ar    1  LIG1       -0.0038
      7 C           3.0330    1.2500    0.0000 C.ar    1  LIG1       -0.0000
      8 C           2.1670    1.7500    0.0000 C.ar    1  LIG1       -0.0000
      9 C           1.2960    1.2500    0.0000 C.ar    1  LIG1       -0.0000
     10 C           1.2960    0.2500    0.0000 C.ar    1  LIG1       -0.0003
     11 C           1.2960   -1.7460    0.0000 C.3     1  LIG1        0.1131
     12 C           0.4290   -1.2540    0.0000 C.2     1  LIG1        0.2459
     13 N          -0.4380   -1.7460    0.0000 N.am    1  LIG1       -0.2022
     14 C          -1.3080   -1.2540    0.0000 C.3     1  LIG1        0.1491
     15 C          -1.3080   -0.2540    0.0000 C.3     1  LIG1        0.1587
     16 C          -2.1710    0.2460    0.0000 C.ar    1  LIG1        0.0024
     17 C          -2.1710    1.2500    0.0000 C.ar    1  LIG1       -0.0213
     18 C          -1.3080    1.7460    0.0000 C.3     1  LIG1        0.0582
     19 C          -0.4380    1.2500    0.0000 C.3     1  LIG1        0.1472
     20 O          -0.4380    0.2460    0.0000 O.3     1  LIG1       -0.3497
     21 C          -3.0380    1.7460    0.0000 C.ar    1  LIG1       -0.0044
     22 C          -3.9000    1.2500    0.0000 C.ar    1  LIG1       -0.0003
     23 C          -3.9000    0.2460    0.0000 C.ar    1  LIG1       -0.0003
     24 C          -3.0380   -0.2540    0.0000 C.ar    1  LIG1       -0.0022
     25 O           0.4290   -0.2540    0.0000 O.2     1  LIG1       -0.2730
@<TRIPOS>BOND
     1     1     2   ar
     2     1     6   ar
     3     1    11    1
     4     2     3   ar
     5     2    10   ar
     6     3     4   ar
     7     3     7   ar
     8     4     5   ar
     9     5     6   ar
    10     7     8   ar
    11     8     9   ar
    12     9    10   ar
    13    11    12    1
    14    12    13   am
    15    12    25    2
    16    13    14    1
    17    14    15    1
    18    15    16    1
    19    15    20    1
    20    16    17   ar
    21    16    24   ar
    22    17    18    1
    23    17    21   ar
    24    18    19    1
    25    19    20    1
    26    21    22   ar
    27    22    23   ar
    28    23    24   ar
