@<TRIPOS>MOLECULE
30492_ChemDiv_K999-0221
 31 34 0 0 0
SMALL
GASTEIGER
Energy = 0

@<TRIPOS>ATOM
      1 C          -0.8130    0.2040    0.0000 C.ar    1  LIG1        0.1551
      2 N           0.0670    0.6420    0.0000 N.ar    1  LIG1       -0.1579
      3 N           0.1130    1.6210    0.0000 N.ar    1  LIG1       -0.1942
      4 C          -0.7080    2.1580    0.0000 C.ar    1  LIG1        0.2803
      5 C          -1.5710    1.7040    0.0000 C.ar    1  LIG1        0.0596
      6 C          -1.6290    0.7330    0.0000 C.ar    1  LIG1        0.0285
      7 C          -2.4830    0.2960    0.0000 C.ar    1  LIG1        0.0019
      8 C          -3.2960    0.8250    0.0000 C.ar    1  LIG1        0.0001
      9 C          -3.2500    1.7960    0.0000 C.ar    1  LIG1        0.0002
     10 C          -2.3880    2.2330    0.0000 C.ar    1  LIG1        0.0048
     11 O          -0.6630    3.1290    0.0000 O.2     1  LIG1       -0.2652
     12 C           0.9750    2.0500    0.0000 C.ar    1  LIG1        0.0890
     13 C           1.7920    1.5210    0.0000 C.ar    1  LIG1        0.0561
     14 C           2.6580    1.9630    0.0000 C.ar    1  LIG1        0.1402
     15 O           3.4710    1.4290    0.0000 O.3     1  LIG1       -0.4714
     16 C           4.3330    1.8710    0.0000 C.3     1  LIG1        0.2525
     17 C           2.7170    2.9420    0.0000 C.ar    1  LIG1        0.0370
     18 C           1.8960    3.4630    0.0000 C.ar    1  LIG1        0.0047
     19 C           1.0290    3.0210    0.0000 C.ar    1  LIG1        0.0195
     20 C          -0.8880   -1.4580    0.0000 C.2     1  LIG1        0.2722
     21 N          -1.7500   -1.9580    0.0000 N.am    1  LIG1       -0.2524
     22 C          -2.6170   -1.4710    0.0000 C.ar    1  LIG1        0.0502
     23 C          -3.4750   -1.9580    0.0000 C.ar    1  LIG1       -0.0085
     24 C          -3.4830   -2.9670    0.0000 C.3     1  LIG1        0.0276
     25 C          -4.3380   -3.4580    0.0000 C.3     1  LIG1        0.0051
     26 C          -4.3380   -1.4580    0.0000 C.ar    1  LIG1       -0.0030
     27 C          -4.3380   -0.4630    0.0000 C.ar    1  LIG1       -0.0002
     28 C          -3.4750    0.0210    0.0000 C.ar    1  LIG1        0.0013
     29 C          -2.6210   -0.4790    0.0000 C.ar    1  LIG1        0.0146
     30 C          -1.7500   -2.9670    0.0000 C.3     1  LIG1        0.1204
     31 O          -0.0250   -1.9130    0.0000 O.2     1  LIG1       -0.2679
@<TRIPOS>BOND
     1     1     2   ar
     2     1     6   ar
     3     1    20    1
     4     2     3   ar
     5     3     4   ar
     6     3    12    1
     7     4     5   ar
     8     4    11    2
     9     5     6   ar
    10     5    10   ar
    11     6     7   ar
    12     7     8   ar
    13     8     9   ar
    14     9    10   ar
    15    12    13   ar
    16    12    19   ar
    17    13    14   ar
    18    14    15    1
    19    14    17   ar
    20    15    16    1
    21    17    18   ar
    22    18    19   ar
    23    20    21   am
    24    20    31    2
    25    21    22    1
    26    21    30    1
    27    22    23   ar
    28    22    29   ar
    29    23    24    1
    30    23    26   ar
    31    24    25    1
    32    26    27   ar
    33    27    28   ar
    34    28    29   ar
