@<TRIPOS>MOLECULE
30495_ChemDiv_3886-0606
 21 22 0 0 0
SMALL
GASTEIGER
Energy = 0

@<TRIPOS>ATOM
      1 C          -1.4000    0.5000    0.0000 C.ar    1  LIG1        0.1177
      2 S          -1.4000   -0.4960    0.0000 S.2     1  LIG1       -0.0449
      3 C          -2.2580   -0.9920    0.0000 C.ar    1  LIG1        0.1283
      4 N          -3.1130   -0.4960    0.0000 N.ar    1  LIG1       -0.3167
      5 C          -3.1130    0.5000    0.0000 C.ar    1  LIG1        0.0599
      6 C          -3.7500    1.1460    0.0000 C.3     1  LIG1        0.0520
      7 C          -3.8920   -0.9920    0.0000 C.3     1  LIG1        0.1312
      8 S          -2.2580   -1.9250    0.0000 S.2     1  LIG1       -0.0247
      9 N          -0.6130    0.9330    0.0000 N.am    1  LIG1       -0.1528
     10 C           0.2460    0.5000    0.0000 C.2     1  LIG1        0.3508
     11 N           1.1040    0.9330    0.0000 N.am    1  LIG1       -0.1242
     12 C           1.9580    0.4290    0.0000 C.ar    1  LIG1        0.2494
     13 N           2.4540   -0.3540    0.0000 N.ar    1  LIG1       -0.1594
     14 C           3.3830   -0.3540    0.0000 C.ar    1  LIG1        0.3235
     15 N           3.8880    0.4290    0.0000 N.ar    1  LIG1       -0.1792
     16 C           3.3830    1.2880    0.0000 C.ar    1  LIG1        0.1471
     17 N           2.4540    1.2880    0.0000 N.ar    1  LIG1       -0.1969
     18 C           3.8880    2.1420    0.0000 C.3     1  LIG1        0.0739
     19 O           3.8880   -1.2830    0.0000 O.3     1  LIG1       -0.4425
     20 C           3.3830   -2.1380    0.0000 C.3     1  LIG1        0.2559
     21 O           0.2460   -0.4960    0.0000 O.2     1  LIG1       -0.2483
@<TRIPOS>BOND
     1     1     2   ar
     2     1     5   ar
     3     1     9    1
     4     2     3   ar
     5     3     4   ar
     6     3     8    2
     7     4     5   ar
     8     4     7    1
     9     5     6    1
    10     9    10   am
    11    10    11   am
    12    10    21    2
    13    11    12    1
    14    12    13   ar
    15    12    17   ar
    16    13    14   ar
    17    14    15   ar
    18    14    19    1
    19    15    16   ar
    20    16    17   ar
    21    16    18    1
    22    19    20    1
