@<TRIPOS>MOLECULE
30493_ChemDiv_D183-0069
 23 25 0 0 0
SMALL
GASTEIGER
Energy = 0

@<TRIPOS>ATOM
      1 C          -1.7000    0.9830    0.0000 C.3     1  LIG1        0.0390
      2 C          -0.8580    0.4920    0.0000 C.3     1  LIG1        0.1191
      3 N          -0.8580   -0.4750    0.0000 N.am    1  LIG1       -0.2048
      4 C          -0.0080   -0.9580    0.0000 C.2     1  LIG1        0.2458
      5 O          -0.0080   -1.9330    0.0000 O.2     1  LIG1       -0.2730
      6 C           0.8330   -0.4750    0.0000 C.3     1  LIG1        0.1131
      7 C           1.6750   -0.9670    0.0000 C.ar    1  LIG1       -0.0129
      8 C           2.5080   -0.4750    0.0000 C.ar    1  LIG1       -0.0015
      9 C           3.3500   -0.9670    0.0000 C.ar    1  LIG1        0.0293
     10 C           3.3500   -1.9460    0.0000 C.ar    1  LIG1        0.1401
     11 F           4.2080   -2.4420    0.0000 F       1  LIG1       -0.2042
     12 C           2.5080   -2.4290    0.0000 C.ar    1  LIG1        0.0293
     13 C           1.6670   -1.9330    0.0000 C.ar    1  LIG1       -0.0015
     14 C          -2.5420    0.4880    0.0000 C.ar    1  LIG1       -0.0211
     15 C          -3.3830    0.9670    0.0000 C.ar    1  LIG1       -0.0042
     16 C          -4.2130    0.4710    0.0000 C.ar    1  LIG1       -0.0003
     17 C          -4.2130   -0.4880    0.0000 C.ar    1  LIG1       -0.0000
     18 C          -3.3830   -0.9710    0.0000 C.ar    1  LIG1       -0.0003
     19 C          -2.5420   -0.4920    0.0000 C.ar    1  LIG1       -0.0042
     20 C          -0.8630    1.4670    0.0000 C.3     1  LIG1        0.0058
     21 C          -0.8750    2.4460    0.0000 C.3     1  LIG1        0.0004
     22 C          -2.5460    2.4380    0.0000 C.3     1  LIG1        0.0004
     23 C          -2.5420    1.4630    0.0000 C.3     1  LIG1        0.0058
@<TRIPOS>BOND
     1     1     2    1
     2     1    14    1
     3     1    20    1
     4     1    23    1
     5     2     3    1
     6     3     4   am
     7     4     5    2
     8     4     6    1
     9     6     7    1
    10     7     8   ar
    11     7    13   ar
    12     8     9   ar
    13     9    10   ar
    14    10    11    1
    15    10    12   ar
    16    12    13   ar
    17    14    15   ar
    18    14    19   ar
    19    15    16   ar
    20    16    17   ar
    21    17    18   ar
    22    18    19   ar
    23    20    21    1
    24    21    22    1
    25    22    23    1
