@<TRIPOS>MOLECULE
30496_ChemDiv_3909-9871
 32 34 0 0 0
SMALL
GASTEIGER
Energy = 0

@<TRIPOS>ATOM
      1 N          -2.5960   -1.0000    0.0000 N.ar    1  LIG1       -0.2690
      2 C          -3.4710   -0.4960    0.0000 C.ar    1  LIG1        0.2638
      3 C          -4.3330   -1.0000    0.0000 C.ar    1  LIG1        0.0739
      4 C          -4.3330   -2.0080    0.0000 C.ar    1  LIG1        0.0876
      5 N          -3.4580   -2.4960    0.0000 N.ar    1  LIG1       -0.2252
      6 C          -2.5920   -1.9960    0.0000 C.ar    1  LIG1        0.1812
      7 C          -5.2000   -2.5080    0.0000 C.ar    1  LIG1        0.0193
      8 C          -6.0580   -2.0080    0.0000 C.ar    1  LIG1        0.0015
      9 C          -6.0580   -1.0080    0.0000 C.ar    1  LIG1        0.0003
     10 C          -5.2000   -0.5000    0.0000 C.ar    1  LIG1        0.0063
     11 O          -3.4710    0.5040    0.0000 O.2     1  LIG1       -0.2669
     12 C          -1.7290   -0.4960    0.0000 C.3     1  LIG1        0.1971
     13 C          -0.8670   -0.9960    0.0000 C.2     1  LIG1        0.2646
     14 O          -0.8580   -1.9920    0.0000 O.2     1  LIG1       -0.2712
     15 N          -0.0040   -0.4830    0.0000 N.am    1  LIG1       -0.2033
     16 C           0.8670   -0.9830    0.0000 C.3     1  LIG1        0.1248
     17 C           1.7290   -0.4830    0.0000 C.3     1  LIG1        0.1090
     18 C           2.5960   -0.9830    0.0000 C.2     1  LIG1        0.2312
     19 N           3.4630   -0.4830    0.0000 N.am    1  LIG1       -0.2559
     20 C           3.4630    0.5130    0.0000 C.ar    1  LIG1        0.0910
     21 C           2.5960    1.0040    0.0000 C.ar    1  LIG1        0.0549
     22 C           2.5960    2.0000    0.0000 C.ar    1  LIG1        0.1402
     23 C           3.4630    2.5130    0.0000 C.ar    1  LIG1        0.0401
     24 C           4.3330    2.0130    0.0000 C.ar    1  LIG1        0.0413
     25 C           4.3330    1.0130    0.0000 C.ar    1  LIG1        0.1525
     26 O           5.1830    0.5040    0.0000 O.3     1  LIG1       -0.4702
     27 C           6.0580    1.0040    0.0000 C.3     1  LIG1        0.2525
     28 O           1.7380    2.4960    0.0000 O.3     1  LIG1       -0.4714
     29 C           0.8750    1.9960    0.0000 C.3     1  LIG1        0.2525
     30 C           4.3330   -0.9830    0.0000 C.3     1  LIG1        0.0983
     31 C           5.1960   -0.4830    0.0000 C.3     1  LIG1        0.0237
     32 O           2.5960   -1.9830    0.0000 O.2     1  LIG1       -0.2745
@<TRIPOS>BOND
     1     1     2   ar
     2     1     6   ar
     3     1    12    1
     4     2     3   ar
     5     2    11    2
     6     3     4   ar
     7     3    10   ar
     8     4     5   ar
     9     4     7   ar
    10     5     6   ar
    11     7     8   ar
    12     8     9   ar
    13     9    10   ar
    14    12    13    1
    15    13    14    2
    16    13    15   am
    17    15    16    1
    18    16    17    1
    19    17    18    1
    20    18    19   am
    21    18    32    2
    22    19    20    1
    23    19    30    1
    24    20    21   ar
    25    20    25   ar
    26    21    22   ar
    27    22    23   ar
    28    22    28    1
    29    23    24   ar
    30    24    25   ar
    31    25    26    1
    32    26    27    1
    33    28    29    1
    34    30    31    1
