@<TRIPOS>MOLECULE
30494_ChemDiv_K999-0257
 33 35 0 0 0
SMALL
GASTEIGER
Energy = 0

@<TRIPOS>ATOM
      1 N           1.3170    1.7880    0.0000 N.ar    1  LIG1       -0.1579
      2 N           1.3170    2.7710    0.0000 N.ar    1  LIG1       -0.1943
      3 C           0.4540    3.2710    0.0000 C.ar    1  LIG1        0.2803
      4 C          -0.3920    2.7580    0.0000 C.ar    1  LIG1        0.0596
      5 C          -0.3920    1.7750    0.0000 C.ar    1  LIG1        0.0285
      6 C           0.4630    1.2920    0.0000 C.ar    1  LIG1        0.1562
      7 C           0.4710   -0.1830    0.0000 C.2     1  LIG1        0.2842
      8 O           1.3170   -0.6830    0.0000 O.2     1  LIG1       -0.2666
      9 N          -0.3920   -0.6830    0.0000 N.am    1  LIG1       -0.2001
     10 C          -0.3920   -1.6830    0.0000 C.3     1  LIG1        0.1217
     11 C          -1.2580   -2.1960    0.0000 C.3     1  LIG1        0.0861
     12 C          -1.2540   -3.1960    0.0000 C.3     1  LIG1        0.1404
     13 N          -2.1130   -3.6960    0.0000 N.4     1  LIG1        0.3773
     14 C          -2.9750   -3.2040    0.0000 C.3     1  LIG1        0.1385
     15 C          -3.8460   -3.7040    0.0000 C.3     1  LIG1        0.0627
     16 C          -4.7080   -3.2080    0.0000 C.3     1  LIG1        0.0063
     17 C          -2.1130   -4.6920    0.0000 C.3     1  LIG1        0.1385
     18 C          -1.2540   -5.1920    0.0000 C.3     1  LIG1        0.0627
     19 C          -1.2540   -6.1920    0.0000 C.3     1  LIG1        0.0063
     20 C          -1.2250    1.2920    0.0000 C.ar    1  LIG1        0.0019
     21 C          -2.0750    1.7750    0.0000 C.ar    1  LIG1        0.0001
     22 C          -2.0880    2.7580    0.0000 C.ar    1  LIG1        0.0002
     23 C          -1.2420    3.2540    0.0000 C.ar    1  LIG1        0.0048
     24 O           0.4540    4.2380    0.0000 O.2     1  LIG1       -0.2652
     25 C           2.1580    3.2540    0.0000 C.ar    1  LIG1        0.0862
     26 C           2.1500    4.2250    0.0000 C.ar    1  LIG1        0.0224
     27 C           2.9960    4.7210    0.0000 C.ar    1  LIG1        0.0384
     28 C           3.8540    4.2330    0.0000 C.ar    1  LIG1        0.1386
     29 C           3.8420    3.2460    0.0000 C.ar    1  LIG1        0.0384
     30 C           2.9960    2.7710    0.0000 C.ar    1  LIG1        0.0224
     31 O           4.7040    4.7170    0.0000 O.3     1  LIG1       -0.4755
     32 C           4.7040    5.6920    0.0000 C.3     1  LIG1        0.2055
     33 C           3.8540    6.1920    0.0000 C.3     1  LIG1        0.0512
@<TRIPOS>BOND
     1     1     2   ar
     2     1     6   ar
     3     2     3   ar
     4     2    25    1
     5     3     4   ar
     6     3    24    2
     7     4     5   ar
     8     4    23   ar
     9     5     6   ar
    10     5    20   ar
    11     6     7    1
    12     7     8    2
    13     7     9   am
    14     9    10    1
    15    10    11    1
    16    11    12    1
    17    12    13    1
    18    13    14    1
    19    13    17    1
    20    14    15    1
    21    15    16    1
    22    17    18    1
    23    18    19    1
    24    20    21   ar
    25    21    22   ar
    26    22    23   ar
    27    25    26   ar
    28    25    30   ar
    29    26    27   ar
    30    27    28   ar
    31    28    29   ar
    32    28    31    1
    33    29    30   ar
    34    31    32    1
    35    32    33    1
