@<TRIPOS>MOLECULE
30499_ChemDiv_3807-4529
 30 34 0 0 0
SMALL
GASTEIGER
Energy = 0

@<TRIPOS>ATOM
      1 N          -1.2460   -0.5920    0.0000 N.am    1  LIG1       -0.2158
      2 C          -2.1210   -0.9710    0.0000 C.2     1  LIG1        0.2554
      3 C          -1.9920   -1.8630    0.0000 C.ar    1  LIG1        0.0584
      4 C          -0.9830   -2.0750    0.0000 C.ar    1  LIG1        0.0584
      5 C          -0.5880   -1.3290    0.0000 C.2     1  LIG1        0.2554
      6 O           0.4880   -1.1210    0.0000 O.2     1  LIG1       -0.2695
      7 C          -0.7290   -3.1250    0.0000 C.ar    1  LIG1        0.0047
      8 C          -1.3500   -3.8880    0.0000 C.ar    1  LIG1        0.0001
      9 C          -2.4790   -3.6420    0.0000 C.ar    1  LIG1        0.0001
     10 C          -2.7170   -2.6960    0.0000 C.ar    1  LIG1        0.0047
     11 O          -3.0670   -0.3830    0.0000 O.2     1  LIG1       -0.2695
     12 C          -0.9830    0.4500    0.0000 C.3     1  LIG1        0.1599
     13 C          -0.0380    0.7380    0.0000 C.2     1  LIG1        0.2516
     14 N           0.1460    1.7080    0.0000 N.am    1  LIG1       -0.2366
     15 C          -0.6500    2.2880    0.0000 C.ar    1  LIG1        0.0541
     16 C          -0.6500    3.2960    0.0000 C.ar    1  LIG1       -0.0078
     17 C           0.1130    3.8920    0.0000 C.3     1  LIG1        0.0323
     18 C           1.0670    3.6790    0.0000 C.3     1  LIG1        0.0323
     19 C           1.4880    2.7960    0.0000 C.ar    1  LIG1       -0.0078
     20 C           1.1210    1.9210    0.0000 C.ar    1  LIG1        0.0541
     21 C           1.6960    1.1130    0.0000 C.ar    1  LIG1        0.0149
     22 C           2.6420    1.1920    0.0000 C.ar    1  LIG1        0.0013
     23 C           3.0630    2.0790    0.0000 C.ar    1  LIG1       -0.0002
     24 C           2.4830    2.9170    0.0000 C.ar    1  LIG1       -0.0030
     25 C          -1.5330    3.8130    0.0000 C.ar    1  LIG1       -0.0030
     26 C          -2.3750    3.2960    0.0000 C.ar    1  LIG1       -0.0002
     27 C          -2.3330    2.2880    0.0000 C.ar    1  LIG1        0.0013
     28 C          -1.4920    1.7880    0.0000 C.ar    1  LIG1        0.0149
     29 O           0.6710    0.0040    0.0000 O.2     1  LIG1       -0.2724
     30 C          -1.6750    1.0540    0.0000 C.3     1  LIG1        0.0319
@<TRIPOS>BOND
     1     1     2   am
     2     1     5   am
     3     1    12    1
     4     2     3    1
     5     2    11    2
     6     3     4   ar
     7     3    10   ar
     8     4     5    1
     9     4     7   ar
    10     5     6    2
    11     7     8   ar
    12     8     9   ar
    13     9    10   ar
    14    12    13    1
    15    12    30    1
    16    13    14   am
    17    13    29    2
    18    14    15    1
    19    14    20    1
    20    15    16   ar
    21    15    28   ar
    22    16    17    1
    23    16    25   ar
    24    17    18    1
    25    18    19    1
    26    19    20   ar
    27    19    24   ar
    28    20    21   ar
    29    21    22   ar
    30    22    23   ar
    31    23    24   ar
    32    25    26   ar
    33    26    27   ar
    34    27    28   ar
