@<TRIPOS>MOLECULE
30491_ChemDiv_3875-0158
 18 19 0 0 0
SMALL
GASTEIGER
Energy = 0

@<TRIPOS>ATOM
      1 C           2.9250   -0.2710    0.0000 C.2     1  LIG1        0.2670
      2 C           2.1080    0.2040    0.0000 C.3     1  LIG1        0.1571
      3 C           1.2250   -0.2710    0.0000 C.3     1  LIG1        0.2104
      4 N           0.4040    0.2040    0.0000 N.4     1  LIG1        0.4487
      5 C          -0.4080   -0.2710    0.0000 C.3     1  LIG1        0.2043
      6 C          -1.2250    0.2040    0.0000 C.3     1  LIG1        0.0762
      7 C          -2.1130   -0.2710    0.0000 C.ar    1  LIG1       -0.0171
      8 C          -2.1130   -1.2250    0.0000 C.ar    1  LIG1       -0.0041
      9 C          -2.9290   -1.7000    0.0000 C.ar    1  LIG1       -0.0003
     10 C          -3.7460   -1.2250    0.0000 C.ar    1  LIG1       -0.0000
     11 C          -3.7460   -0.2710    0.0000 C.ar    1  LIG1       -0.0003
     12 C          -2.9290    0.2040    0.0000 C.ar    1  LIG1       -0.0041
     13 C          -0.4080    0.7580    0.0000 C.3     1  LIG1        0.0100
     14 C          -0.4080    1.7040    0.0000 C.3     1  LIG1        0.0005
     15 C          -2.1130    1.7040    0.0000 C.3     1  LIG1        0.0005
     16 C          -2.1130    0.7580    0.0000 C.3     1  LIG1        0.0100
     17 O           2.9250   -1.2250    0.0000 O.2     1  LIG1       -0.2714
     18 N           3.7420    0.2040    0.0000 N.am    1  LIG1       -0.0876
@<TRIPOS>BOND
     1     1     2    1
     2     1    17    2
     3     1    18   am
     4     2     3    1
     5     3     4    1
     6     4     5    1
     7     5     6    1
     8     6     7    1
     9     6    13    1
    10     6    16    1
    11     7     8   ar
    12     7    12   ar
    13     8     9   ar
    14     9    10   ar
    15    10    11   ar
    16    11    12   ar
    17    13    14    1
    18    14    15    1
    19    15    16    1
