@<TRIPOS>MOLECULE
30504_ChemDiv_4896-3047
 18 21 0 0 0
SMALL
GASTEIGER
Energy = 0

@<TRIPOS>ATOM
      1 N           1.2580    1.0250    0.0000 N.ar    1  LIG1       -0.2059
      2 C           1.8380    0.2080    0.0000 C.ar    1  LIG1        0.2722
      3 N           1.4420   -0.7000    0.0000 N.ar    1  LIG1       -0.1880
      4 C           0.4460   -0.8040    0.0000 C.ar    1  LIG1        0.1855
      5 C          -0.1500    0.0080    0.0000 C.ar    1  LIG1        0.1455
      6 N           0.2670    0.9170    0.0000 N.ar    1  LIG1       -0.1595
      7 C          -1.0920   -0.3170    0.0000 C.ar    1  LIG1        0.0740
      8 C          -1.0920   -1.3130    0.0000 C.ar    1  LIG1        0.0877
      9 N          -0.1500   -1.6000    0.0000 N.ar    1  LIG1       -0.2248
     10 C          -1.9580   -1.7960    0.0000 C.2     1  LIG1       -0.0029
     11 C          -2.8130   -1.3130    0.0000 C.2     1  LIG1        0.0055
     12 C          -2.8130   -0.3170    0.0000 C.2     1  LIG1        0.0412
     13 C          -1.9580    0.2080    0.0000 C.1     1  LIG1       -0.0980
     14 C          -1.9580   -2.7920    0.0000 C.3     1  LIG1        0.0326
     15 N           2.8080    0.5210    0.0000 N.ar    1  LIG1       -0.1089
     16 N           2.8080    1.5290    0.0000 N.ar    1  LIG1       -0.1581
     17 C           1.8380    1.8460    0.0000 C.ar    1  LIG1        0.0190
     18 S           1.5500    2.7960    0.0000 S.3     1  LIG1       -0.7171
@<TRIPOS>BOND
     1     1     2   ar
     2     1     6   ar
     3     1    17   ar
     4     2     3   ar
     5     2    15   ar
     6     3     4   ar
     7     4     5   ar
     8     4     9   ar
     9     5     6   ar
    10     5     7   ar
    11     7     8   ar
    12     7    13    2
    13     8     9   ar
    14     8    10    1
    15    10    11    2
    16    10    14    1
    17    11    12    1
    18    12    13    2
    19    15    16   ar
    20    16    17   ar
    21    17    18    1
