@<TRIPOS>MOLECULE
30509_ChemDiv_4206-0005
 18 21 0 0 0
SMALL
GASTEIGER
Energy = 0

@<TRIPOS>ATOM
      1 C          -0.2330    1.1290    0.0000 C.ar    1  LIG1        0.1205
      2 C           0.1580    0.2460    0.0000 C.ar    1  LIG1        0.1028
      3 C          -0.5710   -0.4330    0.0000 C.ar    1  LIG1        0.0193
      4 C          -1.4210    0.0750    0.0000 C.ar    1  LIG1        0.0031
      5 C          -1.2080    1.0330    0.0000 C.ar    1  LIG1        0.0209
      6 C          -1.9420    1.6880    0.0000 C.ar    1  LIG1        0.0016
      7 C          -3.1330    1.0750    0.0000 C.ar    1  LIG1        0.0000
      8 C          -3.1330    0.1000    0.0000 C.ar    1  LIG1        0.0000
      9 C          -2.2830   -0.4080    0.0000 C.ar    1  LIG1        0.0001
     10 C          -2.2830   -1.4130    0.0000 C.ar    1  LIG1        0.0000
     11 C          -1.4210   -1.9040    0.0000 C.ar    1  LIG1        0.0000
     12 C          -0.5710   -1.4130    0.0000 C.ar    1  LIG1        0.0015
     13 N           1.1330    0.1250    0.0000 N.ar    1  LIG1       -0.2183
     14 C           1.7210    0.9080    0.0000 C.ar    1  LIG1        0.2105
     15 N           1.3290    1.7830    0.0000 N.ar    1  LIG1       -0.1218
     16 N           0.3500    1.9080    0.0000 N.ar    1  LIG1       -0.1445
     17 S           2.7210    0.8380    0.0000 S.3     1  LIG1       -0.0731
     18 C           3.1290   -0.0420    0.0000 C.3     1  LIG1        0.0773
@<TRIPOS>BOND
     1     1     2   ar
     2     1     5    1
     3     1    16   ar
     4     2     3    1
     5     2    13   ar
     6     3     4   ar
     7     3    12   ar
     8     4     5   ar
     9     4     9   ar
    10     5     6   ar
    11     6     7   ar
    12     7     8   ar
    13     8     9   ar
    14     9    10   ar
    15    10    11   ar
    16    11    12   ar
    17    13    14   ar
    18    14    15   ar
    19    14    17    1
    20    15    16   ar
    21    17    18    1
