@<TRIPOS>MOLECULE
30505_ChemDiv_3809-1116
 25 28 0 0 0
SMALL
GASTEIGER
Energy = 0

@<TRIPOS>ATOM
      1 C          -2.0330    1.1460    0.0000 C.ar    1  LIG1        0.1205
      2 C          -1.5500    0.3000    0.0000 C.ar    1  LIG1        0.1028
      3 C          -2.2170   -0.4330    0.0000 C.ar    1  LIG1        0.0193
      4 C          -3.1080   -0.0210    0.0000 C.ar    1  LIG1        0.0031
      5 C          -3.0040    0.9380    0.0000 C.ar    1  LIG1        0.0209
      6 C          -3.7920    1.5250    0.0000 C.ar    1  LIG1        0.0016
      7 C          -4.9130    0.7880    0.0000 C.ar    1  LIG1        0.0000
      8 C          -4.8080   -0.1790    0.0000 C.ar    1  LIG1        0.0000
      9 C          -3.9210   -0.6080    0.0000 C.ar    1  LIG1        0.0001
     10 C          -3.8130   -1.6080    0.0000 C.ar    1  LIG1        0.0000
     11 C          -2.9210   -2.0080    0.0000 C.ar    1  LIG1        0.0000
     12 C          -2.1130   -1.4210    0.0000 C.ar    1  LIG1        0.0015
     13 N          -0.5630    0.3000    0.0000 N.ar    1  LIG1       -0.2183
     14 C          -0.0540    1.1460    0.0000 C.ar    1  LIG1        0.2110
     15 N          -0.5330    1.9830    0.0000 N.ar    1  LIG1       -0.1218
     16 N          -1.5250    2.0130    0.0000 N.ar    1  LIG1       -0.1445
     17 S           0.9420    1.1710    0.0000 S.3     1  LIG1       -0.0642
     18 C           1.4500    0.3290    0.0000 C.3     1  LIG1        0.1516
     19 C           2.4420    0.3580    0.0000 C.2     1  LIG1        0.2527
     20 N           2.9290   -0.4830    0.0000 N.am    1  LIG1       -0.2081
     21 C           3.9210   -0.4830    0.0000 C.3     1  LIG1        0.0788
     22 C           3.9210   -1.4790    0.0000 C.3     1  LIG1        0.0217
     23 C           3.9210    0.5080    0.0000 C.3     1  LIG1        0.0217
     24 C           4.9080   -0.4830    0.0000 C.3     1  LIG1        0.0217
     25 O           2.9290    1.2170    0.0000 O.2     1  LIG1       -0.2724
@<TRIPOS>BOND
     1     1     2   ar
     2     1     5    1
     3     1    16   ar
     4     2     3    1
     5     2    13   ar
     6     3     4   ar
     7     3    12   ar
     8     4     5   ar
     9     4     9   ar
    10     5     6   ar
    11     6     7   ar
    12     7     8   ar
    13     8     9   ar
    14     9    10   ar
    15    10    11   ar
    16    11    12   ar
    17    13    14   ar
    18    14    15   ar
    19    14    17    1
    20    15    16   ar
    21    17    18    1
    22    18    19    1
    23    19    20   am
    24    19    25    2
    25    20    21    1
    26    21    22    1
    27    21    23    1
    28    21    24    1
