@<TRIPOS>MOLECULE
30500_ChemDiv_4065-0180
 22 25 0 0 0
SMALL
GASTEIGER
Energy = 0

@<TRIPOS>ATOM
      1 N           1.3920    0.5000    0.0000 N.ar    1  LIG1       -0.2060
      2 C           1.4040   -0.4960    0.0000 C.ar    1  LIG1        0.2708
      3 N           0.5250   -0.9960    0.0000 N.ar    1  LIG1       -0.2072
      4 C          -0.3420   -0.4960    0.0000 C.ar    1  LIG1        0.1037
      5 C          -0.3420    0.5000    0.0000 C.ar    1  LIG1        0.1189
      6 N           0.5250    1.0080    0.0000 N.ar    1  LIG1       -0.1618
      7 C          -1.2080    1.0000    0.0000 C.ar    1  LIG1        0.0208
      8 C          -1.2080    2.0000    0.0000 C.ar    1  LIG1        0.0016
      9 C          -2.0750    2.5000    0.0000 C.ar    1  LIG1        0.0000
     10 C          -2.9380    2.0000    0.0000 C.ar    1  LIG1        0.0000
     11 C          -2.9290    0.9830    0.0000 C.ar    1  LIG1        0.0000
     12 C          -2.0630    0.5000    0.0000 C.ar    1  LIG1        0.0016
     13 C          -1.2080   -0.9960    0.0000 C.ar    1  LIG1        0.0193
     14 C          -2.0750   -0.4960    0.0000 C.ar    1  LIG1        0.0015
     15 C          -2.9290   -0.9920    0.0000 C.ar    1  LIG1        0.0000
     16 C          -2.9380   -1.9920    0.0000 C.ar    1  LIG1        0.0000
     17 C          -2.0630   -2.4960    0.0000 C.ar    1  LIG1        0.0000
     18 C          -1.1960   -1.9920    0.0000 C.ar    1  LIG1        0.0015
     19 N           2.3500   -0.7960    0.0000 N.ar    1  LIG1       -0.1089
     20 N           2.9330    0.0080    0.0000 N.ar    1  LIG1       -0.1581
     21 C           2.3500    0.8080    0.0000 C.ar    1  LIG1        0.0190
     22 S           2.6580    1.7670    0.0000 S.3     1  LIG1       -0.7171
@<TRIPOS>BOND
     1     1     2   ar
     2     1     6   ar
     3     1    21   ar
     4     2     3   ar
     5     2    19   ar
     6     3     4   ar
     7     4     5   ar
     8     4    13    1
     9     5     6   ar
    10     5     7    1
    11     7     8   ar
    12     7    12   ar
    13     8     9   ar
    14     9    10   ar
    15    10    11   ar
    16    11    12   ar
    17    13    14   ar
    18    13    18   ar
    19    14    15   ar
    20    15    16   ar
    21    16    17   ar
    22    17    18   ar
    23    19    20   ar
    24    20    21   ar
    25    21    22    1
