@<TRIPOS>MOLECULE
30507_ChemDiv_3809-1120
 26 30 0 0 0
SMALL
GASTEIGER
Energy = 0

@<TRIPOS>ATOM
      1 C          -1.7630    0.8880    0.0000 C.ar    1  LIG1        0.1205
      2 C          -1.3750    0.0000    0.0000 C.ar    1  LIG1        0.1028
      3 C          -2.1080   -0.6830    0.0000 C.ar    1  LIG1        0.0193
      4 C          -2.9670   -0.1710    0.0000 C.ar    1  LIG1        0.0031
      5 C          -2.7420    0.7880    0.0000 C.ar    1  LIG1        0.0209
      6 C          -3.4790    1.4460    0.0000 C.ar    1  LIG1        0.0016
      7 C          -4.6830    0.8330    0.0000 C.ar    1  LIG1        0.0000
      8 C          -4.6830   -0.1500    0.0000 C.ar    1  LIG1        0.0000
      9 C          -3.8250   -0.6580    0.0000 C.ar    1  LIG1        0.0001
     10 C          -3.8250   -1.6670    0.0000 C.ar    1  LIG1        0.0000
     11 C          -2.9670   -2.1540    0.0000 C.ar    1  LIG1        0.0000
     12 C          -2.1080   -1.6670    0.0000 C.ar    1  LIG1        0.0015
     13 N          -0.3920   -0.1250    0.0000 N.ar    1  LIG1       -0.2183
     14 C           0.2000    0.6630    0.0000 C.ar    1  LIG1        0.2110
     15 N          -0.1920    1.5460    0.0000 N.ar    1  LIG1       -0.1218
     16 N          -1.1750    1.6710    0.0000 N.ar    1  LIG1       -0.1445
     17 S           1.2000    0.5880    0.0000 S.3     1  LIG1       -0.0642
     18 C           1.6130   -0.2920    0.0000 C.3     1  LIG1        0.1501
     19 C           2.5960   -0.3960    0.0000 C.2     1  LIG1        0.2372
     20 N           3.1630    0.4460    0.0000 N.am    1  LIG1       -0.2737
     21 C           4.1420    0.3670    0.0000 C.3     1  LIG1        0.1255
     22 C           4.6790    1.2000    0.0000 C.3     1  LIG1        0.1636
     23 O           4.2920    2.0580    0.0000 O.3     1  LIG1       -0.3501
     24 C           3.2830    2.1580    0.0000 C.3     1  LIG1        0.1636
     25 C           2.7170    1.3460    0.0000 C.3     1  LIG1        0.1255
     26 O           3.0380   -1.2710    0.0000 O.2     1  LIG1       -0.2739
@<TRIPOS>BOND
     1     1     2   ar
     2     1     5    1
     3     1    16   ar
     4     2     3    1
     5     2    13   ar
     6     3     4   ar
     7     3    12   ar
     8     4     5   ar
     9     4     9   ar
    10     5     6   ar
    11     6     7   ar
    12     7     8   ar
    13     8     9   ar
    14     9    10   ar
    15    10    11   ar
    16    11    12   ar
    17    13    14   ar
    18    14    15   ar
    19    14    17    1
    20    15    16   ar
    21    17    18    1
    22    18    19    1
    23    19    20   am
    24    19    26    2
    25    20    21    1
    26    20    25    1
    27    21    22    1
    28    22    23    1
    29    23    24    1
    30    24    25    1
