@<TRIPOS>MOLECULE
30502_ChemDiv_4065-0182
 16 19 0 0 0
SMALL
GASTEIGER
Energy = 0

@<TRIPOS>ATOM
      1 N           1.5540    0.1000    0.0000 N.ar    1  LIG1       -0.0898
      2 C           1.5540   -0.9000    0.0000 C.ar    1  LIG1        0.2930
      3 N           0.6920   -1.4080    0.0000 N.ar    1  LIG1       -0.1867
      4 C          -0.1750   -0.9170    0.0000 C.ar    1  LIG1        0.1856
      5 C          -0.1750    0.1000    0.0000 C.ar    1  LIG1        0.1471
      6 N           0.6920    0.6000    0.0000 N.ar    1  LIG1       -0.1399
      7 C          -1.1330    0.4000    0.0000 C.ar    1  LIG1        0.0744
      8 C          -1.7080   -0.4130    0.0000 C.ar    1  LIG1        0.0917
      9 N          -1.1330   -1.2250    0.0000 N.ar    1  LIG1       -0.2245
     10 C          -2.7040   -0.3000    0.0000 C.2     1  LIG1        0.0204
     11 C          -3.1080    0.6000    0.0000 C.2     1  LIG1        0.0098
     12 C          -2.5250    1.4130    0.0000 C.2     1  LIG1        0.0415
     13 C          -1.5250    1.3040    0.0000 C.1     1  LIG1       -0.0980
     14 N           2.5210   -1.2080    0.0000 N.ar    1  LIG1       -0.0858
     15 N           3.1040   -0.4130    0.0000 N.ar    1  LIG1       -0.0194
     16 N           2.5210    0.4000    0.0000 N.ar    1  LIG1       -0.0195
@<TRIPOS>BOND
     1     1     2   ar
     2     1     6   ar
     3     1    16   ar
     4     2     3   ar
     5     2    14   ar
     6     3     4   ar
     7     4     5   ar
     8     4     9   ar
     9     5     6   ar
    10     5     7   ar
    11     7     8   ar
    12     7    13    2
    13     8     9   ar
    14     8    10    1
    15    10    11    2
    16    11    12    1
    17    12    13    2
    18    14    15   ar
    19    15    16   ar
