@<TRIPOS>MOLECULE
30514_ChemDiv_3929-0045
 17 18 0 0 0
SMALL
GASTEIGER
Energy = 0

@<TRIPOS>ATOM
      1 N          -2.6830    0.0750    0.0000 N.ar    1  LIG1       -0.2031
      2 C          -2.0040    0.8380    0.0000 C.ar    1  LIG1        0.2121
      3 N          -2.5000    1.7040    0.0000 N.ar    1  LIG1       -0.1207
      4 N          -3.4920    1.4920    0.0000 N.ar    1  LIG1       -0.1311
      5 C          -3.5750    0.4920    0.0000 C.ar    1  LIG1        0.1633
      6 C          -4.4250    0.0000    0.0000 C.3     1  LIG1        0.0757
      7 S          -1.0080    0.8380    0.0000 S.3     1  LIG1       -0.0641
      8 C          -0.5170   -0.0290    0.0000 C.3     1  LIG1        0.1520
      9 C           0.5080   -0.0290    0.0000 C.2     1  LIG1        0.2584
     10 N           1.0040   -0.8920    0.0000 N.am    1  LIG1       -0.1564
     11 C           2.0000   -0.8920    0.0000 C.ar    1  LIG1        0.1958
     12 N           2.5580   -1.7000    0.0000 N.ar    1  LIG1       -0.0604
     13 O           3.5170   -1.4170    0.0000 O.2     1  LIG1       -0.3565
     14 C           3.5830   -0.4330    0.0000 C.ar    1  LIG1        0.1563
     15 C           2.6540   -0.0790    0.0000 C.ar    1  LIG1        0.0751
     16 C           4.4210    0.0880    0.0000 C.3     1  LIG1        0.0754
     17 O           1.0040    0.8380    0.0000 O.2     1  LIG1       -0.2720
@<TRIPOS>BOND
     1     1     2   ar
     2     1     5   ar
     3     2     3   ar
     4     2     7    1
     5     3     4   ar
     6     4     5   ar
     7     5     6    1
     8     7     8    1
     9     8     9    1
    10     9    10   am
    11     9    17    2
    12    10    11    1
    13    11    12   ar
    14    11    15   ar
    15    12    13   ar
    16    13    14   ar
    17    14    15   ar
    18    14    16    1
