@<TRIPOS>MOLECULE
30511_ChemDiv_4206-0025
 21 24 0 0 0
SMALL
GASTEIGER
Energy = 0

@<TRIPOS>ATOM
      1 C          -1.4080    1.1290    0.0000 C.ar    1  LIG1        0.1205
      2 C          -1.0290    0.2250    0.0000 C.ar    1  LIG1        0.1028
      3 C          -1.7710   -0.4380    0.0000 C.ar    1  LIG1        0.0193
      4 C          -2.6210    0.0790    0.0000 C.ar    1  LIG1        0.0031
      5 C          -2.3880    1.0500    0.0000 C.ar    1  LIG1        0.0209
      6 C          -3.0790    1.7250    0.0000 C.ar    1  LIG1        0.0016
      7 C          -4.2880    1.1080    0.0000 C.ar    1  LIG1        0.0000
      8 C          -4.3170    0.1040    0.0000 C.ar    1  LIG1        0.0000
      9 C          -3.4630   -0.4080    0.0000 C.ar    1  LIG1        0.0001
     10 C          -3.4630   -1.4130    0.0000 C.ar    1  LIG1        0.0000
     11 C          -2.6210   -1.8960    0.0000 C.ar    1  LIG1        0.0000
     12 C          -1.7710   -1.4420    0.0000 C.ar    1  LIG1        0.0015
     13 N          -0.0500    0.1330    0.0000 N.ar    1  LIG1       -0.2183
     14 C           0.5460    0.9290    0.0000 C.ar    1  LIG1        0.2105
     15 N           0.1830    1.8000    0.0000 N.ar    1  LIG1       -0.1218
     16 N          -0.8130    1.9000    0.0000 N.ar    1  LIG1       -0.1445
     17 S           1.5420    0.8460    0.0000 S.3     1  LIG1       -0.0741
     18 C           1.9580   -0.0540    0.0000 C.3     1  LIG1        0.0652
     19 C           2.9290   -0.1540    0.0000 C.3     1  LIG1        0.0121
     20 C           3.3420   -1.0250    0.0000 C.3     1  LIG1        0.0009
     21 C           4.3130   -1.1330    0.0000 C.3     1  LIG1        0.0000
@<TRIPOS>BOND
     1     1     2   ar
     2     1     5    1
     3     1    16   ar
     4     2     3    1
     5     2    13   ar
     6     3     4   ar
     7     3    12   ar
     8     4     5   ar
     9     4     9   ar
    10     5     6   ar
    11     6     7   ar
    12     7     8   ar
    13     8     9   ar
    14     9    10   ar
    15    10    11   ar
    16    11    12   ar
    17    13    14   ar
    18    14    15   ar
    19    14    17    1
    20    15    16   ar
    21    17    18    1
    22    18    19    1
    23    19    20    1
    24    20    21    1
