@<TRIPOS>MOLECULE
30516_ChemDiv_3930-0167
 29 31 0 0 0
SMALL
GASTEIGER
Energy = 0

@<TRIPOS>ATOM
      1 C           1.9830   -0.8580    0.0000 C.2     1  LIG1        0.1313
      2 C           2.5000   -1.7290    0.0000 C.2     1  LIG1        0.0841
      3 C           2.0040   -2.6080    0.0000 C.2     1  LIG1        0.3400
      4 O           1.0080   -2.6080    0.0000 O.3     1  LIG1       -0.4443
      5 C           0.5040   -1.7290    0.0000 C.3     1  LIG1        0.1979
      6 C           0.9880   -0.8580    0.0000 C.3     1  LIG1        0.0920
      7 C          -0.0380   -0.8710    0.0000 C.3     1  LIG1        0.0115
      8 C           0.3670   -0.0210    0.0000 C.3     1  LIG1        0.0115
      9 C          -0.4960   -1.7290    0.0000 C.ar    1  LIG1        0.0209
     10 C          -0.9830   -2.5960    0.0000 C.ar    1  LIG1        0.0392
     11 C          -1.9670   -2.5960    0.0000 C.ar    1  LIG1        0.1722
     12 C          -2.4830   -1.7500    0.0000 C.ar    1  LIG1        0.1724
     13 C          -1.9790   -0.9000    0.0000 C.ar    1  LIG1        0.0398
     14 C          -1.0000   -0.8880    0.0000 C.ar    1  LIG1        0.0025
     15 O          -3.4790   -1.7500    0.0000 O.3     1  LIG1       -0.4684
     16 C          -3.9630   -0.9000    0.0000 C.3     1  LIG1        0.2526
     17 O          -2.4330   -3.4630    0.0000 O.3     1  LIG1       -0.4684
     18 C          -3.4290   -3.4960    0.0000 C.3     1  LIG1        0.2526
     19 O           2.4880   -3.4750    0.0000 O.2     1  LIG1       -0.2451
     20 C           3.4920   -1.7290    0.0000 C.3     1  LIG1        0.0407
     21 O           2.4580    0.0130    0.0000 O.3     1  LIG1       -0.4255
     22 C           1.9420    0.8630    0.0000 C.2     1  LIG1        0.3454
     23 O           0.9330    0.8630    0.0000 O.2     1  LIG1       -0.2445
     24 C           2.4380    1.7540    0.0000 C.ar    1  LIG1        0.0760
     25 C           1.9420    2.6130    0.0000 C.ar    1  LIG1        0.0065
     26 C           2.4210    3.5000    0.0000 C.ar    1  LIG1        0.0002
     27 C           3.4080    3.5000    0.0000 C.ar    1  LIG1        0.0000
     28 C           3.9580    2.6710    0.0000 C.ar    1  LIG1        0.0002
     29 C           3.4420    1.7670    0.0000 C.ar    1  LIG1        0.0065
@<TRIPOS>BOND
     1     1     2    2
     2     1     6    1
     3     1    21    1
     4     2     3    1
     5     2    20    1
     6     3     4    1
     7     3    19    2
     8     4     5    1
     9     5     6    1
    10     5     9    1
    11     6     7    1
    12     6     8    1
    13     9    10   ar
    14     9    14   ar
    15    10    11   ar
    16    11    12   ar
    17    11    17    1
    18    12    13   ar
    19    12    15    1
    20    13    14   ar
    21    15    16    1
    22    17    18    1
    23    21    22    1
    24    22    23    2
    25    22    24    1
    26    24    25   ar
    27    24    29   ar
    28    25    26   ar
    29    26    27   ar
    30    27    28   ar
    31    28    29   ar
