@<TRIPOS>MOLECULE
30515_ChemDiv_3886-1210
 22 25 0 0 0
SMALL
GASTEIGER
Energy = 0

@<TRIPOS>ATOM
      1 C          -0.6330    0.5250    0.0000 C.ar    1  LIG1        0.0369
      2 C          -1.4830    1.0250    0.0000 C.ar    1  LIG1        0.1763
      3 C          -1.4830    2.0080    0.0000 C.ar    1  LIG1        0.1761
      4 C          -0.6330    2.4960    0.0000 C.ar    1  LIG1        0.0361
      5 C           0.2790    2.0080    0.0000 C.ar    1  LIG1       -0.0130
      6 C           0.2790    1.0250    0.0000 C.ar    1  LIG1       -0.0006
      7 C           1.1250    0.5250    0.0000 C.ar    1  LIG1       -0.0002
      8 C           1.1250   -0.4540    0.0000 C.ar    1  LIG1       -0.0000
      9 C           0.2790   -1.0170    0.0000 C.ar    1  LIG1        0.0001
     10 C          -0.6330   -0.4540    0.0000 C.ar    1  LIG1        0.0030
     11 C          -1.4830   -1.0170    0.0000 C.ar    1  LIG1        0.0001
     12 C          -1.4830   -2.0000    0.0000 C.ar    1  LIG1        0.0000
     13 C          -0.6330   -2.4920    0.0000 C.ar    1  LIG1        0.0000
     14 C           0.2790   -2.0000    0.0000 C.ar    1  LIG1        0.0000
     15 C           1.1250    2.4960    0.0000 C.3     1  LIG1        0.0891
     16 C           1.9670    2.0080    0.0000 C.3     1  LIG1        0.1439
     17 N           1.9670    1.0250    0.0000 N.4     1  LIG1        0.3870
     18 C           1.9670    0.0460    0.0000 C.3     1  LIG1        0.2026
     19 C           3.0210    1.0250    0.0000 C.3     1  LIG1        0.2026
     20 O          -2.4630    2.2920    0.0000 O.3     1  LIG1       -0.4346
     21 C          -3.0250    1.4420    0.0000 C.3     1  LIG1        0.4294
     22 O          -2.3250    0.6750    0.0000 O.3     1  LIG1       -0.4346
@<TRIPOS>BOND
     1     1     2   ar
     2     1     6   ar
     3     1    10   ar
     4     2     3   ar
     5     2    22    1
     6     3     4   ar
     7     3    20    1
     8     4     5   ar
     9     5     6   ar
    10     5    15    1
    11     6     7   ar
    12     7     8   ar
    13     8     9   ar
    14     9    10   ar
    15     9    14   ar
    16    10    11   ar
    17    11    12   ar
    18    12    13   ar
    19    13    14   ar
    20    15    16    1
    21    16    17    1
    22    17    18    1
    23    17    19    1
    24    20    21    1
    25    21    22    1
