@<TRIPOS>MOLECULE
30517_ChemDiv_3886-1244
 16 17 0 0 0
SMALL
GASTEIGER
Energy = 0

@<TRIPOS>ATOM
      1 N          -1.3170   -1.2670    0.0000 N.4     1  LIG1        0.2974
      2 C          -1.3170   -0.2790    0.0000 C.3     1  LIG1        0.0584
      3 C          -0.4670    0.2130    0.0000 C.3     1  LIG1        0.0499
      4 C           0.4540   -0.2790    0.0000 C.3     1  LIG1        0.0118
      5 C           0.4540   -1.2670    0.0000 C.3     1  LIG1        0.0612
      6 C          -0.4670   -1.7670    0.0000 C.3     1  LIG1        0.1084
      7 C          -0.4670    1.2750    0.0000 C.3     1  LIG1        0.0068
      8 C           0.4540    1.7670    0.0000 C.3     1  LIG1        0.0164
      9 C           1.3040    1.2750    0.0000 C.3     1  LIG1        0.1054
     10 C           2.1580    1.7670    0.0000 C.1     1  LIG1        0.0731
     11 N           3.0040    2.2630    0.0000 N.1     1  LIG1       -0.1959
     12 C          -2.1630    0.2130    0.0000 C.3     1  LIG1        0.0553
     13 C          -3.0080   -0.2790    0.0000 C.3     1  LIG1        0.0120
     14 C          -3.0080   -1.2670    0.0000 C.3     1  LIG1        0.0612
     15 C          -2.1630   -1.7670    0.0000 C.3     1  LIG1        0.1084
     16 C          -1.3170   -2.2580    0.0000 C.3     1  LIG1        0.1702
@<TRIPOS>BOND
     1     1     2    1
     2     1     6    1
     3     1    15    1
     4     1    16    1
     5     2     3    1
     6     2    12    1
     7     3     4    1
     8     3     7    1
     9     4     5    1
    10     5     6    1
    11     7     8    1
    12     8     9    1
    13     9    10    1
    14    10    11    3
    15    12    13    1
    16    13    14    1
    17    14    15    1
