@<TRIPOS>MOLECULE
30512_ChemDiv_4073-0047
 17 19 0 0 0
SMALL
GASTEIGER
Energy = 0

@<TRIPOS>ATOM
      1 C          -0.5330    0.5130    0.0000 C.ar    1  LIG1        0.1711
      2 N           0.4330    0.5130    0.0000 N.ar    1  LIG1       -0.2102
      3 N           0.7670    1.4830    0.0000 N.ar    1  LIG1       -0.1409
      4 C          -0.0500    2.0460    0.0000 C.ar    1  LIG1        0.2213
      5 N          -0.8500    1.4580    0.0000 N.ar    1  LIG1       -0.2029
      6 C           0.9920   -0.3080    0.0000 C.ar    1  LIG1        0.0845
      7 C           1.9920   -0.2460    0.0000 C.ar    1  LIG1        0.0192
      8 C           2.5500   -1.0710    0.0000 C.ar    1  LIG1        0.0015
      9 C           2.1330   -1.9880    0.0000 C.ar    1  LIG1        0.0001
     10 C           1.1290   -2.0420    0.0000 C.ar    1  LIG1        0.0015
     11 C           0.5630   -1.2080    0.0000 C.ar    1  LIG1        0.0192
     12 C          -1.0960   -0.3000    0.0000 C.ar    1  LIG1        0.0614
     13 C          -2.0630   -0.2460    0.0000 C.ar    1  LIG1       -0.0124
     14 C          -2.4170   -1.2290    0.0000 C.ar    1  LIG1        0.0033
     15 C          -1.6330   -1.8290    0.0000 C.ar    1  LIG1        0.0352
     16 S          -0.7750   -1.2580    0.0000 S.2     1  LIG1       -0.0837
     17 C          -2.5540    0.6130    0.0000 C.3     1  LIG1        0.0317
@<TRIPOS>BOND
     1     1     2   ar
     2     1     5   ar
     3     1    12    1
     4     2     3   ar
     5     2     6    1
     6     3     4   ar
     7     4     5   ar
     8     6     7   ar
     9     6    11   ar
    10     7     8   ar
    11     8     9   ar
    12     9    10   ar
    13    10    11   ar
    14    12    13   ar
    15    12    16   ar
    16    13    14   ar
    17    13    17    1
    18    14    15   ar
    19    15    16   ar
