@<TRIPOS>MOLECULE
30518_ChemDiv_3931-2556
 19 20 0 0 0
SMALL
GASTEIGER
Energy = 0

@<TRIPOS>ATOM
      1 C           0.8790   -1.0500    0.0000 C.2     1  LIG1        0.1180
      2 C           0.8790   -0.0540    0.0000 C.2     1  LIG1        0.0130
      3 C           0.0000    0.4290    0.0000 C.3     1  LIG1        0.0784
      4 C          -0.8750   -0.0540    0.0000 C.ar    1  LIG1        0.0182
      5 C          -0.8750   -1.0500    0.0000 C.ar    1  LIG1        0.1411
      6 O           0.0000   -1.5500    0.0000 O.3     1  LIG1       -0.4584
      7 C          -1.7460   -1.5500    0.0000 C.ar    1  LIG1        0.0372
      8 C          -2.6210   -1.0500    0.0000 C.ar    1  LIG1        0.0031
      9 C          -2.6210   -0.0540    0.0000 C.ar    1  LIG1       -0.0001
     10 C          -1.7460    0.4290    0.0000 C.ar    1  LIG1       -0.0009
     11 C           0.0000    1.4380    0.0000 C.3     1  LIG1        0.1898
     12 C          -0.8580    1.9380    0.0000 C.1     1  LIG1        0.0882
     13 N          -1.7170    2.4290    0.0000 N.1     1  LIG1       -0.1948
     14 C           0.8540    1.9380    0.0000 C.1     1  LIG1        0.0882
     15 N           1.7080    2.4290    0.0000 N.1     1  LIG1       -0.1948
     16 C           1.7330   -1.5380    0.0000 C.3     1  LIG1        0.0509
     17 C           2.2210   -0.6580    0.0000 C.3     1  LIG1        0.0075
     18 C           2.6170   -2.0380    0.0000 C.3     1  LIG1        0.0075
     19 C           1.2670   -2.4250    0.0000 C.3     1  LIG1        0.0075
@<TRIPOS>BOND
     1     1     2    2
     2     1     6    1
     3     1    16    1
     4     2     3    1
     5     3     4    1
     6     3    11    1
     7     4     5   ar
     8     4    10   ar
     9     5     6    1
    10     5     7   ar
    11     7     8   ar
    12     8     9   ar
    13     9    10   ar
    14    11    12    1
    15    11    14    1
    16    12    13    3
    17    14    15    3
    18    16    17    1
    19    16    18    1
    20    16    19    1
