@<TRIPOS>MOLECULE
30528_ChemDiv_3966-0325
 13 13 0 0 0
SMALL
GASTEIGER
Energy = 0

@<TRIPOS>ATOM
      1 N           0.0330    1.4880    0.0000 N.ar    1  LIG1       -0.1737
      2 C           0.0330    0.5000    0.0000 C.ar    1  LIG1        0.2388
      3 N           0.8960   -0.0170    0.0000 N.ar    1  LIG1       -0.2166
      4 C           1.7540    0.4710    0.0000 C.ar    1  LIG1        0.0671
      5 C           1.7540    1.4880    0.0000 C.ar    1  LIG1        0.0773
      6 C           0.8960    1.9830    0.0000 C.ar    1  LIG1        0.2829
      7 O           0.8960    2.9710    0.0000 O.2     1  LIG1       -0.2651
      8 C           2.6250   -0.0170    0.0000 C.3     1  LIG1        0.0524
      9 N          -0.8540   -0.0040    0.0000 N.pl3   1  LIG1       -0.2037
     10 C          -0.8540   -1.0040    0.0000 C.3     1  LIG1        0.1181
     11 C          -1.7290   -1.4880    0.0000 C.3     1  LIG1        0.0590
     12 C          -1.7380   -2.4790    0.0000 C.3     1  LIG1        0.1839
     13 O          -2.6290   -2.9670    0.0000 O.3     1  LIG1       -0.2204
@<TRIPOS>BOND
     1     1     2   ar
     2     1     6   ar
     3     2     3   ar
     4     2     9    1
     5     3     4   ar
     6     4     5   ar
     7     4     8    1
     8     5     6   ar
     9     6     7    2
    10     9    10    1
    11    10    11    1
    12    11    12    1
    13    12    13    1
