@<TRIPOS>MOLECULE
30529_ChemDiv_5518-1820
 31 35 0 0 0
SMALL
GASTEIGER
Energy = 0

@<TRIPOS>ATOM
      1 C          -3.4130   -0.7080    0.0000 C.ar    1  LIG1        0.1205
      2 C          -3.2790    0.2630    0.0000 C.ar    1  LIG1        0.1028
      3 C          -4.3330    0.7960    0.0000 C.ar    1  LIG1        0.0193
      4 C          -4.8500   -0.0330    0.0000 C.ar    1  LIG1        0.0031
      5 C          -4.3830   -0.9040    0.0000 C.ar    1  LIG1        0.0209
      6 C          -4.8880   -1.7290    0.0000 C.ar    1  LIG1        0.0016
      7 C          -5.8880   -1.7040    0.0000 C.ar    1  LIG1        0.0000
      8 C          -6.3500   -0.8420    0.0000 C.ar    1  LIG1        0.0000
      9 C          -5.8250   -0.0040    0.0000 C.ar    1  LIG1        0.0001
     10 C          -6.3170    0.8630    0.0000 C.ar    1  LIG1        0.0000
     11 C          -5.7880    1.7040    0.0000 C.ar    1  LIG1        0.0000
     12 C          -4.8000    1.6830    0.0000 C.ar    1  LIG1        0.0015
     13 N          -2.3500    0.6330    0.0000 N.ar    1  LIG1       -0.2183
     14 C          -1.5750    0.0330    0.0000 C.ar    1  LIG1        0.2110
     15 N          -1.7080   -0.9250    0.0000 N.ar    1  LIG1       -0.1218
     16 N          -2.6170   -1.3250    0.0000 N.ar    1  LIG1       -0.1445
     17 S          -0.6540    0.4290    0.0000 S.3     1  LIG1       -0.0642
     18 C           0.2670    0.7960    0.0000 C.3     1  LIG1        0.1520
     19 C           1.1330    0.2960    0.0000 C.2     1  LIG1        0.2570
     20 N           2.0040    0.7670    0.0000 N.am    1  LIG1       -0.1785
     21 C           2.8750    0.2630    0.0000 C.ar    1  LIG1        0.0735
     22 C           3.7580    0.7460    0.0000 C.ar    1  LIG1        0.0186
     23 C           4.6130    0.2130    0.0000 C.ar    1  LIG1        0.0259
     24 C           5.4960    0.7170    0.0000 C.2     1  LIG1        0.0737
     25 O           5.5250    1.7330    0.0000 O.co2   1  LIG1       -0.5446
     26 O           6.3500    0.2130    0.0000 O.co2   1  LIG1       -0.5446
     27 C           4.6040   -0.7710    0.0000 C.ar    1  LIG1        0.0588
     28 C           3.7380   -1.2420    0.0000 C.ar    1  LIG1        0.0128
     29 C           2.8670   -0.7420    0.0000 C.ar    1  LIG1        0.0175
     30 CL          5.4750   -1.3040    0.0000 Cl      1  LIG1       -0.0822
     31 O           1.1290   -0.7080    0.0000 O.2     1  LIG1       -0.2720
@<TRIPOS>BOND
     1     1     2   ar
     2     1     5    1
     3     1    16   ar
     4     2     3    1
     5     2    13   ar
     6     3     4   ar
     7     3    12   ar
     8     4     5   ar
     9     4     9   ar
    10     5     6   ar
    11     6     7   ar
    12     7     8   ar
    13     8     9   ar
    14     9    10   ar
    15    10    11   ar
    16    11    12   ar
    17    13    14   ar
    18    14    15   ar
    19    14    17    1
    20    15    16   ar
    21    17    18    1
    22    18    19    1
    23    19    20   am
    24    19    31    2
    25    20    21    1
    26    21    22   ar
    27    21    29   ar
    28    22    23   ar
    29    23    24    1
    30    23    27   ar
    31    24    25   ar
    32    24    26   ar
    33    27    28   ar
    34    27    30    1
    35    28    29   ar
