@<TRIPOS>MOLECULE
30526_ChemDiv_3959-0700
 30 34 0 0 0
SMALL
GASTEIGER
Energy = 0

@<TRIPOS>ATOM
      1 C           0.7540   -1.0880    0.0000 C.ar    1  LIG1        0.1121
      2 C          -0.2000   -1.3420    0.0000 C.2     1  LIG1        0.3445
      3 O          -0.7630   -0.4960    0.0000 O.3     1  LIG1       -0.4381
      4 C          -0.1380    0.2790    0.0000 C.3     1  LIG1        0.2465
      5 C          -0.1040    1.2210    0.0000 C.3     1  LIG1        0.1580
      6 C          -0.9630    1.7130    0.0000 C.ar    1  LIG1        0.0657
      7 C          -1.8290    1.2210    0.0000 C.ar    1  LIG1        0.1767
      8 C          -2.7130    1.7130    0.0000 C.ar    1  LIG1        0.2099
      9 C          -2.7130    2.7080    0.0000 C.ar    1  LIG1        0.1792
     10 C          -1.8290    3.2040    0.0000 C.ar    1  LIG1        0.0362
     11 C          -0.9630    2.7080    0.0000 C.ar    1  LIG1       -0.0086
     12 C          -0.1040    3.2040    0.0000 C.3     1  LIG1        0.0891
     13 C           0.7670    2.7080    0.0000 C.3     1  LIG1        0.1440
     14 N           0.7670    1.7130    0.0000 N.4     1  LIG1        0.3842
     15 C           1.6380    1.2210    0.0000 C.3     1  LIG1        0.2026
     16 O          -3.6420    3.0130    0.0000 O.3     1  LIG1       -0.4345
     17 C          -4.2380    2.2080    0.0000 C.3     1  LIG1        0.4295
     18 O          -3.6420    1.4000    0.0000 O.3     1  LIG1       -0.4315
     19 O          -1.8290    0.2080    0.0000 O.3     1  LIG1       -0.4684
     20 C          -2.7130   -0.2960    0.0000 C.3     1  LIG1        0.2526
     21 C           0.8130   -0.0880    0.0000 C.ar    1  LIG1        0.0328
     22 C           1.7040    0.3750    0.0000 C.ar    1  LIG1        0.0029
     23 C           2.5580   -0.1830    0.0000 C.ar    1  LIG1        0.0398
     24 C           2.4960   -1.1830    0.0000 C.ar    1  LIG1        0.1726
     25 C           1.6040   -1.6420    0.0000 C.ar    1  LIG1        0.1783
     26 O           1.5420   -2.6630    0.0000 O.3     1  LIG1       -0.4682
     27 C           2.3880   -3.2000    0.0000 C.3     1  LIG1        0.2526
     28 O           3.3210   -1.7500    0.0000 O.3     1  LIG1       -0.4684
     29 C           4.2330   -1.3880    0.0000 C.3     1  LIG1        0.2526
     30 O          -0.5420   -2.2960    0.0000 O.2     1  LIG1       -0.2448
@<TRIPOS>BOND
     1     1     2    1
     2     1    21   ar
     3     1    25   ar
     4     2     3    1
     5     2    30    2
     6     3     4    1
     7     4     5    1
     8     4    21    1
     9     5     6    1
    10     5    14    1
    11     6     7   ar
    12     6    11   ar
    13     7     8   ar
    14     7    19    1
    15     8     9   ar
    16     8    18    1
    17     9    10   ar
    18     9    16    1
    19    10    11   ar
    20    11    12    1
    21    12    13    1
    22    13    14    1
    23    14    15    1
    24    16    17    1
    25    17    18    1
    26    19    20    1
    27    21    22   ar
    28    22    23   ar
    29    23    24   ar
    30    24    25   ar
    31    24    28    1
    32    25    26    1
    33    26    27    1
    34    28    29    1
