@<TRIPOS>MOLECULE
30520_ChemDiv_3933-0049
 33 36 0 0 0
SMALL
GASTEIGER
Energy = 0

@<TRIPOS>ATOM
      1 N           0.1080   -0.1080    0.0000 N.pl3   1  LIG1       -0.1089
      2 S           0.5130   -1.0080    0.0000 S.O2    1  LIG1        0.0910
      3 C           1.0170   -1.8750    0.0000 C.ar    1  LIG1        0.1268
      4 C           0.5130   -2.7460    0.0000 C.ar    1  LIG1        0.0199
      5 C           1.0170   -3.6170    0.0000 C.ar    1  LIG1       -0.0029
      6 C           1.9880   -3.6170    0.0000 C.ar    1  LIG1       -0.0218
      7 C           2.4920   -2.7460    0.0000 C.ar    1  LIG1       -0.0029
      8 C           1.9880   -1.8750    0.0000 C.ar    1  LIG1        0.0199
      9 C           2.4920   -4.4880    0.0000 C.3     1  LIG1        0.0310
     10 O          -0.0880   -1.7750    0.0000 O.2     1  LIG1       -0.1485
     11 O           1.5210   -1.1040    0.0000 O.2     1  LIG1       -0.1485
     12 N          -0.9000    0.1000    0.0000 N.2     1  LIG1       -0.1659
     13 C          -0.9960    1.1080    0.0000 C.2     1  LIG1        0.0800
     14 C          -0.0880    1.5080    0.0000 C.3     1  LIG1        0.0753
     15 C           0.6130    0.7750    0.0000 C.3     1  LIG1        0.1439
     16 C           1.5830    0.8710    0.0000 C.ar    1  LIG1       -0.0003
     17 C           2.0580    1.7790    0.0000 C.ar    1  LIG1        0.0006
     18 C           3.0670    1.8790    0.0000 C.ar    1  LIG1        0.0366
     19 C           3.6330    1.0420    0.0000 C.ar    1  LIG1        0.1387
     20 C           3.2000    0.1380    0.0000 C.ar    1  LIG1        0.0366
     21 C           2.1920    0.0710    0.0000 C.ar    1  LIG1        0.0006
     22 O           4.6420    1.1080    0.0000 O.3     1  LIG1       -0.4714
     23 C           5.2130    0.2710    0.0000 C.3     1  LIG1        0.2525
     24 C          -1.8710    1.6080    0.0000 C.ar    1  LIG1        0.0184
     25 C          -1.8330    2.5880    0.0000 C.ar    1  LIG1        0.0413
     26 C          -2.7080    3.0920    0.0000 C.ar    1  LIG1        0.1724
     27 C          -3.6130    2.5880    0.0000 C.ar    1  LIG1        0.1724
     28 C          -3.6130    1.6080    0.0000 C.ar    1  LIG1        0.0401
     29 C          -2.7330    1.1080    0.0000 C.ar    1  LIG1        0.0045
     30 O          -4.4830    3.1210    0.0000 O.3     1  LIG1       -0.4684
     31 C          -5.2170    2.6170    0.0000 C.3     1  LIG1        0.2526
     32 O          -2.7330    4.1250    0.0000 O.3     1  LIG1       -0.4684
     33 C          -3.6130    4.4880    0.0000 C.3     1  LIG1        0.2526
@<TRIPOS>BOND
     1     1     2    1
     2     1    12    1
     3     1    15    1
     4     2     3    1
     5     2    10    2
     6     2    11    2
     7     3     4   ar
     8     3     8   ar
     9     4     5   ar
    10     5     6   ar
    11     6     7   ar
    12     6     9    1
    13     7     8   ar
    14    12    13    2
    15    13    14    1
    16    13    24    1
    17    14    15    1
    18    15    16    1
    19    16    17   ar
    20    16    21   ar
    21    17    18   ar
    22    18    19   ar
    23    19    20   ar
    24    19    22    1
    25    20    21   ar
    26    22    23    1
    27    24    25   ar
    28    24    29   ar
    29    25    26   ar
    30    26    27   ar
    31    26    32    1
    32    27    28   ar
    33    27    30    1
    34    28    29   ar
    35    30    31    1
    36    32    33    1
