@<TRIPOS>MOLECULE
30533_ChemDiv_5518-1827
 27 31 0 0 0
SMALL
GASTEIGER
Energy = 0

@<TRIPOS>ATOM
      1 C          -2.4250   -0.9040    0.0000 C.ar    1  LIG1        0.1205
      2 C          -2.6250    0.0500    0.0000 C.ar    1  LIG1        0.1028
      3 C          -3.7920    0.2540    0.0000 C.ar    1  LIG1        0.0193
      4 C          -4.0210   -0.7210    0.0000 C.ar    1  LIG1        0.0031
      5 C          -3.3040   -1.3830    0.0000 C.ar    1  LIG1        0.0209
      6 C          -3.5250   -2.3670    0.0000 C.ar    1  LIG1        0.0016
      7 C          -4.4670   -2.6630    0.0000 C.ar    1  LIG1        0.0000
      8 C          -5.2000   -1.9670    0.0000 C.ar    1  LIG1        0.0000
      9 C          -4.9710   -1.0290    0.0000 C.ar    1  LIG1        0.0001
     10 C          -5.7040   -0.3210    0.0000 C.ar    1  LIG1        0.0000
     11 C          -5.4630    0.6250    0.0000 C.ar    1  LIG1        0.0000
     12 C          -4.5250    0.9130    0.0000 C.ar    1  LIG1        0.0015
     13 N          -1.8670    0.6960    0.0000 N.ar    1  LIG1       -0.2183
     14 C          -0.9170    0.3670    0.0000 C.ar    1  LIG1        0.2110
     15 N          -0.7460   -0.5880    0.0000 N.ar    1  LIG1       -0.1218
     16 N          -1.4960   -1.2500    0.0000 N.ar    1  LIG1       -0.1445
     17 S          -0.1830    1.0290    0.0000 S.3     1  LIG1       -0.0642
     18 C           0.5830    1.6880    0.0000 C.3     1  LIG1        0.1520
     19 C           1.5630    1.4880    0.0000 C.2     1  LIG1        0.2584
     20 N           2.2080    2.2210    0.0000 N.am    1  LIG1       -0.1564
     21 C           3.2080    2.0040    0.0000 C.ar    1  LIG1        0.1958
     22 N           3.6000    1.0920    0.0000 N.ar    1  LIG1       -0.0604
     23 O           4.5960    1.1920    0.0000 O.2     1  LIG1       -0.3565
     24 C           4.7960    2.1580    0.0000 C.ar    1  LIG1        0.1563
     25 C           3.9380    2.6670    0.0000 C.ar    1  LIG1        0.0751
     26 C           5.7000    2.5580    0.0000 C.3     1  LIG1        0.0754
     27 O           1.8710    0.5250    0.0000 O.2     1  LIG1       -0.2720
@<TRIPOS>BOND
     1     1     2   ar
     2     1     5    1
     3     1    16   ar
     4     2     3    1
     5     2    13   ar
     6     3     4   ar
     7     3    12   ar
     8     4     5   ar
     9     4     9   ar
    10     5     6   ar
    11     6     7   ar
    12     7     8   ar
    13     8     9   ar
    14     9    10   ar
    15    10    11   ar
    16    11    12   ar
    17    13    14   ar
    18    14    15   ar
    19    14    17    1
    20    15    16   ar
    21    17    18    1
    22    18    19    1
    23    19    20   am
    24    19    27    2
    25    20    21    1
    26    21    22   ar
    27    21    25   ar
    28    22    23   ar
    29    23    24   ar
    30    24    25   ar
    31    24    26    1
