@<TRIPOS>MOLECULE
30538_ChemDiv_C430-0975
 12 12 0 0 0
SMALL
GASTEIGER
Energy = 0

@<TRIPOS>ATOM
      1 C          -0.4080   -0.2330    0.0000 C.ar    1  LIG1        0.1208
      2 C          -0.7170    0.7210    0.0000 C.ar    1  LIG1        0.0732
      3 N          -1.7170    0.7210    0.0000 N.ar    1  LIG1       -0.2311
      4 C          -2.0290   -0.2330    0.0000 C.ar    1  LIG1        0.1681
      5 S          -1.2170   -0.8210    0.0000 S.2     1  LIG1       -0.0490
      6 CL         -2.9830   -0.5500    0.0000 Cl      1  LIG1       -0.0542
      7 C          -0.1380    1.5290    0.0000 C.3     1  LIG1        0.0529
      8 C           0.5420   -0.5500    0.0000 C.2     1  LIG1        0.3485
      9 O           0.7420   -1.5250    0.0000 O.2     1  LIG1       -0.2443
     10 O           1.2880    0.1170    0.0000 O.3     1  LIG1       -0.4451
     11 C           2.2380   -0.1920    0.0000 C.3     1  LIG1        0.2089
     12 C           2.9790    0.4750    0.0000 C.3     1  LIG1        0.0513
@<TRIPOS>BOND
     1     1     2   ar
     2     1     5   ar
     3     1     8    1
     4     2     3   ar
     5     2     7    1
     6     3     4   ar
     7     4     5   ar
     8     4     6    1
     9     8     9    2
    10     8    10    1
    11    10    11    1
    12    11    12    1
