@<TRIPOS>MOLECULE
30530_ChemDiv_4075-3166
 24 24 0 0 0
SMALL
GASTEIGER
Energy = 0

@<TRIPOS>ATOM
      1 C          -1.0710   -2.0880    0.0000 C.2     1  LIG1        0.3175
      2 O          -2.0080   -1.6000    0.0000 O.3     1  LIG1       -0.4496
      3 C          -1.9290   -0.6790    0.0000 C.3     1  LIG1        0.1988
      4 C          -0.9080   -0.4330    0.0000 C.3     1  LIG1        0.0584
      5 C          -0.4330   -1.2960    0.0000 C.3     1  LIG1        0.1156
      6 C           0.5830   -1.2960    0.0000 C.3     1  LIG1        0.0874
      7 C           1.0540   -0.4330    0.0000 C.1     1  LIG1       -0.0849
      8 C           1.6040    0.4250    0.0000 C.1     1  LIG1       -0.0288
      9 C           2.0670    1.3000    0.0000 C.3     1  LIG1        0.2174
     10 N           3.0960    1.3000    0.0000 N.4     1  LIG1        0.3874
     11 C           3.5670    0.4250    0.0000 C.3     1  LIG1        0.1400
     12 C           4.5790    0.4250    0.0000 C.3     1  LIG1        0.0628
     13 C           5.0540   -0.4330    0.0000 C.3     1  LIG1        0.0061
     14 C           6.0790   -0.4330    0.0000 C.3     1  LIG1        0.0002
     15 C           3.5670    2.1580    0.0000 C.3     1  LIG1        0.1400
     16 C           4.5790    2.1580    0.0000 C.3     1  LIG1        0.0628
     17 C           5.0540    3.0170    0.0000 C.3     1  LIG1        0.0061
     18 C           6.0790    3.0170    0.0000 C.3     1  LIG1        0.0002
     19 C          -2.6250    0.0380    0.0000 C.3     1  LIG1        0.1855
     20 O          -3.5710   -0.2830    0.0000 O.3     1  LIG1       -0.3499
     21 C          -4.3540    0.3580    0.0000 C.3     1  LIG1        0.1423
     22 C          -5.3000    0.1210    0.0000 C.3     1  LIG1        0.0321
     23 C          -6.0790    0.7460    0.0000 C.3     1  LIG1        0.0027
     24 O          -0.9080   -3.0130    0.0000 O.2     1  LIG1       -0.2501
@<TRIPOS>BOND
     1     1     2    1
     2     1     5    1
     3     1    24    2
     4     2     3    1
     5     3     4    1
     6     3    19    1
     7     4     5    1
     8     5     6    1
     9     6     7    1
    10     7     8    3
    11     8     9    1
    12     9    10    1
    13    10    11    1
    14    10    15    1
    15    11    12    1
    16    12    13    1
    17    13    14    1
    18    15    16    1
    19    16    17    1
    20    17    18    1
    21    19    20    1
    22    20    21    1
    23    21    22    1
    24    22    23    1
