@<TRIPOS>MOLECULE
30536_ChemDiv_4075-3530
 22 23 0 0 0
SMALL
GASTEIGER
Energy = 0

@<TRIPOS>ATOM
      1 C          -2.6420    0.2040    0.0000 C.ar    1  LIG1        0.1185
      2 S          -2.6420   -0.7580    0.0000 S.2     1  LIG1       -0.0551
      3 C          -3.4630   -1.2330    0.0000 C.ar    1  LIG1        0.1273
      4 N          -4.2920   -0.7580    0.0000 N.ar    1  LIG1       -0.3178
      5 C          -4.2920    0.2040    0.0000 C.ar    1  LIG1        0.0507
      6 C          -4.9710    0.8880    0.0000 C.3     1  LIG1        0.0508
      7 C          -5.1000   -1.2330    0.0000 C.3     1  LIG1        0.1311
      8 S          -3.4630   -2.1920    0.0000 S.2     1  LIG1       -0.0248
      9 C          -1.8880    0.8880    0.0000 C.2     1  LIG1        0.3486
     10 O          -2.1630    1.8540    0.0000 O.2     1  LIG1       -0.2443
     11 O          -1.0040    0.6830    0.0000 O.3     1  LIG1       -0.4410
     12 C          -0.3170    1.3750    0.0000 C.3     1  LIG1        0.2559
     13 C           0.6420    1.0960    0.0000 C.3     1  LIG1        0.2526
     14 O           1.3250    1.7830    0.0000 O.3     1  LIG1       -0.4706
     15 C           2.2920    1.5040    0.0000 C.ar    1  LIG1        0.1492
     16 C           2.4830    0.5460    0.0000 C.ar    1  LIG1        0.0924
     17 C           3.4500    0.3500    0.0000 C.ar    1  LIG1        0.0258
     18 C           4.1380    1.0210    0.0000 C.ar    1  LIG1        0.0587
     19 C           3.8580    1.9920    0.0000 C.ar    1  LIG1        0.0146
     20 C           2.9630    2.1960    0.0000 C.ar    1  LIG1        0.0386
     21 CL          5.0960    0.7500    0.0000 Cl      1  LIG1       -0.0822
     22 CL          1.8000   -0.1420    0.0000 Cl      1  LIG1       -0.0791
@<TRIPOS>BOND
     1     1     2   ar
     2     1     5   ar
     3     1     9    1
     4     2     3   ar
     5     3     4   ar
     6     3     8    2
     7     4     5   ar
     8     4     7    1
     9     5     6    1
    10     9    10    2
    11     9    11    1
    12    11    12    1
    13    12    13    1
    14    13    14    1
    15    14    15    1
    16    15    16   ar
    17    15    20   ar
    18    16    17   ar
    19    16    22    1
    20    17    18   ar
    21    18    19   ar
    22    18    21    1
    23    19    20   ar
