@<TRIPOS>MOLECULE
30534_ChemDiv_4075-3527
 12 12 0 0 0
SMALL
GASTEIGER
Energy = 0

@<TRIPOS>ATOM
      1 C           0.0960    0.3960    0.0000 C.ar    1  LIG1        0.1185
      2 S           0.0960   -0.5290    0.0000 S.2     1  LIG1       -0.0551
      3 C          -0.6920   -0.9920    0.0000 C.ar    1  LIG1        0.1273
      4 N          -1.4880   -0.5290    0.0000 N.ar    1  LIG1       -0.3178
      5 C          -1.4880    0.3960    0.0000 C.ar    1  LIG1        0.0507
      6 C          -2.2170    1.0540    0.0000 C.3     1  LIG1        0.0508
      7 C          -2.3420   -0.9920    0.0000 C.3     1  LIG1        0.1311
      8 S          -0.6920   -1.9750    0.0000 S.2     1  LIG1       -0.0248
      9 C           0.7580    1.0540    0.0000 C.2     1  LIG1        0.3486
     10 O           0.4960    1.9790    0.0000 O.2     1  LIG1       -0.2443
     11 O           1.6830    0.7880    0.0000 O.3     1  LIG1       -0.4410
     12 C           2.3380    1.4540    0.0000 C.3     1  LIG1        0.2560
@<TRIPOS>BOND
     1     1     2   ar
     2     1     5   ar
     3     1     9    1
     4     2     3   ar
     5     3     4   ar
     6     3     8    2
     7     4     5   ar
     8     4     7    1
     9     5     6    1
    10     9    10    2
    11     9    11    1
    12    11    12    1
