@<TRIPOS>MOLECULE
30531_ChemDiv_5518-1824
 32 36 0 0 0
SMALL
GASTEIGER
Energy = 0

@<TRIPOS>ATOM
      1 C          -3.3040   -0.9290    0.0000 C.ar    1  LIG1        0.1205
      2 C          -3.5040    0.0630    0.0000 C.ar    1  LIG1        0.1028
      3 C          -4.6580    0.2460    0.0000 C.ar    1  LIG1        0.0193
      4 C          -4.8880   -0.7290    0.0000 C.ar    1  LIG1        0.0031
      5 C          -4.1710   -1.4000    0.0000 C.ar    1  LIG1        0.0209
      6 C          -4.3880   -2.3670    0.0000 C.ar    1  LIG1        0.0016
      7 C          -5.3250   -2.6630    0.0000 C.ar    1  LIG1        0.0000
      8 C          -6.0670   -1.9960    0.0000 C.ar    1  LIG1        0.0000
      9 C          -5.8380   -1.0210    0.0000 C.ar    1  LIG1        0.0001
     10 C          -6.5630   -0.3380    0.0000 C.ar    1  LIG1        0.0000
     11 C          -6.3380    0.6000    0.0000 C.ar    1  LIG1        0.0000
     12 C          -5.3920    0.8960    0.0000 C.ar    1  LIG1        0.0015
     13 N          -2.7460    0.6960    0.0000 N.ar    1  LIG1       -0.2183
     14 C          -1.7960    0.3960    0.0000 C.ar    1  LIG1        0.2110
     15 N          -1.5960   -0.5960    0.0000 N.ar    1  LIG1       -0.1218
     16 N          -2.3580   -1.2460    0.0000 N.ar    1  LIG1       -0.1445
     17 S          -1.0580    1.0290    0.0000 S.3     1  LIG1       -0.0642
     18 C          -0.3080    1.6960    0.0000 C.3     1  LIG1        0.1521
     19 C           0.6710    1.4830    0.0000 C.2     1  LIG1        0.2587
     20 N           1.3540    2.2250    0.0000 N.am    1  LIG1       -0.1536
     21 C           2.3290    2.0000    0.0000 C.ar    1  LIG1        0.1856
     22 N           2.7210    1.0960    0.0000 N.ar    1  LIG1       -0.2213
     23 C           3.7130    1.1960    0.0000 C.ar    1  LIG1        0.1036
     24 C           3.9290    2.1580    0.0000 C.ar    1  LIG1        0.0402
     25 S           3.0630    2.6670    0.0000 S.2     1  LIG1       -0.0535
     26 C           4.8460    2.5580    0.0000 C.3     1  LIG1        0.1440
     27 C           5.6420    1.9790    0.0000 C.2     1  LIG1        0.3221
     28 O           6.5630    2.3750    0.0000 O.2     1  LIG1       -0.2497
     29 O           5.5330    0.9790    0.0000 O.3     1  LIG1       -0.4482
     30 C           5.4170    0.0040    0.0000 C.3     1  LIG1        0.2086
     31 C           6.2420   -0.5790    0.0000 C.3     1  LIG1        0.0513
     32 O           0.9830    0.5290    0.0000 O.2     1  LIG1       -0.2720
@<TRIPOS>BOND
     1     1     2   ar
     2     1     5    1
     3     1    16   ar
     4     2     3    1
     5     2    13   ar
     6     3     4   ar
     7     3    12   ar
     8     4     5   ar
     9     4     9   ar
    10     5     6   ar
    11     6     7   ar
    12     7     8   ar
    13     8     9   ar
    14     9    10   ar
    15    10    11   ar
    16    11    12   ar
    17    13    14   ar
    18    14    15   ar
    19    14    17    1
    20    15    16   ar
    21    17    18    1
    22    18    19    1
    23    19    20   am
    24    19    32    2
    25    20    21    1
    26    21    22   ar
    27    21    25   ar
    28    22    23   ar
    29    23    24   ar
    30    24    25   ar
    31    24    26    1
    32    26    27    1
    33    27    28    2
    34    27    29    1
    35    29    30    1
    36    30    31    1
