@<TRIPOS>MOLECULE
30535_ChemDiv_5518-1831
 31 36 0 0 0
SMALL
GASTEIGER
Energy = 0

@<TRIPOS>ATOM
      1 C          -2.9380   -0.3040    0.0000 C.ar    1  LIG1        0.1205
      2 C          -2.8540    0.6580    0.0000 C.ar    1  LIG1        0.1028
      3 C          -3.9330    1.1540    0.0000 C.ar    1  LIG1        0.0193
      4 C          -4.4210    0.2750    0.0000 C.ar    1  LIG1        0.0031
      5 C          -3.8880   -0.5500    0.0000 C.ar    1  LIG1        0.0209
      6 C          -4.3710   -1.4290    0.0000 C.ar    1  LIG1        0.0016
      7 C          -5.3500   -1.4330    0.0000 C.ar    1  LIG1        0.0000
      8 C          -5.8920   -0.5880    0.0000 C.ar    1  LIG1        0.0000
      9 C          -5.4130    0.2580    0.0000 C.ar    1  LIG1        0.0001
     10 C          -5.9250    1.1130    0.0000 C.ar    1  LIG1        0.0000
     11 C          -5.4460    1.9750    0.0000 C.ar    1  LIG1        0.0000
     12 C          -4.4500    2.0040    0.0000 C.ar    1  LIG1        0.0015
     13 N          -1.9630    1.0960    0.0000 N.ar    1  LIG1       -0.2183
     14 C          -1.1460    0.5250    0.0000 C.ar    1  LIG1        0.2110
     15 N          -1.2330   -0.4540    0.0000 N.ar    1  LIG1       -0.1218
     16 N          -2.1250   -0.8960    0.0000 N.ar    1  LIG1       -0.1445
     17 S          -0.2670    0.9630    0.0000 S.3     1  LIG1       -0.0642
     18 C           0.6330    1.3880    0.0000 C.3     1  LIG1        0.1520
     19 C           1.5130    0.9130    0.0000 C.2     1  LIG1        0.2570
     20 N           2.3750    1.4210    0.0000 N.am    1  LIG1       -0.1769
     21 C           3.2670    0.9420    0.0000 C.ar    1  LIG1        0.0925
     22 C           3.2880   -0.0330    0.0000 C.ar    1  LIG1        0.0197
     23 C           4.1500   -0.5210    0.0000 C.ar    1  LIG1        0.0190
     24 C           5.0130    0.0080    0.0000 C.ar    1  LIG1        0.0814
     25 N           5.0080    0.9790    0.0000 N.ar    1  LIG1       -0.2425
     26 C           4.1170    1.4710    0.0000 C.ar    1  LIG1        0.1153
     27 C           5.8920   -0.4710    0.0000 C.ar    1  LIG1        0.0191
     28 C           5.9210   -1.4960    0.0000 C.ar    1  LIG1        0.0015
     29 C           5.0580   -2.0000    0.0000 C.ar    1  LIG1        0.0001
     30 C           4.1670   -1.5170    0.0000 C.ar    1  LIG1        0.0015
     31 O           1.5540   -0.0710    0.0000 O.2     1  LIG1       -0.2720
@<TRIPOS>BOND
     1     1     2   ar
     2     1     5    1
     3     1    16   ar
     4     2     3    1
     5     2    13   ar
     6     3     4   ar
     7     3    12   ar
     8     4     5   ar
     9     4     9   ar
    10     5     6   ar
    11     6     7   ar
    12     7     8   ar
    13     8     9   ar
    14     9    10   ar
    15    10    11   ar
    16    11    12   ar
    17    13    14   ar
    18    14    15   ar
    19    14    17    1
    20    15    16   ar
    21    17    18    1
    22    18    19    1
    23    19    20   am
    24    19    31    2
    25    20    21    1
    26    21    22   ar
    27    21    26   ar
    28    22    23   ar
    29    23    24   ar
    30    23    30   ar
    31    24    25   ar
    32    24    27   ar
    33    25    26   ar
    34    27    28   ar
    35    28    29   ar
    36    29    30   ar
