@<TRIPOS>MOLECULE
30542_ChemDiv_4092-0044
 26 28 0 0 0
SMALL
GASTEIGER
Energy = 0

@<TRIPOS>ATOM
      1 S          -2.1630    0.2330    0.0000 S.O2    1  LIG1        0.0634
      2 N          -1.3000    0.7330    0.0000 N.3     1  LIG1       -0.1520
      3 C          -1.3000    1.7460    0.0000 C.3     1  LIG1        0.1173
      4 C          -0.4330    2.2210    0.0000 C.3     1  LIG1        0.1126
      5 N           0.4420    1.7250    0.0000 N.am    1  LIG1       -0.2763
      6 C           1.3250    2.2000    0.0000 C.2     1  LIG1        0.2301
      7 C           2.1670    1.6960    0.0000 C.3     1  LIG1        0.1116
      8 C           2.1670    0.7080    0.0000 C.ar    1  LIG1       -0.0131
      9 C           3.0290    0.2000    0.0000 C.ar    1  LIG1       -0.0038
     10 C           3.0290   -0.7790    0.0000 C.ar    1  LIG1       -0.0003
     11 C           2.1670   -1.2920    0.0000 C.ar    1  LIG1       -0.0000
     12 C           1.3000   -0.7790    0.0000 C.ar    1  LIG1       -0.0003
     13 C           1.3000    0.2000    0.0000 C.ar    1  LIG1       -0.0038
     14 O           1.3710    3.2210    0.0000 O.2     1  LIG1       -0.2745
     15 C           0.4420    0.7330    0.0000 C.3     1  LIG1        0.1126
     16 C          -0.4330    0.2500    0.0000 C.3     1  LIG1        0.1173
     17 C          -1.6580   -0.6330    0.0000 C.ar    1  LIG1        0.1224
     18 C          -0.6460   -0.6330    0.0000 C.ar    1  LIG1        0.0230
     19 C          -0.1460   -1.4750    0.0000 C.ar    1  LIG1        0.0383
     20 C          -0.6290   -2.3420    0.0000 C.ar    1  LIG1        0.1388
     21 C          -1.6420   -2.3750    0.0000 C.ar    1  LIG1        0.0383
     22 C          -2.1420   -1.5250    0.0000 C.ar    1  LIG1        0.0230
     23 O          -0.1170   -3.2170    0.0000 O.3     1  LIG1       -0.4714
     24 C           0.8830   -3.2170    0.0000 C.3     1  LIG1        0.2525
     25 O          -3.0330   -0.3040    0.0000 O.2     1  LIG1       -0.1528
     26 O          -2.6920    1.0880    0.0000 O.2     1  LIG1       -0.1528
@<TRIPOS>BOND
     1     1     2    1
     2     1    17    1
     3     1    25    2
     4     1    26    2
     5     2     3    1
     6     2    16    1
     7     3     4    1
     8     4     5    1
     9     5     6   am
    10     5    15    1
    11     6     7    1
    12     6    14    2
    13     7     8    1
    14     8     9   ar
    15     8    13   ar
    16     9    10   ar
    17    10    11   ar
    18    11    12   ar
    19    12    13   ar
    20    15    16    1
    21    17    18   ar
    22    17    22   ar
    23    18    19   ar
    24    19    20   ar
    25    20    21   ar
    26    20    23    1
    27    21    22   ar
    28    23    24    1
