@<TRIPOS>MOLECULE
30547_ChemDiv_3909-8608
 28 29 0 0 0
SMALL
GASTEIGER
Energy = 0

@<TRIPOS>ATOM
      1 C          -0.0460   -0.2790    0.0000 C.ar    1  LIG1        0.0767
      2 C          -0.0460   -1.2710    0.0000 C.ar    1  LIG1        0.1168
      3 S          -0.9960   -1.5830    0.0000 S.2     1  LIG1       -0.0636
      4 C          -1.5670   -0.7880    0.0000 C.ar    1  LIG1        0.0806
      5 C          -0.9960    0.0460    0.0000 C.ar    1  LIG1       -0.0048
      6 C          -1.2960    1.0080    0.0000 C.3     1  LIG1        0.0319
      7 C          -2.5540   -0.7960    0.0000 C.2     1  LIG1        0.2548
      8 N          -3.0580    0.0630    0.0000 N.am    1  LIG1       -0.2757
      9 C          -2.5830    0.9420    0.0000 C.3     1  LIG1        0.0938
     10 C          -3.0750    1.7920    0.0000 C.3     1  LIG1        0.0233
     11 C          -4.0460    0.0630    0.0000 C.3     1  LIG1        0.0937
     12 C          -4.5670    0.9250    0.0000 C.3     1  LIG1        0.0215
     13 C          -5.5500    0.9250    0.0000 C.3     1  LIG1        0.0018
     14 C          -6.0540    1.7630    0.0000 C.3     1  LIG1        0.0001
     15 O          -3.0580   -1.6500    0.0000 O.2     1  LIG1       -0.2694
     16 N           0.8210   -1.7880    0.0000 N.ar    1  LIG1       -0.2186
     17 C           1.7040   -1.2710    0.0000 C.ar    1  LIG1        0.1817
     18 N           1.7040   -0.2790    0.0000 N.ar    1  LIG1       -0.2690
     19 C           0.8210    0.2460    0.0000 C.ar    1  LIG1        0.2640
     20 O           0.8210    1.2380    0.0000 O.2     1  LIG1       -0.2669
     21 C           2.5500    0.2460    0.0000 C.3     1  LIG1        0.1956
     22 C           3.4250   -0.2790    0.0000 C.2     1  LIG1        0.2489
     23 N           4.3080    0.2460    0.0000 N.am    1  LIG1       -0.2780
     24 C           5.1710   -0.2790    0.0000 C.3     1  LIG1        0.0935
     25 C           6.0540    0.2460    0.0000 C.3     1  LIG1        0.0233
     26 C           4.3130    1.2380    0.0000 C.3     1  LIG1        0.0935
     27 C           3.4670    1.7210    0.0000 C.3     1  LIG1        0.0233
     28 O           3.4250   -1.2710    0.0000 O.2     1  LIG1       -0.2728
@<TRIPOS>BOND
     1     1     2   ar
     2     1     5   ar
     3     1    19   ar
     4     2     3   ar
     5     2    16   ar
     6     3     4   ar
     7     4     5   ar
     8     4     7    1
     9     5     6    1
    10     7     8   am
    11     7    15    2
    12     8     9    1
    13     8    11    1
    14     9    10    1
    15    11    12    1
    16    12    13    1
    17    13    14    1
    18    16    17   ar
    19    17    18   ar
    20    18    19   ar
    21    18    21    1
    22    19    20    2
    23    21    22    1
    24    22    23   am
    25    22    28    2
    26    23    24    1
    27    23    26    1
    28    24    25    1
    29    26    27    1
