@<TRIPOS>MOLECULE
30548_ChemDiv_3966-1280
 26 28 0 0 0
SMALL
GASTEIGER
Energy = 0

@<TRIPOS>ATOM
      1 C          -1.1880    0.0290    0.0000 C.3     1  LIG1        0.0323
      2 C          -0.7460   -0.8540    0.0000 C.3     1  LIG1        0.0914
      3 C           0.2330   -0.8540    0.0000 C.2     1  LIG1        0.2459
      4 N           0.6290   -1.7670    0.0000 N.am    1  LIG1       -0.1795
      5 C           1.6130   -1.7790    0.0000 C.ar    1  LIG1        0.0694
      6 C           2.1290   -2.6380    0.0000 C.ar    1  LIG1       -0.0065
      7 C           1.6250   -3.5040    0.0000 C.3     1  LIG1        0.0324
      8 C           3.1420   -2.6380    0.0000 C.ar    1  LIG1       -0.0030
      9 C           3.6500   -1.7670    0.0000 C.ar    1  LIG1       -0.0002
     10 C           3.1420   -0.9210    0.0000 C.ar    1  LIG1        0.0013
     11 C           2.1290   -0.9210    0.0000 C.ar    1  LIG1        0.0163
     12 O           0.8500    0.0710    0.0000 O.2     1  LIG1       -0.2730
     13 C          -0.7130    0.8580    0.0000 C.ar    1  LIG1       -0.0222
     14 C           0.2790    0.8670    0.0000 C.ar    1  LIG1       -0.0046
     15 C           0.7420    1.7830    0.0000 C.ar    1  LIG1       -0.0046
     16 C           0.2130    2.6500    0.0000 C.ar    1  LIG1       -0.0219
     17 C          -0.7460    2.6500    0.0000 C.ar    1  LIG1       -0.0046
     18 C          -1.2170    1.7000    0.0000 C.ar    1  LIG1       -0.0046
     19 C           0.6540    3.5080    0.0000 C.3     1  LIG1        0.0310
     20 C          -1.6460   -0.8330    0.0000 C.3     1  LIG1        0.0318
     21 C          -2.6580   -0.8330    0.0000 C.3     1  LIG1        0.0932
     22 O          -3.1790    0.0290    0.0000 O.3     1  LIG1       -0.3585
     23 C          -2.6750    0.8670    0.0000 C.3     1  LIG1        0.1423
     24 C          -1.6790    0.8670    0.0000 C.3     1  LIG1        0.0367
     25 C          -3.6540   -1.2290    0.0000 C.3     1  LIG1        0.0296
     26 C          -2.6580   -1.7790    0.0000 C.3     1  LIG1        0.0296
@<TRIPOS>BOND
     1     1     2    1
     2     1    13    1
     3     1    20    1
     4     1    24    1
     5     2     3    1
     6     3     4   am
     7     3    12    2
     8     4     5    1
     9     5     6   ar
    10     5    11   ar
    11     6     7    1
    12     6     8   ar
    13     8     9   ar
    14     9    10   ar
    15    10    11   ar
    16    13    14   ar
    17    13    18   ar
    18    14    15   ar
    19    15    16   ar
    20    16    17   ar
    21    16    19    1
    22    17    18   ar
    23    20    21    1
    24    21    22    1
    25    21    25    1
    26    21    26    1
    27    22    23    1
    28    23    24    1
