@<TRIPOS>MOLECULE
30546_ChemDiv_3966-1187
 23 25 0 0 0
SMALL
GASTEIGER
Energy = 0

@<TRIPOS>ATOM
      1 C           1.1830    0.2580    0.0000 C.ar    1  LIG1        0.1648
      2 C           0.3170    0.7460    0.0000 C.ar    1  LIG1        0.0978
      3 C          -0.5500    0.2580    0.0000 C.ar    1  LIG1       -0.0071
      4 C          -0.5500   -0.7580    0.0000 C.ar    1  LIG1        0.0270
      5 C           0.3210   -1.2500    0.0000 C.ar    1  LIG1        0.0993
      6 N           1.1880   -0.7420    0.0000 N.ar    1  LIG1       -0.2864
      7 C           2.0540   -1.2500    0.0000 C.ar    1  LIG1        0.0657
      8 C           2.0540   -2.2500    0.0000 C.ar    1  LIG1        0.0176
      9 C           2.9170   -2.7380    0.0000 C.ar    1  LIG1        0.0015
     10 C           3.7830   -2.2330    0.0000 C.ar    1  LIG1        0.0001
     11 C           3.7830   -1.2330    0.0000 C.ar    1  LIG1        0.0015
     12 C           2.9170   -0.7250    0.0000 C.ar    1  LIG1        0.0176
     13 S           0.3210   -2.2500    0.0000 S.2     1  LIG1       -0.0318
     14 C          -1.4080   -1.2580    0.0000 C.3     1  LIG1        0.1701
     15 O          -2.2790   -0.7710    0.0000 O.3     1  LIG1       -0.3534
     16 C          -2.2790    0.2290    0.0000 C.3     1  LIG1        0.0973
     17 C          -1.4130    0.7380    0.0000 C.3     1  LIG1        0.0541
     18 C          -2.7880   -0.6380    0.0000 C.3     1  LIG1        0.0276
     19 C          -3.7880   -0.6380    0.0000 C.3     1  LIG1        0.0025
     20 C          -3.1460    0.7380    0.0000 C.3     1  LIG1        0.0300
     21 C           0.3170    1.7420    0.0000 C.1     1  LIG1        0.1030
     22 N           0.3170    2.7420    0.0000 N.1     1  LIG1       -0.1907
     23 N           2.0460    0.7460    0.0000 N.pl3   1  LIG1       -0.1079
@<TRIPOS>BOND
     1     1     2   ar
     2     1     6   ar
     3     1    23    1
     4     2     3   ar
     5     2    21    1
     6     3     4   ar
     7     3    17    1
     8     4     5   ar
     9     4    14    1
    10     5     6   ar
    11     5    13    2
    12     6     7    1
    13     7     8   ar
    14     7    12   ar
    15     8     9   ar
    16     9    10   ar
    17    10    11   ar
    18    11    12   ar
    19    14    15    1
    20    15    16    1
    21    16    17    1
    22    16    18    1
    23    16    20    1
    24    18    19    1
    25    21    22    3
