@<TRIPOS>MOLECULE
30558_ChemDiv_8016-0043
 24 26 0 0 0
SMALL
GASTEIGER
Energy = 0

@<TRIPOS>ATOM
      1 S           0.5960   -0.9080    0.0000 S.O2    1  LIG1        0.1361
      2 N           1.4580   -1.4040    0.0000 N.pl3   1  LIG1       -0.0550
      3 C           2.3790   -0.9960    0.0000 C.2     1  LIG1        0.3416
      4 N           3.0460   -1.7290    0.0000 N.2     1  LIG1       -0.0588
      5 C           2.5420   -2.5960    0.0000 C.3     1  LIG1        0.3158
      6 C           1.5670   -2.4040    0.0000 C.3     1  LIG1        0.2883
      7 C           2.5710   -0.0080    0.0000 C.ar    1  LIG1        0.0838
      8 C           3.5210    0.2960    0.0000 C.ar    1  LIG1        0.0074
      9 C           3.7330    1.2750    0.0000 C.ar    1  LIG1        0.0002
     10 C           2.9920    1.9380    0.0000 C.ar    1  LIG1        0.0000
     11 C           2.0420    1.6250    0.0000 C.ar    1  LIG1        0.0002
     12 C           1.8330    0.6460    0.0000 C.ar    1  LIG1        0.0074
     13 C          -0.2830   -0.4080    0.0000 C.ar    1  LIG1        0.1457
     14 C          -1.1460   -0.9080    0.0000 C.ar    1  LIG1        0.0235
     15 C          -2.0210   -0.4080    0.0000 C.ar    1  LIG1        0.0180
     16 C          -2.0210    0.6080    0.0000 C.ar    1  LIG1        0.0734
     17 N          -2.8750    1.1080    0.0000 N.am    1  LIG1       -0.1792
     18 C          -2.8750    2.1080    0.0000 C.2     1  LIG1        0.2461
     19 O          -3.7380    2.6000    0.0000 O.2     1  LIG1       -0.2730
     20 C          -2.0080    2.6000    0.0000 C.3     1  LIG1        0.0968
     21 C          -1.1460    1.1080    0.0000 C.ar    1  LIG1        0.0180
     22 C          -0.2960    0.6080    0.0000 C.ar    1  LIG1        0.0235
     23 O           1.0960   -0.0330    0.0000 O.2     1  LIG1       -0.1302
     24 O           0.0960   -1.7670    0.0000 O.2     1  LIG1       -0.1302
@<TRIPOS>BOND
     1     1     2    1
     2     1    13    1
     3     1    23    2
     4     1    24    2
     5     2     3    1
     6     2     6    1
     7     3     4    2
     8     3     7    1
     9     4     5    1
    10     5     6    1
    11     7     8   ar
    12     7    12   ar
    13     8     9   ar
    14     9    10   ar
    15    10    11   ar
    16    11    12   ar
    17    13    14   ar
    18    13    22   ar
    19    14    15   ar
    20    15    16   ar
    21    16    17    1
    22    16    21   ar
    23    17    18   am
    24    18    19    2
    25    18    20    1
    26    21    22   ar
