@<TRIPOS>MOLECULE
30556_ChemDiv_7065-0085
 24 26 0 0 0
SMALL
GASTEIGER
Energy = 0

@<TRIPOS>ATOM
      1 S          -0.9790   -0.9670    0.0000 S.O2    1  LIG1        0.1358
      2 N          -1.9830   -0.9670    0.0000 N.pl3   1  LIG1       -0.0550
      3 C          -2.5710   -0.1580    0.0000 C.2     1  LIG1        0.3416
      4 N          -3.5210   -0.4710    0.0000 N.2     1  LIG1       -0.0588
      5 C          -3.5210   -1.4710    0.0000 C.3     1  LIG1        0.3158
      6 C          -2.5710   -1.7790    0.0000 C.3     1  LIG1        0.2883
      7 C          -2.2580    0.7960    0.0000 C.ar    1  LIG1        0.0838
      8 C          -2.9330    1.5380    0.0000 C.ar    1  LIG1        0.0074
      9 C          -2.6210    2.4880    0.0000 C.ar    1  LIG1        0.0002
     10 C          -1.6460    2.7000    0.0000 C.ar    1  LIG1        0.0000
     11 C          -0.9710    1.9540    0.0000 C.ar    1  LIG1        0.0002
     12 C          -1.2830    1.0040    0.0000 C.ar    1  LIG1        0.0074
     13 C           0.0210   -0.9670    0.0000 C.ar    1  LIG1        0.1416
     14 C           0.5250   -1.8290    0.0000 C.ar    1  LIG1        0.0206
     15 C           1.5250   -1.8290    0.0000 C.ar    1  LIG1        0.0135
     16 C           2.0210   -0.9670    0.0000 C.ar    1  LIG1        0.1345
     17 C           1.5250   -0.0960    0.0000 C.ar    1  LIG1        0.0337
     18 C           0.5250   -0.1000    0.0000 C.ar    1  LIG1        0.0020
     19 C           0.0250    0.7670    0.0000 C.3     1  LIG1        0.0326
     20 O           3.0170   -0.9670    0.0000 O.3     1  LIG1       -0.4718
     21 C           3.5170   -1.8290    0.0000 C.3     1  LIG1        0.2525
     22 C           2.0210   -2.6960    0.0000 C.3     1  LIG1        0.0342
     23 O          -0.9790    0.0330    0.0000 O.2     1  LIG1       -0.1302
     24 O          -0.9790   -1.9670    0.0000 O.2     1  LIG1       -0.1302
@<TRIPOS>BOND
     1     1     2    1
     2     1    13    1
     3     1    23    2
     4     1    24    2
     5     2     3    1
     6     2     6    1
     7     3     4    2
     8     3     7    1
     9     4     5    1
    10     5     6    1
    11     7     8   ar
    12     7    12   ar
    13     8     9   ar
    14     9    10   ar
    15    10    11   ar
    16    11    12   ar
    17    13    14   ar
    18    13    18   ar
    19    14    15   ar
    20    15    16   ar
    21    15    22    1
    22    16    17   ar
    23    16    20    1
    24    17    18   ar
    25    18    19    1
    26    20    21    1
