@<TRIPOS>MOLECULE
30560_ChemDiv_8016-6275
 23 25 0 0 0
SMALL
GASTEIGER
Energy = 0

@<TRIPOS>ATOM
      1 S          -2.0920    1.0500    0.0000 S.O2    1  LIG1        0.0781
      2 N          -1.1170    1.2580    0.0000 N.pl3   1  LIG1       -0.1671
      3 C          -0.3710    0.5880    0.0000 C.2     1  LIG1        0.1737
      4 N           0.4920    1.0880    0.0000 N.2     1  LIG1       -0.2478
      5 C           0.2790    2.0710    0.0000 C.3     1  LIG1        0.1508
      6 C          -0.7080    2.1710    0.0000 C.3     1  LIG1        0.1442
      7 S          -0.4790   -0.4040    0.0000 S.3     1  LIG1       -0.0740
      8 C           0.3290   -0.9920    0.0000 C.3     1  LIG1        0.0934
      9 C           1.2420   -0.5880    0.0000 C.ar    1  LIG1        0.0166
     10 C           2.0500   -1.1750    0.0000 C.ar    1  LIG1        0.1370
     11 F           1.9420   -2.1670    0.0000 F       1  LIG1       -0.2045
     12 C           2.9670   -0.7670    0.0000 C.ar    1  LIG1        0.0293
     13 C           3.0670    0.2330    0.0000 C.ar    1  LIG1        0.0023
     14 C           2.2580    0.8210    0.0000 C.ar    1  LIG1       -0.0002
     15 C           1.3420    0.4080    0.0000 C.ar    1  LIG1       -0.0012
     16 O          -3.0710    0.8460    0.0000 O.2     1  LIG1       -0.1497
     17 O          -2.3040    2.0330    0.0000 O.2     1  LIG1       -0.1497
     18 C          -1.8830    0.0710    0.0000 C.ar    1  LIG1        0.1255
     19 C          -2.6290   -0.5920    0.0000 C.ar    1  LIG1        0.0202
     20 C          -2.4210   -1.5750    0.0000 C.ar    1  LIG1        0.0014
     21 C          -1.4670   -1.8790    0.0000 C.ar    1  LIG1        0.0001
     22 C          -0.7290   -1.2130    0.0000 C.ar    1  LIG1        0.0014
     23 C          -0.9330   -0.2380    0.0000 C.ar    1  LIG1        0.0202
@<TRIPOS>BOND
     1     1     2    1
     2     1    16    2
     3     1    17    2
     4     1    18    1
     5     2     3    1
     6     2     6    1
     7     3     4    2
     8     3     7    1
     9     4     5    1
    10     5     6    1
    11     7     8    1
    12     8     9    1
    13     9    10   ar
    14     9    15   ar
    15    10    11    1
    16    10    12   ar
    17    12    13   ar
    18    13    14   ar
    19    14    15   ar
    20    18    19   ar
    21    18    23   ar
    22    19    20   ar
    23    20    21   ar
    24    21    22   ar
    25    22    23   ar
