@<TRIPOS>MOLECULE
30565_ChemDiv_8017-4400
 22 25 0 0 0
SMALL
GASTEIGER
Energy = 0

@<TRIPOS>ATOM
      1 C          -2.3920   -0.8130    0.0000 C.3     1  LIG1        0.0457
      2 N          -1.3540   -0.8130    0.0000 N.3     1  LIG1       -0.2652
      3 C          -0.8290    0.0460    0.0000 C.3     1  LIG1        0.1358
      4 C           0.1420    0.0460    0.0000 C.3     1  LIG1        0.1577
      5 N           0.6420   -0.8290    0.0000 N.4     1  LIG1        0.3896
      6 C           0.1420   -1.6920    0.0000 C.3     1  LIG1        0.1577
      7 C          -0.8540   -1.6920    0.0000 C.3     1  LIG1        0.1358
      8 C           1.6420   -0.8290    0.0000 C.3     1  LIG1        0.2175
      9 C           2.1330    0.0250    0.0000 C.1     1  LIG1       -0.0288
     10 C           2.6290    0.8830    0.0000 C.1     1  LIG1       -0.0854
     11 C           3.1290    1.7330    0.0000 C.3     1  LIG1        0.0762
     12 C           4.1420    1.7330    0.0000 C.3     1  LIG1        0.0140
     13 C           4.6500    0.8830    0.0000 C.3     1  LIG1        0.0011
     14 C          -2.3920    0.1460    0.0000 C.3     1  LIG1        0.0147
     15 C          -3.3420    0.6710    0.0000 C.3     1  LIG1        0.0013
     16 C          -3.8540   -0.2630    0.0000 C.3     1  LIG1        0.0001
     17 C          -3.8540   -1.3000    0.0000 C.3     1  LIG1        0.0013
     18 C          -2.9790   -1.7290    0.0000 C.3     1  LIG1        0.0147
     19 C          -4.6540   -1.6540    0.0000 C.3     1  LIG1        0.0001
     20 C          -4.1920   -0.7420    0.0000 C.3     1  LIG1        0.0013
     21 C          -3.2710   -1.1380    0.0000 C.3     1  LIG1        0.0147
     22 C          -4.1920    0.2960    0.0000 C.3     1  LIG1        0.0001
@<TRIPOS>BOND
     1     1     2    1
     2     1    14    1
     3     1    18    1
     4     1    21    1
     5     2     3    1
     6     2     7    1
     7     3     4    1
     8     4     5    1
     9     5     6    1
    10     5     8    1
    11     6     7    1
    12     8     9    1
    13     9    10    3
    14    10    11    1
    15    11    12    1
    16    12    13    1
    17    14    15    1
    18    15    16    1
    19    15    22    1
    20    16    17    1
    21    17    18    1
    22    17    19    1
    23    19    20    1
    24    20    21    1
    25    20    22    1
