@<TRIPOS>MOLECULE
30569_ChemDiv_4100-3890
 29 32 0 0 0
SMALL
GASTEIGER
Energy = 0

@<TRIPOS>ATOM
      1 S           4.3000   -0.3210    0.0000 S.O2    1  LIG1        0.0935
      2 C           3.3130   -0.0710    0.0000 C.ar    1  LIG1        0.1250
      3 C           3.0290    0.8790    0.0000 C.ar    1  LIG1        0.0197
      4 C           2.0880    1.1290    0.0000 C.ar    1  LIG1       -0.0028
      5 C           1.3920    0.4040    0.0000 C.ar    1  LIG1       -0.0203
      6 C           1.6540   -0.5380    0.0000 C.ar    1  LIG1       -0.0028
      7 C           2.6250   -0.8000    0.0000 C.ar    1  LIG1        0.0197
      8 C           0.4330    0.6540    0.0000 C.3     1  LIG1        0.0498
      9 C          -0.2540   -0.0580    0.0000 C.3     1  LIG1        0.1198
     10 N          -1.2170    0.2000    0.0000 N.am    1  LIG1       -0.2045
     11 C          -1.9250   -0.5080    0.0000 C.2     1  LIG1        0.2493
     12 C          -2.8960   -0.2420    0.0000 C.3     1  LIG1        0.1284
     13 C          -3.1710    0.7040    0.0000 C.ar    1  LIG1        0.0250
     14 C          -4.1290    0.9710    0.0000 C.ar    1  LIG1        0.1420
     15 O          -4.8380    0.2460    0.0000 O.3     1  LIG1       -0.4541
     16 C          -4.5710   -0.7080    0.0000 C.ar    1  LIG1        0.1420
     17 C          -3.6040   -0.9670    0.0000 C.ar    1  LIG1        0.0250
     18 C          -3.3330   -1.9290    0.0000 C.ar    1  LIG1       -0.0005
     19 C          -4.0420   -2.6330    0.0000 C.ar    1  LIG1       -0.0001
     20 C          -5.0080   -2.3960    0.0000 C.ar    1  LIG1        0.0031
     21 C          -5.2750   -1.4330    0.0000 C.ar    1  LIG1        0.0372
     22 C          -4.4080    1.9330    0.0000 C.ar    1  LIG1        0.0372
     23 C          -3.6920    2.6380    0.0000 C.ar    1  LIG1        0.0031
     24 C          -2.7290    2.3960    0.0000 C.ar    1  LIG1       -0.0001
     25 C          -2.4630    1.4330    0.0000 C.ar    1  LIG1       -0.0005
     26 O          -1.6670   -1.4670    0.0000 O.2     1  LIG1       -0.2726
     27 O           4.5330    0.6670    0.0000 O.2     1  LIG1       -0.1503
     28 O           5.2710   -0.5460    0.0000 O.2     1  LIG1       -0.1503
     29 N           4.0580   -1.3040    0.0000 N.3     1  LIG1        0.0392
@<TRIPOS>BOND
     1     1     2    1
     2     1    27    2
     3     1    28    2
     4     1    29    1
     5     2     3   ar
     6     2     7   ar
     7     3     4   ar
     8     4     5   ar
     9     5     6   ar
    10     5     8    1
    11     6     7   ar
    12     8     9    1
    13     9    10    1
    14    10    11   am
    15    11    12    1
    16    11    26    2
    17    12    13    1
    18    12    17    1
    19    13    14   ar
    20    13    25   ar
    21    14    15    1
    22    14    22   ar
    23    15    16    1
    24    16    17   ar
    25    16    21   ar
    26    17    18   ar
    27    18    19   ar
    28    19    20   ar
    29    20    21   ar
    30    22    23   ar
    31    23    24   ar
    32    24    25   ar
