@<TRIPOS>MOLECULE
30561_ChemDiv_4964-3779
 27 30 0 0 0
SMALL
GASTEIGER
Energy = 0

@<TRIPOS>ATOM
      1 S          -1.7040   -2.9040    0.0000 S.O2    1  LIG1        0.0442
      2 N          -0.8290   -2.3960    0.0000 N.3     1  LIG1       -0.1472
      3 C          -0.8630   -1.3540    0.0000 C.3     1  LIG1        0.1581
      4 C           0.0290   -0.8130    0.0000 C.3     1  LIG1        0.1586
      5 N           0.9290   -1.3000    0.0000 N.4     1  LIG1        0.3830
      6 C           1.8330   -0.7920    0.0000 C.3     1  LIG1        0.1663
      7 C           1.8330    0.2540    0.0000 C.ar    1  LIG1        0.0345
      8 C           0.9920    0.7380    0.0000 C.ar    1  LIG1        0.0029
      9 C           0.9920    1.7330    0.0000 C.ar    1  LIG1        0.0171
     10 C           1.8330    2.1960    0.0000 C.ar    1  LIG1        0.0599
     11 N           1.6170    3.1830    0.0000 N.ar    1  LIG1       -0.3272
     12 C           0.6630    3.2630    0.0000 C.ar    1  LIG1        0.0599
     13 C           0.2630    2.4210    0.0000 C.ar    1  LIG1        0.0172
     14 C          -0.7500    2.3040    0.0000 C.ar    1  LIG1        0.0015
     15 C          -1.2880    3.0960    0.0000 C.ar    1  LIG1        0.0001
     16 C          -0.8920    3.9880    0.0000 C.ar    1  LIG1        0.0015
     17 C           0.0960    4.0750    0.0000 C.ar    1  LIG1        0.0172
     18 C           2.2250    3.9040    0.0000 C.3     1  LIG1        0.1061
     19 C           3.1630    3.7790    0.0000 C.3     1  LIG1        0.0265
     20 C           2.6670    1.7130    0.0000 C.ar    1  LIG1        0.0171
     21 C           2.6830    0.7540    0.0000 C.ar    1  LIG1        0.0029
     22 C           0.9750   -2.3330    0.0000 C.3     1  LIG1        0.1586
     23 C           0.0920   -2.8830    0.0000 C.3     1  LIG1        0.1581
     24 O          -0.8920   -3.7880    0.0000 O.2     1  LIG1       -0.1573
     25 O          -2.0170   -4.0750    0.0000 O.2     1  LIG1       -0.1573
     26 C          -2.5670   -2.7210    0.0000 C.3     1  LIG1        0.1692
     27 C          -3.1670   -3.2830    0.0000 C.3     1  LIG1        0.0289
@<TRIPOS>BOND
     1     1     2    1
     2     1    24    2
     3     1    25    2
     4     1    26    1
     5     2     3    1
     6     2    23    1
     7     3     4    1
     8     4     5    1
     9     5     6    1
    10     5    22    1
    11     6     7    1
    12     7     8   ar
    13     7    21   ar
    14     8     9   ar
    15     9    10   ar
    16     9    13   ar
    17    10    11   ar
    18    10    20   ar
    19    11    12   ar
    20    11    18    1
    21    12    13   ar
    22    12    17   ar
    23    13    14   ar
    24    14    15   ar
    25    15    16   ar
    26    16    17   ar
    27    18    19    1
    28    20    21   ar
    29    22    23    1
    30    26    27    1
