@<TRIPOS>MOLECULE
30567_ChemDiv_4100-3889
 25 28 0 0 0
SMALL
GASTEIGER
Energy = 0

@<TRIPOS>ATOM
      1 C          -0.3290   -0.5080    0.0000 C.2     1  LIG1        0.2560
      2 N           0.3750    0.2000    0.0000 N.am    1  LIG1       -0.1426
      3 C           1.3380   -0.0580    0.0000 C.ar    1  LIG1        0.2426
      4 N           1.5960   -1.0080    0.0000 N.ar    1  LIG1       -0.2165
      5 C           2.5580   -1.2790    0.0000 C.ar    1  LIG1        0.0635
      6 C           3.2670   -0.5540    0.0000 C.ar    1  LIG1        0.0296
      7 C           2.9960    0.4080    0.0000 C.ar    1  LIG1        0.0635
      8 N           2.0380    0.6540    0.0000 N.ar    1  LIG1       -0.2165
      9 C           3.6750    1.1330    0.0000 C.3     1  LIG1        0.0522
     10 C           2.8170   -2.2460    0.0000 C.3     1  LIG1        0.0522
     11 C          -1.3000   -0.2420    0.0000 C.3     1  LIG1        0.1288
     12 C          -1.5710    0.7130    0.0000 C.ar    1  LIG1        0.0250
     13 C          -2.5330    0.9710    0.0000 C.ar    1  LIG1        0.1420
     14 O          -3.2460    0.2460    0.0000 O.3     1  LIG1       -0.4541
     15 C          -2.9880   -0.7040    0.0000 C.ar    1  LIG1        0.1420
     16 C          -2.0080   -0.9630    0.0000 C.ar    1  LIG1        0.0250
     17 C          -1.7330   -1.9250    0.0000 C.ar    1  LIG1       -0.0005
     18 C          -2.4460   -2.6330    0.0000 C.ar    1  LIG1       -0.0001
     19 C          -3.4210   -2.3920    0.0000 C.ar    1  LIG1        0.0031
     20 C          -3.6790   -1.4290    0.0000 C.ar    1  LIG1        0.0372
     21 C          -2.8040    1.9290    0.0000 C.ar    1  LIG1        0.0372
     22 C          -2.1000    2.6380    0.0000 C.ar    1  LIG1        0.0031
     23 C          -1.1290    2.4000    0.0000 C.ar    1  LIG1       -0.0001
     24 C          -0.8630    1.4380    0.0000 C.ar    1  LIG1       -0.0005
     25 O          -0.0670   -1.4630    0.0000 O.2     1  LIG1       -0.2722
@<TRIPOS>BOND
     1     1     2   am
     2     1    11    1
     3     1    25    2
     4     2     3    1
     5     3     4   ar
     6     3     8   ar
     7     4     5   ar
     8     5     6   ar
     9     5    10    1
    10     6     7   ar
    11     7     8   ar
    12     7     9    1
    13    11    12    1
    14    11    16    1
    15    12    13   ar
    16    12    24   ar
    17    13    14    1
    18    13    21   ar
    19    14    15    1
    20    15    16   ar
    21    15    20   ar
    22    16    17   ar
    23    17    18   ar
    24    18    19   ar
    25    19    20   ar
    26    21    22   ar
    27    22    23   ar
    28    23    24   ar
