@<TRIPOS>MOLECULE
30578_ChemDiv_D011-1878
 27 31 0 0 0
SMALL
GASTEIGER
Energy = 0

@<TRIPOS>ATOM
      1 C           0.6670    1.1000    0.0000 C.ar    1  LIG1        0.1617
      2 N           0.0830    0.2880    0.0000 N.ar    1  LIG1       -0.3097
      3 C          -0.8710    0.5880    0.0000 C.ar    1  LIG1        0.0627
      4 C          -0.8710    1.5920    0.0000 C.ar    1  LIG1        0.0369
      5 C           0.0830    1.9080    0.0000 C.ar    1  LIG1        0.1167
      6 N           0.4710    2.8170    0.0000 N.ar    1  LIG1       -0.2408
      7 C           1.4710    2.9330    0.0000 C.ar    1  LIG1        0.0990
      8 C           2.0580    2.1210    0.0000 C.ar    1  LIG1        0.1005
      9 N           1.6670    1.2040    0.0000 N.ar    1  LIG1       -0.2252
     10 C           3.0670    2.2290    0.0000 C.ar    1  LIG1        0.0207
     11 C           3.4670    3.1500    0.0000 C.ar    1  LIG1        0.0016
     12 C           2.8670    3.9630    0.0000 C.ar    1  LIG1        0.0016
     13 C           1.8670    3.8500    0.0000 C.ar    1  LIG1        0.0206
     14 C          -1.7330    2.0880    0.0000 C.ar    1  LIG1        0.0097
     15 C          -2.6000    1.5790    0.0000 C.ar    1  LIG1        0.0347
     16 C          -2.6000    0.5880    0.0000 C.ar    1  LIG1        0.0082
     17 C          -1.7330    0.0830    0.0000 C.ar    1  LIG1        0.0178
     18 BR         -3.4710    2.0880    0.0000 Br      1  LIG1       -0.0490
     19 C           0.4000   -0.6670    0.0000 C.3     1  LIG1        0.1294
     20 C          -0.2580   -1.4080    0.0000 C.3     1  LIG1        0.1253
     21 N           0.0670   -2.3540    0.0000 N.am    1  LIG1       -0.2279
     22 C          -0.5040   -3.1670    0.0000 C.2     1  LIG1        0.2319
     23 C           0.0830   -3.9580    0.0000 C.3     1  LIG1        0.0953
     24 C           1.0290   -3.6420    0.0000 C.3     1  LIG1        0.0953
     25 C           1.0130   -2.6420    0.0000 C.2     1  LIG1        0.2319
     26 O           1.8130   -2.0420    0.0000 O.2     1  LIG1       -0.2745
     27 O          -1.5040   -3.1830    0.0000 O.2     1  LIG1       -0.2745
@<TRIPOS>BOND
     1     1     2   ar
     2     1     5   ar
     3     1     9   ar
     4     2     3   ar
     5     2    19    1
     6     3     4   ar
     7     3    17   ar
     8     4     5   ar
     9     4    14   ar
    10     5     6   ar
    11     6     7   ar
    12     7     8   ar
    13     7    13   ar
    14     8     9   ar
    15     8    10   ar
    16    10    11   ar
    17    11    12   ar
    18    12    13   ar
    19    14    15   ar
    20    15    16   ar
    21    15    18    1
    22    16    17   ar
    23    19    20    1
    24    20    21    1
    25    21    22   am
    26    21    25   am
    27    22    23    1
    28    22    27    2
    29    23    24    1
    30    24    25    1
    31    25    26    2
