@<TRIPOS>MOLECULE
30586_ChemDiv_C790-0035
 19 20 0 0 0
SMALL
GASTEIGER
Energy = 0

@<TRIPOS>ATOM
      1 N          -0.8630    2.2460    0.0000 N.am    1  LIG1       -0.2794
      2 C          -1.7380    2.7580    0.0000 C.2     1  LIG1        0.2261
      3 O          -2.5960    2.2580    0.0000 O.2     1  LIG1       -0.2749
      4 C          -1.7210    3.7710    0.0000 C.3     1  LIG1        0.0948
      5 C           0.0000    2.7420    0.0000 C.3     1  LIG1        0.0952
      6 C           0.8630    2.2460    0.0000 C.3     1  LIG1        0.0431
      7 C           0.8630    1.2500    0.0000 C.3     1  LIG1        0.0959
      8 N           1.7380    0.7330    0.0000 N.pl3   1  LIG1       -0.2392
      9 C           1.7330   -0.2630    0.0000 C.ar    1  LIG1        0.0654
     10 C           0.8630   -0.7630    0.0000 C.ar    1  LIG1        0.0192
     11 C           0.8630   -1.7670    0.0000 C.ar    1  LIG1        0.0382
     12 C           1.7330   -2.2670    0.0000 C.ar    1  LIG1        0.1386
     13 C           2.5920   -1.7670    0.0000 C.ar    1  LIG1        0.0382
     14 C           2.5920   -0.7630    0.0000 C.ar    1  LIG1        0.0192
     15 O           1.7380   -3.2630    0.0000 O.3     1  LIG1       -0.4755
     16 C           0.8750   -3.7670    0.0000 C.3     1  LIG1        0.2055
     17 C           0.0170   -3.2830    0.0000 C.3     1  LIG1        0.0512
     18 C           0.0000    0.7500    0.0000 C.3     1  LIG1        0.0431
     19 C          -0.8630    1.2500    0.0000 C.3     1  LIG1        0.0952
@<TRIPOS>BOND
     1     1     2   am
     2     1     5    1
     3     1    19    1
     4     2     3    2
     5     2     4    1
     6     5     6    1
     7     6     7    1
     8     7     8    1
     9     7    18    1
    10     8     9    1
    11     9    10   ar
    12     9    14   ar
    13    10    11   ar
    14    11    12   ar
    15    12    13   ar
    16    12    15    1
    17    13    14   ar
    18    15    16    1
    19    16    17    1
    20    18    19    1
