@<TRIPOS>MOLECULE
30580_ChemDiv_4237-0134
 19 20 0 0 0
SMALL
GASTEIGER
Energy = 0

@<TRIPOS>ATOM
      1 C           0.7790    0.0500    0.0000 C.3     1  LIG1        0.1652
      2 C           1.4880    0.7670    0.0000 C.1     1  LIG1        0.0918
      3 N           2.1880    1.4830    0.0000 N.1     1  LIG1       -0.1942
      4 N           1.2500   -0.8330    0.0000 N.pl3   1  LIG1       -0.2263
      5 C           2.2130   -0.8750    0.0000 C.ar    1  LIG1        0.0663
      6 C           2.7080   -1.7250    0.0000 C.ar    1  LIG1        0.0161
      7 C           3.6920   -1.8040    0.0000 C.ar    1  LIG1        0.0013
      8 C           4.2130   -0.9330    0.0000 C.ar    1  LIG1        0.0001
      9 C           3.7420   -0.0380    0.0000 C.ar    1  LIG1        0.0013
     10 C           2.7330   -0.0080    0.0000 C.ar    1  LIG1        0.0161
     11 C           0.2710   -0.7960    0.0000 C.3     1  LIG1        0.0972
     12 C          -0.7250   -0.7960    0.0000 C.3     1  LIG1        0.1414
     13 N          -1.2210    0.0500    0.0000 N.4     1  LIG1        0.3774
     14 C          -0.7250    0.9290    0.0000 C.3     1  LIG1        0.1414
     15 C           0.2710    0.9290    0.0000 C.3     1  LIG1        0.0972
     16 C          -2.2210    0.0500    0.0000 C.3     1  LIG1        0.1385
     17 C          -2.7170    0.9290    0.0000 C.3     1  LIG1        0.0627
     18 C          -3.7130    0.9290    0.0000 C.3     1  LIG1        0.0061
     19 C          -4.2170    1.8080    0.0000 C.3     1  LIG1        0.0002
@<TRIPOS>BOND
     1     1     2    1
     2     1     4    1
     3     1    11    1
     4     1    15    1
     5     2     3    3
     6     4     5    1
     7     5     6   ar
     8     5    10   ar
     9     6     7   ar
    10     7     8   ar
    11     8     9   ar
    12     9    10   ar
    13    11    12    1
    14    12    13    1
    15    13    14    1
    16    13    16    1
    17    14    15    1
    18    16    17    1
    19    17    18    1
    20    18    19    1
