@<TRIPOS>MOLECULE
30582_ChemDiv_8017-9371
 14 15 0 0 0
SMALL
GASTEIGER
Energy = 0

@<TRIPOS>ATOM
      1 N          -3.0330    0.5000    0.0000 N.4     1  LIG1        0.4481
      2 C          -2.1710    1.0000    0.0000 C.3     1  LIG1        0.2024
      3 C          -1.3000    0.5000    0.0000 C.3     1  LIG1        0.0906
      4 C          -1.3000   -0.4960    0.0000 C.3     1  LIG1        0.1048
      5 N          -0.4330   -0.9960    0.0000 N.pl3   1  LIG1       -0.2389
      6 C           0.4290   -0.4960    0.0000 C.ar    1  LIG1        0.0654
      7 C           1.2920   -1.0040    0.0000 C.ar    1  LIG1        0.0184
      8 C           2.1630   -0.5040    0.0000 C.ar    1  LIG1        0.0310
      9 C           2.1630    0.5000    0.0000 C.ar    1  LIG1        0.1402
     10 F           3.0290    1.0080    0.0000 F       1  LIG1       -0.2042
     11 C           1.2920    1.0080    0.0000 C.ar    1  LIG1        0.0310
     12 C           0.4290    0.5080    0.0000 C.ar    1  LIG1        0.0184
     13 C          -2.1710   -0.9960    0.0000 C.3     1  LIG1        0.0906
     14 C          -3.0330   -0.4960    0.0000 C.3     1  LIG1        0.2024
@<TRIPOS>BOND
     1     1     2    1
     2     1    14    1
     3     2     3    1
     4     3     4    1
     5     4     5    1
     6     4    13    1
     7     5     6    1
     8     6     7   ar
     9     6    12   ar
    10     7     8   ar
    11     8     9   ar
    12     9    10    1
    13     9    11   ar
    14    11    12   ar
    15    13    14    1
