@<TRIPOS>MOLECULE
30584_ChemDiv_C790-0002
 17 18 0 0 0
SMALL
GASTEIGER
Energy = 0

@<TRIPOS>ATOM
      1 N          -1.3000   -1.7500    0.0000 N.am    1  LIG1       -0.2794
      2 C          -1.3000   -2.7500    0.0000 C.2     1  LIG1        0.2261
      3 O          -2.1670   -3.2500    0.0000 O.2     1  LIG1       -0.2749
      4 C          -0.4330   -3.2500    0.0000 C.3     1  LIG1        0.0948
      5 C          -0.4380   -1.2500    0.0000 C.3     1  LIG1        0.0952
      6 C          -0.4380   -0.2500    0.0000 C.3     1  LIG1        0.0431
      7 C          -1.3000    0.2540    0.0000 C.3     1  LIG1        0.0959
      8 N          -1.3000    1.2540    0.0000 N.pl3   1  LIG1       -0.2392
      9 C          -0.4330    1.7540    0.0000 C.ar    1  LIG1        0.0652
     10 C           0.4330    1.2540    0.0000 C.ar    1  LIG1        0.0158
     11 C           1.2960    1.7540    0.0000 C.ar    1  LIG1       -0.0029
     12 C           1.2960    2.7540    0.0000 C.ar    1  LIG1       -0.0218
     13 C           0.4290    3.2540    0.0000 C.ar    1  LIG1       -0.0029
     14 C          -0.4380    2.7540    0.0000 C.ar    1  LIG1        0.0158
     15 C           2.1630    3.2540    0.0000 C.3     1  LIG1        0.0310
     16 C          -2.1630   -0.2500    0.0000 C.3     1  LIG1        0.0431
     17 C          -2.1630   -1.2500    0.0000 C.3     1  LIG1        0.0952
@<TRIPOS>BOND
     1     1     2   am
     2     1     5    1
     3     1    17    1
     4     2     3    2
     5     2     4    1
     6     5     6    1
     7     6     7    1
     8     7     8    1
     9     7    16    1
    10     8     9    1
    11     9    10   ar
    12     9    14   ar
    13    10    11   ar
    14    11    12   ar
    15    12    13   ar
    16    12    15    1
    17    13    14   ar
    18    16    17    1
