@<TRIPOS>MOLECULE
30602_ChemDiv_4286-0098
 17 19 0 0 0
SMALL
GASTEIGER
Energy = 0

@<TRIPOS>ATOM
      1 C          -0.6750    0.3830    0.0000 C.3     1  LIG1        0.1760
      2 N           0.3330   -0.0540    0.0000 N.3     1  LIG1       -0.2546
      3 C           0.4130   -1.1540    0.0000 C.3     1  LIG1        0.1055
      4 C           1.4040   -1.6420    0.0000 C.3     1  LIG1        0.1595
      5 O           2.3290   -1.0330    0.0000 O.3     1  LIG1       -0.3508
      6 C           2.2630    0.0830    0.0000 C.3     1  LIG1        0.1595
      7 C           1.2580    0.5710    0.0000 C.3     1  LIG1        0.1055
      8 C          -0.0250    0.9630    0.0000 C.1     1  LIG1        0.0922
      9 N          -0.0580    2.1540    0.0000 N.1     1  LIG1       -0.1944
     10 C          -0.6580   -0.7290    0.0000 C.3     1  LIG1        0.1380
     11 N          -1.5330   -1.2000    0.0000 N.4     1  LIG1        0.3033
     12 C          -2.3330   -0.7290    0.0000 C.3     1  LIG1        0.1089
     13 C          -2.3330    0.2500    0.0000 C.3     1  LIG1        0.0638
     14 C          -1.5040    0.7250    0.0000 C.3     1  LIG1        0.0445
     15 C          -1.2420    0.0250    0.0000 C.3     1  LIG1        0.0638
     16 C          -1.8250   -0.3080    0.0000 C.3     1  LIG1        0.1089
     17 C          -1.5040   -2.1500    0.0000 C.3     1  LIG1        0.1705
@<TRIPOS>BOND
     1     1     2    1
     2     1     8    1
     3     1    10    1
     4     1    14    1
     5     2     3    1
     6     2     7    1
     7     3     4    1
     8     4     5    1
     9     5     6    1
    10     6     7    1
    11     8     9    3
    12    10    11    1
    13    11    12    1
    14    11    16    1
    15    11    17    1
    16    12    13    1
    17    13    14    1
    18    14    15    1
    19    15    16    1
