@<TRIPOS>MOLECULE
30605_ChemDiv_4109-1927
 35 39 0 0 0
SMALL
GASTEIGER
Energy = 0

@<TRIPOS>ATOM
      1 S           0.8500    3.5130    0.0000 S.O2    1  LIG1        0.0631
      2 C          -0.0080    2.9960    0.0000 C.ar    1  LIG1        0.1183
      3 C           0.0000    1.9960    0.0000 C.ar    1  LIG1        0.0211
      4 C          -0.8580    1.4960    0.0000 C.ar    1  LIG1        0.0207
      5 C          -0.8420    0.4960    0.0000 C.ar    1  LIG1        0.1029
      6 N           0.0290   -0.0040    0.0000 N.ar    1  LIG1       -0.1475
      7 N           0.0460   -1.0170    0.0000 N.ar    1  LIG1       -0.1413
      8 C          -0.8290   -1.5170    0.0000 C.ar    1  LIG1        0.1350
      9 S          -0.8130   -2.5210    0.0000 S.3     1  LIG1       -0.0279
     10 C           0.0500   -3.0210    0.0000 C.ar    1  LIG1        0.1950
     11 N           0.0460   -4.0210    0.0000 N.ar    1  LIG1       -0.2253
     12 C           0.9000   -4.5130    0.0000 C.ar    1  LIG1        0.0627
     13 C           1.7630   -4.0210    0.0000 C.ar    1  LIG1        0.0295
     14 C           1.7630   -3.0210    0.0000 C.ar    1  LIG1        0.0627
     15 N           0.9000   -2.5210    0.0000 N.ar    1  LIG1       -0.2253
     16 C           2.6290   -2.5210    0.0000 C.3     1  LIG1        0.0522
     17 C           0.9000   -5.5170    0.0000 C.3     1  LIG1        0.0522
     18 C          -1.6960   -1.0330    0.0000 C.ar    1  LIG1        0.0272
     19 C          -1.7080   -0.0290    0.0000 C.ar    1  LIG1        0.0214
     20 C          -2.5710    0.4830    0.0000 C.ar    1  LIG1        0.0016
     21 C          -3.4330   -0.0290    0.0000 C.ar    1  LIG1        0.0001
     22 C          -3.4330   -1.0330    0.0000 C.ar    1  LIG1        0.0001
     23 C          -2.5710   -1.5290    0.0000 C.ar    1  LIG1        0.0021
     24 C          -1.7290    1.9670    0.0000 C.ar    1  LIG1        0.0013
     25 C          -1.7540    2.9670    0.0000 C.ar    1  LIG1       -0.0029
     26 C          -0.8880    3.4880    0.0000 C.ar    1  LIG1       -0.0032
     27 C          -0.9040    4.4830    0.0000 C.3     1  LIG1        0.0324
     28 N           1.7130    4.0080    0.0000 N.3     1  LIG1       -0.1504
     29 C           1.6960    5.0080    0.0000 C.3     1  LIG1        0.1279
     30 C           2.5670    5.5170    0.0000 C.3     1  LIG1        0.1613
     31 O           3.4290    5.0250    0.0000 O.3     1  LIG1       -0.3507
     32 C           3.4290    4.0250    0.0000 C.3     1  LIG1        0.1613
     33 C           2.5830    3.5170    0.0000 C.3     1  LIG1        0.1279
     34 O           1.3380    2.6500    0.0000 O.2     1  LIG1       -0.1528
     35 O           0.3380    4.3710    0.0000 O.2     1  LIG1       -0.1528
@<TRIPOS>BOND
     1     1     2    1
     2     1    28    1
     3     1    34    2
     4     1    35    2
     5     2     3   ar
     6     2    26   ar
     7     3     4   ar
     8     4     5    1
     9     4    24   ar
    10     5     6   ar
    11     5    19   ar
    12     6     7   ar
    13     7     8   ar
    14     8     9    1
    15     8    18   ar
    16     9    10    1
    17    10    11   ar
    18    10    15   ar
    19    11    12   ar
    20    12    13   ar
    21    12    17    1
    22    13    14   ar
    23    14    15   ar
    24    14    16    1
    25    18    19   ar
    26    18    23   ar
    27    19    20   ar
    28    20    21   ar
    29    21    22   ar
    30    22    23   ar
    31    24    25   ar
    32    25    26   ar
    33    26    27    1
    34    28    29    1
    35    28    33    1
    36    29    30    1
    37    30    31    1
    38    31    32    1
    39    32    33    1
