@<TRIPOS>MOLECULE
30618_ChemDiv_8012-4134
 35 38 0 0 0
SMALL
GASTEIGER
Energy = 0

@<TRIPOS>ATOM
      1 C           2.5380   -0.7420    0.0000 C.3     1  LIG1        0.1198
      2 C           2.5380    0.2920    0.0000 C.2     1  LIG1        0.3202
      3 O           3.4040    0.7920    0.0000 O.2     1  LIG1       -0.2498
      4 O           1.6920    0.7920    0.0000 O.3     1  LIG1       -0.4483
      5 C           0.8290    0.3130    0.0000 C.3     1  LIG1        0.2086
      6 C          -0.0830    0.8130    0.0000 C.3     1  LIG1        0.0513
      7 C           2.5380   -1.7420    0.0000 C.3     1  LIG1        0.0776
      8 C           1.6920   -2.2460    0.0000 C.3     1  LIG1        0.1401
      9 N           0.8210   -1.7420    0.0000 N.4     1  LIG1        0.3845
     10 C          -0.0500   -2.2460    0.0000 C.3     1  LIG1        0.2269
     11 C          -0.8920   -1.7420    0.0000 C.2     1  LIG1        0.3033
     12 N          -1.7380   -2.2460    0.0000 N.am    1  LIG1       -0.1742
     13 C          -2.6080   -1.7210    0.0000 C.ar    1  LIG1        0.0738
     14 C          -3.4670   -2.2170    0.0000 C.ar    1  LIG1        0.0197
     15 C          -4.3290   -1.7210    0.0000 C.ar    1  LIG1        0.0382
     16 C          -4.3290   -0.7420    0.0000 C.ar    1  LIG1        0.1391
     17 O          -5.1920   -0.2580    0.0000 O.3     1  LIG1       -0.4706
     18 C          -5.1790    0.8130    0.0000 C.3     1  LIG1        0.2320
     19 C          -4.3500    1.3040    0.0000 C.ar    1  LIG1        0.0212
     20 C          -4.3500    2.3170    0.0000 C.ar    1  LIG1       -0.0007
     21 C          -3.5040    2.7920    0.0000 C.ar    1  LIG1       -0.0002
     22 C          -2.6210    2.3170    0.0000 C.ar    1  LIG1       -0.0000
     23 C          -2.6210    1.3040    0.0000 C.ar    1  LIG1       -0.0002
     24 C          -3.5040    0.8130    0.0000 C.ar    1  LIG1       -0.0007
     25 C          -3.4670   -0.2380    0.0000 C.ar    1  LIG1        0.0382
     26 C          -2.6080   -0.7420    0.0000 C.ar    1  LIG1        0.0197
     27 O          -0.8920   -0.7500    0.0000 O.2     1  LIG1       -0.2665
     28 C           0.8210   -0.7420    0.0000 C.3     1  LIG1        0.1401
     29 C           1.6920   -0.2380    0.0000 C.3     1  LIG1        0.0776
     30 C           3.4790   -1.2880    0.0000 C.ar    1  LIG1       -0.0124
     31 C           4.3290   -0.7830    0.0000 C.ar    1  LIG1       -0.0038
     32 C           5.1880   -1.2880    0.0000 C.ar    1  LIG1       -0.0003
     33 C           5.1880   -2.2880    0.0000 C.ar    1  LIG1       -0.0000
     34 C           4.3290   -2.7880    0.0000 C.ar    1  LIG1       -0.0003
     35 C           3.4790   -2.2880    0.0000 C.ar    1  LIG1       -0.0038
@<TRIPOS>BOND
     1     1     2    1
     2     1     7    1
     3     1    29    1
     4     1    30    1
     5     2     3    2
     6     2     4    1
     7     4     5    1
     8     5     6    1
     9     7     8    1
    10     8     9    1
    11     9    10    1
    12     9    28    1
    13    10    11    1
    14    11    12   am
    15    11    27    2
    16    12    13    1
    17    13    14   ar
    18    13    26   ar
    19    14    15   ar
    20    15    16   ar
    21    16    17    1
    22    16    25   ar
    23    17    18    1
    24    18    19    1
    25    19    20   ar
    26    19    24   ar
    27    20    21   ar
    28    21    22   ar
    29    22    23   ar
    30    23    24   ar
    31    25    26   ar
    32    28    29    1
    33    30    31   ar
    34    30    35   ar
    35    31    32   ar
    36    32    33   ar
    37    33    34   ar
    38    34    35   ar
