@<TRIPOS>MOLECULE
30610_ChemDiv_8004-9673
 27 29 0 0 0
SMALL
GASTEIGER
Energy = 0

@<TRIPOS>ATOM
      1 C           2.7460   -0.3960    0.0000 C.3     1  LIG1        0.1198
      2 C           3.6460    0.0500    0.0000 C.2     1  LIG1        0.3202
      3 O           4.4830   -0.5080    0.0000 O.2     1  LIG1       -0.2498
      4 O           3.7420    1.0580    0.0000 O.3     1  LIG1       -0.4483
      5 C           4.6380    1.4960    0.0000 C.3     1  LIG1        0.2086
      6 C           4.7290    2.5040    0.0000 C.3     1  LIG1        0.0513
      7 C           2.2500    0.4670    0.0000 C.3     1  LIG1        0.0776
      8 C           1.2540    0.4670    0.0000 C.3     1  LIG1        0.1396
      9 N           0.7460   -0.3960    0.0000 N.4     1  LIG1        0.3802
     10 C           1.2540   -1.2290    0.0000 C.3     1  LIG1        0.1396
     11 C           2.2210   -1.2290    0.0000 C.3     1  LIG1        0.0776
     12 C          -0.2500   -0.4290    0.0000 C.3     1  LIG1        0.1867
     13 C          -0.7920    0.4210    0.0000 C.3     1  LIG1        0.2675
     14 O          -1.7830    0.3920    0.0000 O.3     1  LIG1       -0.4690
     15 C          -2.2880    1.2250    0.0000 C.ar    1  LIG1        0.1397
     16 C          -3.3000    1.2000    0.0000 C.ar    1  LIG1        0.0483
     17 C          -3.8380    2.0750    0.0000 C.ar    1  LIG1        0.0607
     18 CL         -4.8290    2.0750    0.0000 Cl      1  LIG1       -0.0821
     19 C          -3.3750    2.9500    0.0000 C.ar    1  LIG1        0.0116
     20 C          -2.3580    2.9670    0.0000 C.ar    1  LIG1        0.0040
     21 C          -1.8330    2.1170    0.0000 C.ar    1  LIG1        0.0370
     22 C           3.2750   -1.2290    0.0000 C.ar    1  LIG1       -0.0124
     23 C           2.8170   -2.1080    0.0000 C.ar    1  LIG1       -0.0038
     24 C           3.3380   -2.9630    0.0000 C.ar    1  LIG1       -0.0003
     25 C           4.3420   -2.9380    0.0000 C.ar    1  LIG1       -0.0000
     26 C           4.8250   -2.0460    0.0000 C.ar    1  LIG1       -0.0003
     27 C           4.2880   -1.1710    0.0000 C.ar    1  LIG1       -0.0038
@<TRIPOS>BOND
     1     1     2    1
     2     1     7    1
     3     1    11    1
     4     1    22    1
     5     2     3    2
     6     2     4    1
     7     4     5    1
     8     5     6    1
     9     7     8    1
    10     8     9    1
    11     9    10    1
    12     9    12    1
    13    10    11    1
    14    12    13    1
    15    13    14    1
    16    14    15    1
    17    15    16   ar
    18    15    21   ar
    19    16    17   ar
    20    17    18    1
    21    17    19   ar
    22    19    20   ar
    23    20    21   ar
    24    22    23   ar
    25    22    27   ar
    26    23    24   ar
    27    24    25   ar
    28    25    26   ar
    29    26    27   ar
