@<TRIPOS>MOLECULE
30617_ChemDiv_4181-3736
 23 26 0 0 0
SMALL
GASTEIGER
Energy = 0

@<TRIPOS>ATOM
      1 N          -0.0080   -0.6790    0.0000 N.am    1  LIG1       -0.2192
      2 C           0.8130   -0.1330    0.0000 C.2     1  LIG1        0.3403
      3 N           0.7080    0.8540    0.0000 N.am    1  LIG1       -0.0895
      4 C           1.3210    1.3130    0.0000 C.2     1  LIG1        0.4005
      5 N           0.9920    2.3880    0.0000 N.am    1  LIG1        0.1611
      6 C           1.8420    2.9750    0.0000 C.2     1  LIG1        0.4697
      7 O           1.8420    3.7170    0.0000 O.2     1  LIG1       -0.2108
      8 C           2.7290    2.3880    0.0000 C.3     1  LIG1        0.2188
      9 S           2.4040    1.3130    0.0000 S.3     1  LIG1       -0.0060
     10 O           1.7290   -0.5250    0.0000 O.2     1  LIG1       -0.2495
     11 C           0.0710   -1.6920    0.0000 C.ar    1  LIG1        0.0656
     12 C          -0.7630   -2.2630    0.0000 C.ar    1  LIG1        0.0435
     13 S          -1.6830   -1.8290    0.0000 S.3     1  LIG1       -0.0844
     14 C          -1.7080   -0.7750    0.0000 C.ar    1  LIG1        0.0435
     15 C          -0.9500   -0.2630    0.0000 C.ar    1  LIG1        0.0656
     16 C          -1.0710    0.7250    0.0000 C.ar    1  LIG1        0.0158
     17 C          -1.9750    1.1960    0.0000 C.ar    1  LIG1        0.0013
     18 C          -2.7330    0.6830    0.0000 C.ar    1  LIG1        0.0006
     19 C          -2.6540   -0.3210    0.0000 C.ar    1  LIG1        0.0077
     20 C          -0.6880   -3.3040    0.0000 C.ar    1  LIG1        0.0077
     21 C           0.3000   -3.7130    0.0000 C.ar    1  LIG1        0.0006
     22 C           1.0250   -3.1830    0.0000 C.ar    1  LIG1        0.0013
     23 C           0.9750   -2.1380    0.0000 C.ar    1  LIG1        0.0158
@<TRIPOS>BOND
     1     1     2   am
     2     1    11    1
     3     1    15    1
     4     2     3   am
     5     2    10    2
     6     3     4    1
     7     4     5    2
     8     4     9    1
     9     5     6   am
    10     6     7    2
    11     6     8    1
    12     8     9    1
    13    11    12   ar
    14    11    23   ar
    15    12    13    1
    16    12    20   ar
    17    13    14    1
    18    14    15   ar
    19    14    19   ar
    20    15    16   ar
    21    16    17   ar
    22    17    18   ar
    23    18    19   ar
    24    20    21   ar
    25    21    22   ar
    26    22    23   ar
