@<TRIPOS>MOLECULE
30614_ChemDiv_8007-4101
 28 30 0 0 0
SMALL
GASTEIGER
Energy = 0

@<TRIPOS>ATOM
      1 C           2.2750   -0.1790    0.0000 C.3     1  LIG1        0.1198
      2 C           2.2920    1.0330    0.0000 C.2     1  LIG1        0.3202
      3 O           3.0920    1.5790    0.0000 O.2     1  LIG1       -0.2498
      4 O           1.4460    1.5790    0.0000 O.3     1  LIG1       -0.4483
      5 C           0.5710    1.1250    0.0000 C.3     1  LIG1        0.2086
      6 C          -0.2790    1.6250    0.0000 C.3     1  LIG1        0.0513
      7 C           2.2920   -1.1460    0.0000 C.3     1  LIG1        0.0776
      8 C           1.4130   -1.6210    0.0000 C.3     1  LIG1        0.1401
      9 N           0.5500   -1.1210    0.0000 N.4     1  LIG1        0.3845
     10 C          -0.3080   -1.5880    0.0000 C.3     1  LIG1        0.2269
     11 C          -1.1540   -1.0750    0.0000 C.2     1  LIG1        0.3033
     12 N          -2.0210   -1.5880    0.0000 N.am    1  LIG1       -0.1742
     13 C          -2.8630   -1.0920    0.0000 C.ar    1  LIG1        0.0735
     14 C          -3.7170   -1.5880    0.0000 C.ar    1  LIG1        0.0163
     15 C          -4.5670   -1.0920    0.0000 C.ar    1  LIG1       -0.0029
     16 C          -4.5670   -0.1040    0.0000 C.ar    1  LIG1       -0.0218
     17 C          -3.7170    0.3880    0.0000 C.ar    1  LIG1       -0.0029
     18 C          -2.8630   -0.1040    0.0000 C.ar    1  LIG1        0.0163
     19 C          -5.4210    0.3880    0.0000 C.3     1  LIG1        0.0310
     20 O          -1.1630   -0.0790    0.0000 O.2     1  LIG1       -0.2665
     21 C           0.5500   -0.1460    0.0000 C.3     1  LIG1        0.1401
     22 C           1.4460    0.3250    0.0000 C.3     1  LIG1        0.0776
     23 C           3.4080   -0.1790    0.0000 C.ar    1  LIG1       -0.0124
     24 C           3.9080   -1.0210    0.0000 C.ar    1  LIG1       -0.0038
     25 C           4.8960   -1.0210    0.0000 C.ar    1  LIG1       -0.0003
     26 C           5.4170   -0.1790    0.0000 C.ar    1  LIG1       -0.0000
     27 C           4.8960    0.6830    0.0000 C.ar    1  LIG1       -0.0003
     28 C           3.9080    0.6830    0.0000 C.ar    1  LIG1       -0.0038
@<TRIPOS>BOND
     1     1     2    1
     2     1     7    1
     3     1    22    1
     4     1    23    1
     5     2     3    2
     6     2     4    1
     7     4     5    1
     8     5     6    1
     9     7     8    1
    10     8     9    1
    11     9    10    1
    12     9    21    1
    13    10    11    1
    14    11    12   am
    15    11    20    2
    16    12    13    1
    17    13    14   ar
    18    13    18   ar
    19    14    15   ar
    20    15    16   ar
    21    16    17   ar
    22    16    19    1
    23    17    18   ar
    24    21    22    1
    25    23    24   ar
    26    23    28   ar
    27    24    25   ar
    28    25    26   ar
    29    26    27   ar
    30    27    28   ar
