@<TRIPOS>MOLECULE
30619_ChemDiv_4182-0100
 22 23 0 0 0
SMALL
GASTEIGER
Energy = 0

@<TRIPOS>ATOM
      1 C           1.2960    1.5080    0.0000 C.ar    1  LIG1        0.1472
      2 C           1.2960    0.5080    0.0000 C.ar    1  LIG1        0.0308
      3 C           2.1580    0.0210    0.0000 C.ar    1  LIG1       -0.0128
      4 C           3.0500    0.5080    0.0000 C.ar    1  LIG1        0.0781
      5 C           3.0500    1.5080    0.0000 C.ar    1  LIG1        0.3456
      6 O           2.1580    2.0080    0.0000 O.2     1  LIG1       -0.4213
      7 O           3.9040    2.0080    0.0000 O.2     1  LIG1       -0.2445
      8 C           2.1580   -0.9920    0.0000 C.3     1  LIG1        0.0267
      9 C           3.0330   -1.4920    0.0000 C.3     1  LIG1        0.0047
     10 C           3.0330   -2.4830    0.0000 C.3     1  LIG1        0.0003
     11 C           3.9000   -2.9960    0.0000 C.3     1  LIG1        0.0000
     12 C           0.4420    0.0210    0.0000 C.ar    1  LIG1        0.0058
     13 C          -0.4250    0.5080    0.0000 C.ar    1  LIG1        0.0368
     14 C          -0.4250    1.5080    0.0000 C.ar    1  LIG1        0.1378
     15 C           0.4420    2.0080    0.0000 C.ar    1  LIG1        0.0467
     16 C           0.4420    3.0000    0.0000 C.3     1  LIG1        0.0374
     17 O          -1.3130    2.0080    0.0000 O.3     1  LIG1       -0.4738
     18 C          -2.1710    1.5080    0.0000 C.3     1  LIG1        0.2020
     19 C          -3.0460    1.9920    0.0000 C.2     1  LIG1        0.0900
     20 O          -3.0580    3.0000    0.0000 O.co2   1  LIG1       -0.5455
     21 O          -3.9080    1.4960    0.0000 O.co2   1  LIG1       -0.5455
     22 C          -2.1630    0.5080    0.0000 C.3     1  LIG1        0.0536
@<TRIPOS>BOND
     1     1     2   ar
     2     1     6   ar
     3     1    15   ar
     4     2     3   ar
     5     2    12   ar
     6     3     4   ar
     7     3     8    1
     8     4     5   ar
     9     5     6   ar
    10     5     7    2
    11     8     9    1
    12     9    10    1
    13    10    11    1
    14    12    13   ar
    15    13    14   ar
    16    14    15   ar
    17    14    17    1
    18    15    16    1
    19    17    18    1
    20    18    19    1
    21    18    22    1
    22    19    20   ar
    23    19    21   ar
