@<TRIPOS>MOLECULE
30612_ChemDiv_8007-0364
 30 32 0 0 0
SMALL
GASTEIGER
Energy = 0

@<TRIPOS>ATOM
      1 C           1.6630   -0.3290    0.0000 C.3     1  LIG1        0.1198
      2 C           2.6000    0.2750    0.0000 C.2     1  LIG1        0.3202
      3 O           2.6000    1.2830    0.0000 O.2     1  LIG1       -0.2498
      4 O           3.5040   -0.1880    0.0000 O.3     1  LIG1       -0.4483
      5 C           4.3210    0.4330    0.0000 C.3     1  LIG1        0.2086
      6 C           5.2250    0.0170    0.0000 C.3     1  LIG1        0.0513
      7 C           1.6630    0.6750    0.0000 C.3     1  LIG1        0.0776
      8 C           0.7960    1.1500    0.0000 C.3     1  LIG1        0.1401
      9 N          -0.0630    0.6580    0.0000 N.4     1  LIG1        0.3845
     10 C          -0.9330    1.1460    0.0000 C.3     1  LIG1        0.2269
     11 C          -1.8080    0.6380    0.0000 C.2     1  LIG1        0.3034
     12 N          -2.6750    1.1170    0.0000 N.am    1  LIG1       -0.1711
     13 C          -3.5210    0.6210    0.0000 C.ar    1  LIG1        0.1082
     14 C          -3.5210   -0.3750    0.0000 C.ar    1  LIG1        0.0311
     15 C          -4.3710   -0.8580    0.0000 C.ar    1  LIG1        0.0592
     16 C          -5.2290   -0.3830    0.0000 C.ar    1  LIG1        0.0146
     17 C          -5.2290    0.6130    0.0000 C.ar    1  LIG1        0.0391
     18 C          -4.3830    1.1000    0.0000 C.ar    1  LIG1        0.1539
     19 O          -4.3830    2.1250    0.0000 O.3     1  LIG1       -0.4701
     20 C          -3.5080    2.6250    0.0000 C.3     1  LIG1        0.2525
     21 CL         -4.3710   -1.8750    0.0000 Cl      1  LIG1       -0.0822
     22 O          -1.8080   -0.3580    0.0000 O.2     1  LIG1       -0.2665
     23 C          -0.0630   -0.3380    0.0000 C.3     1  LIG1        0.1401
     24 C           0.8130   -0.8170    0.0000 C.3     1  LIG1        0.0776
     25 C           2.2460   -1.1460    0.0000 C.ar    1  LIG1       -0.0124
     26 C           3.1000   -0.6460    0.0000 C.ar    1  LIG1       -0.0038
     27 C           3.9790   -1.1290    0.0000 C.ar    1  LIG1       -0.0003
     28 C           3.9790   -2.1170    0.0000 C.ar    1  LIG1       -0.0000
     29 C           3.1210   -2.6210    0.0000 C.ar    1  LIG1       -0.0003
     30 C           2.2460   -2.1170    0.0000 C.ar    1  LIG1       -0.0038
@<TRIPOS>BOND
     1     1     2    1
     2     1     7    1
     3     1    24    1
     4     1    25    1
     5     2     3    2
     6     2     4    1
     7     4     5    1
     8     5     6    1
     9     7     8    1
    10     8     9    1
    11     9    10    1
    12     9    23    1
    13    10    11    1
    14    11    12   am
    15    11    22    2
    16    12    13    1
    17    13    14   ar
    18    13    18   ar
    19    14    15   ar
    20    15    16   ar
    21    15    21    1
    22    16    17   ar
    23    17    18   ar
    24    18    19    1
    25    19    20    1
    26    23    24    1
    27    25    26   ar
    28    25    30   ar
    29    26    27   ar
    30    27    28   ar
    31    28    29   ar
    32    29    30   ar
