@<TRIPOS>MOLECULE
30626_ChemDiv_5324-0025
 22 25 0 0 0
SMALL
GASTEIGER
Energy = 0

@<TRIPOS>ATOM
      1 C          -0.2080    0.7130    0.0000 C.3     1  LIG1        0.0920
      2 C           0.4880    0.0130    0.0000 C.3     1  LIG1        0.1748
      3 C          -0.2210   -0.6830    0.0000 C.ar    1  LIG1        0.0386
      4 S          -0.1750   -1.7080    0.0000 S.2     1  LIG1       -0.0881
      5 C          -1.1000   -2.0330    0.0000 C.ar    1  LIG1        0.0352
      6 C          -1.7040   -1.2630    0.0000 C.ar    1  LIG1        0.0072
      7 C          -1.1750   -0.4210    0.0000 C.ar    1  LIG1        0.0054
      8 C           1.1960   -0.7210    0.0000 C.ar    1  LIG1        0.0096
      9 C           2.1670   -0.4630    0.0000 C.ar    1  LIG1       -0.0016
     10 C           2.8750   -1.1580    0.0000 C.ar    1  LIG1       -0.0002
     11 C           2.6130   -2.1080    0.0000 C.ar    1  LIG1       -0.0000
     12 C           1.6290   -2.3630    0.0000 C.ar    1  LIG1       -0.0002
     13 C           0.9290   -1.6670    0.0000 C.ar    1  LIG1       -0.0016
     14 O           1.2210    0.7130    0.0000 O.3     1  LIG1       -0.2159
     15 C          -1.1830    0.4670    0.0000 C.3     1  LIG1        0.1117
     16 N          -1.8880    1.1630    0.0000 N.4     1  LIG1        0.3016
     17 C          -0.9500    0.7830    0.0000 C.3     1  LIG1        0.1087
     18 C          -0.8040    1.9460    0.0000 C.3     1  LIG1        0.0615
     19 C           0.0580    1.6710    0.0000 C.3     1  LIG1        0.0205
     20 C          -0.6380    2.3670    0.0000 C.3     1  LIG1        0.0615
     21 C          -1.6130    2.1130    0.0000 C.3     1  LIG1        0.1087
     22 C          -2.8790    1.2250    0.0000 C.3     1  LIG1        0.1704
@<TRIPOS>BOND
     1     1     2    1
     2     1    15    1
     3     1    19    1
     4     2     3    1
     5     2     8    1
     6     2    14    1
     7     3     4   ar
     8     3     7   ar
     9     4     5   ar
    10     5     6   ar
    11     6     7   ar
    12     8     9   ar
    13     8    13   ar
    14     9    10   ar
    15    10    11   ar
    16    11    12   ar
    17    12    13   ar
    18    15    16    1
    19    16    17    1
    20    16    21    1
    21    16    22    1
    22    17    18    1
    23    18    19    1
    24    19    20    1
    25    20    21    1
