@<TRIPOS>MOLECULE
30620_ChemDiv_8012-6242
 28 30 0 0 0
SMALL
GASTEIGER
Energy = 0

@<TRIPOS>ATOM
      1 C           2.2500    0.6380    0.0000 C.3     1  LIG1        0.1198
      2 C           2.8250   -0.1960    0.0000 C.2     1  LIG1        0.3202
      3 O           3.8000   -0.1170    0.0000 O.2     1  LIG1       -0.2498
      4 O           2.3880   -1.0580    0.0000 O.3     1  LIG1       -0.4483
      5 C           2.9250   -1.8540    0.0000 C.3     1  LIG1        0.2086
      6 C           2.5000   -2.7830    0.0000 C.3     1  LIG1        0.0513
      7 C           1.4130    0.0580    0.0000 C.3     1  LIG1        0.0776
      8 C           0.5250    0.5000    0.0000 C.3     1  LIG1        0.1401
      9 N           0.4460    1.5250    0.0000 N.4     1  LIG1        0.3845
     10 C          -0.4500    2.0290    0.0000 C.3     1  LIG1        0.2269
     11 C          -1.3290    1.5130    0.0000 C.2     1  LIG1        0.3033
     12 N          -2.1750    2.0170    0.0000 N.am    1  LIG1       -0.1742
     13 C          -3.0250    1.5000    0.0000 C.ar    1  LIG1        0.0741
     14 C          -3.0380    0.5080    0.0000 C.ar    1  LIG1        0.0233
     15 C          -3.9000    0.0130    0.0000 C.ar    1  LIG1        0.0359
     16 BR         -3.9000   -0.9790    0.0000 Br      1  LIG1       -0.0490
     17 C          -4.7790    0.5290    0.0000 C.ar    1  LIG1        0.0068
     18 C          -4.7580    1.5130    0.0000 C.ar    1  LIG1        0.0018
     19 C          -3.9000    2.0290    0.0000 C.ar    1  LIG1        0.0166
     20 O          -1.2960    0.5080    0.0000 O.2     1  LIG1       -0.2665
     21 C           1.2580    2.0630    0.0000 C.3     1  LIG1        0.1401
     22 C           2.1710    1.6380    0.0000 C.3     1  LIG1        0.0776
     23 C           3.0500    1.2000    0.0000 C.ar    1  LIG1       -0.0124
     24 C           2.9790    2.2040    0.0000 C.ar    1  LIG1       -0.0038
     25 C           3.8210    2.7880    0.0000 C.ar    1  LIG1       -0.0003
     26 C           4.7080    2.3420    0.0000 C.ar    1  LIG1       -0.0000
     27 C           4.7750    1.3420    0.0000 C.ar    1  LIG1       -0.0003
     28 C           3.9750    0.7750    0.0000 C.ar    1  LIG1       -0.0038
@<TRIPOS>BOND
     1     1     2    1
     2     1     7    1
     3     1    22    1
     4     1    23    1
     5     2     3    2
     6     2     4    1
     7     4     5    1
     8     5     6    1
     9     7     8    1
    10     8     9    1
    11     9    10    1
    12     9    21    1
    13    10    11    1
    14    11    12   am
    15    11    20    2
    16    12    13    1
    17    13    14   ar
    18    13    19   ar
    19    14    15   ar
    20    15    16    1
    21    15    17   ar
    22    17    18   ar
    23    18    19   ar
    24    21    22    1
    25    23    24   ar
    26    23    28   ar
    27    24    25   ar
    28    25    26   ar
    29    26    27   ar
    30    27    28   ar
