@<TRIPOS>MOLECULE
30629_ChemDiv_4903-2209
 32 35 0 0 0
SMALL
GASTEIGER
Energy = 0

@<TRIPOS>ATOM
      1 S          -0.8170    2.5380    0.0000 S.O2    1  LIG1       -0.0581
      2 C          -1.6960    2.0170    0.0000 C.ar    1  LIG1        0.0854
      3 C          -1.6960    1.0250    0.0000 C.ar    1  LIG1        0.0181
      4 C          -2.5630    0.5130    0.0000 C.ar    1  LIG1        0.0206
      5 C          -2.5630   -0.5080    0.0000 C.ar    1  LIG1        0.1031
      6 N          -1.6960   -1.0040    0.0000 N.ar    1  LIG1       -0.1449
      7 N          -1.6960   -1.9960    0.0000 N.ar    1  LIG1       -0.1055
      8 C          -2.5630   -2.4920    0.0000 C.ar    1  LIG1        0.2967
      9 C          -3.4420   -1.9960    0.0000 C.ar    1  LIG1        0.0608
     10 C          -3.4420   -1.0040    0.0000 C.ar    1  LIG1        0.0241
     11 C          -4.2880   -0.5080    0.0000 C.ar    1  LIG1        0.0017
     12 C          -5.1670   -1.0040    0.0000 C.ar    1  LIG1        0.0001
     13 C          -5.1670   -1.9960    0.0000 C.ar    1  LIG1        0.0002
     14 C          -4.2880   -2.4920    0.0000 C.ar    1  LIG1        0.0049
     15 O          -2.5630   -3.5000    0.0000 O.2     1  LIG1       -0.2636
     16 C          -3.4420    1.0040    0.0000 C.ar    1  LIG1        0.0013
     17 C          -3.4420    2.0170    0.0000 C.ar    1  LIG1       -0.0030
     18 C          -2.5630    2.5170    0.0000 C.ar    1  LIG1       -0.0061
     19 C          -2.5630    3.5040    0.0000 C.3     1  LIG1        0.0323
     20 N           0.0500    3.0500    0.0000 N.pl3   1  LIG1       -0.5358
     21 C           0.9210    2.5580    0.0000 C.ar    1  LIG1       -0.1122
     22 C           1.7790    3.0500    0.0000 C.ar    1  LIG1       -0.0225
     23 C           2.6460    2.5580    0.0000 C.ar    1  LIG1        0.0147
     24 C           2.6460    1.5710    0.0000 C.ar    1  LIG1        0.0732
     25 N           3.5040    1.0880    0.0000 N.am    1  LIG1       -0.1792
     26 C           4.3580    1.5790    0.0000 C.2     1  LIG1        0.2461
     27 O           4.4920    2.6210    0.0000 O.2     1  LIG1       -0.2730
     28 C           5.1630    1.0880    0.0000 C.3     1  LIG1        0.0968
     29 C           1.7790    1.0710    0.0000 C.ar    1  LIG1        0.0147
     30 C           0.9210    1.5710    0.0000 C.ar    1  LIG1       -0.0225
     31 O          -0.3000    1.6630    0.0000 O.2     1  LIG1       -0.1842
     32 O          -1.3380    3.4040    0.0000 O.2     1  LIG1       -0.1842
@<TRIPOS>BOND
     1     1     2    1
     2     1    20    1
     3     1    31    2
     4     1    32    2
     5     2     3   ar
     6     2    18   ar
     7     3     4   ar
     8     4     5    1
     9     4    16   ar
    10     5     6   ar
    11     5    10   ar
    12     6     7   ar
    13     7     8   ar
    14     8     9   ar
    15     8    15    2
    16     9    10   ar
    17     9    14   ar
    18    10    11   ar
    19    11    12   ar
    20    12    13   ar
    21    13    14   ar
    22    16    17   ar
    23    17    18   ar
    24    18    19    1
    25    20    21    1
    26    21    22   ar
    27    21    30   ar
    28    22    23   ar
    29    23    24   ar
    30    24    25    1
    31    24    29   ar
    32    25    26   am
    33    26    27    2
    34    26    28    1
    35    29    30   ar
