@<TRIPOS>MOLECULE
30625_ChemDiv_6434-3646
 32 36 0 0 0
SMALL
GASTEIGER
Energy = 0

@<TRIPOS>ATOM
      1 S           0.8000   -2.5170    0.0000 S.O2    1  LIG1        0.0634
      2 N           0.7880   -1.5170    0.0000 N.3     1  LIG1       -0.1520
      3 C          -0.0790   -1.0170    0.0000 C.3     1  LIG1        0.1173
      4 C          -0.0790   -0.0130    0.0000 C.3     1  LIG1        0.1114
      5 N           0.7880    0.4880    0.0000 N.pl3   1  LIG1       -0.2889
      6 C           0.7880    1.5000    0.0000 C.ar    1  LIG1        0.1535
      7 N           1.6580    2.0000    0.0000 N.ar    1  LIG1       -0.1329
      8 N           1.6580    3.0000    0.0000 N.ar    1  LIG1       -0.1468
      9 C           0.7880    3.5000    0.0000 C.ar    1  LIG1        0.1029
     10 C          -0.0790    3.0000    0.0000 C.ar    1  LIG1        0.0221
     11 C          -0.0790    2.0000    0.0000 C.ar    1  LIG1        0.0349
     12 C          -0.9420    1.5000    0.0000 C.ar    1  LIG1        0.0029
     13 C          -1.8040    2.0000    0.0000 C.ar    1  LIG1        0.0001
     14 C          -1.8040    3.0000    0.0000 C.ar    1  LIG1        0.0001
     15 C          -0.9420    3.5000    0.0000 C.ar    1  LIG1        0.0016
     16 C           0.7960    4.4920    0.0000 C.ar    1  LIG1        0.0194
     17 C          -0.0790    4.9920    0.0000 C.ar    1  LIG1        0.0016
     18 C          -0.0790    6.0000    0.0000 C.ar    1  LIG1        0.0000
     19 C           0.7880    6.5000    0.0000 C.ar    1  LIG1        0.0000
     20 C           1.6580    6.0000    0.0000 C.ar    1  LIG1        0.0000
     21 C           1.6580    4.9920    0.0000 C.ar    1  LIG1        0.0016
     22 C           1.6500   -0.0130    0.0000 C.3     1  LIG1        0.1114
     23 C           1.6500   -1.0170    0.0000 C.3     1  LIG1        0.1173
     24 C           0.8130   -3.5130    0.0000 C.ar    1  LIG1        0.1222
     25 C          -0.0460   -4.0130    0.0000 C.ar    1  LIG1        0.0196
     26 C          -0.0380   -5.0130    0.0000 C.ar    1  LIG1       -0.0029
     27 C           0.8290   -5.5000    0.0000 C.ar    1  LIG1       -0.0218
     28 C           1.6960   -4.9920    0.0000 C.ar    1  LIG1       -0.0029
     29 C           1.6790   -3.9960    0.0000 C.ar    1  LIG1        0.0196
     30 C           0.8460   -6.5000    0.0000 C.3     1  LIG1        0.0310
     31 O           1.8000   -2.5000    0.0000 O.2     1  LIG1       -0.1528
     32 O          -0.2000   -2.5250    0.0000 O.2     1  LIG1       -0.1528
@<TRIPOS>BOND
     1     1     2    1
     2     1    24    1
     3     1    31    2
     4     1    32    2
     5     2     3    1
     6     2    23    1
     7     3     4    1
     8     4     5    1
     9     5     6    1
    10     5    22    1
    11     6     7   ar
    12     6    11   ar
    13     7     8   ar
    14     8     9   ar
    15     9    10   ar
    16     9    16    1
    17    10    11   ar
    18    10    15   ar
    19    11    12   ar
    20    12    13   ar
    21    13    14   ar
    22    14    15   ar
    23    16    17   ar
    24    16    21   ar
    25    17    18   ar
    26    18    19   ar
    27    19    20   ar
    28    20    21   ar
    29    22    23    1
    30    24    25   ar
    31    24    29   ar
    32    25    26   ar
    33    26    27   ar
    34    27    28   ar
    35    27    30    1
    36    28    29   ar
