@<TRIPOS>MOLECULE
30624_ChemDiv_8016-2547
 28 30 0 0 0
SMALL
GASTEIGER
Energy = 0

@<TRIPOS>ATOM
      1 C           2.2080    0.1790    0.0000 C.3     1  LIG1        0.1198
      2 C           2.9460    0.8750    0.0000 C.2     1  LIG1        0.3202
      3 O           2.7080    1.8330    0.0000 O.2     1  LIG1       -0.2498
      4 O           3.9040    0.5580    0.0000 O.3     1  LIG1       -0.4483
      5 C           4.6170    1.2580    0.0000 C.3     1  LIG1        0.2086
      6 C           5.5710    0.9670    0.0000 C.3     1  LIG1        0.0513
      7 C           2.2330    1.1830    0.0000 C.3     1  LIG1        0.0776
      8 C           1.3710    1.6830    0.0000 C.3     1  LIG1        0.1401
      9 N           0.4920    1.1830    0.0000 N.4     1  LIG1        0.3845
     10 C          -0.3670    1.6830    0.0000 C.3     1  LIG1        0.2269
     11 C          -1.2540    1.1830    0.0000 C.2     1  LIG1        0.3033
     12 N          -2.1080    1.6830    0.0000 N.am    1  LIG1       -0.1742
     13 C          -2.9710    1.1580    0.0000 C.ar    1  LIG1        0.0736
     14 C          -2.9710    0.1540    0.0000 C.ar    1  LIG1        0.0175
     15 C          -3.8290   -0.3460    0.0000 C.ar    1  LIG1        0.0127
     16 C          -4.6920    0.1540    0.0000 C.ar    1  LIG1        0.0578
     17 CL         -5.5750   -0.3460    0.0000 Cl      1  LIG1       -0.0822
     18 C          -4.6920    1.1580    0.0000 C.ar    1  LIG1        0.0127
     19 C          -3.8290    1.6540    0.0000 C.ar    1  LIG1        0.0175
     20 O          -1.2540    0.1790    0.0000 O.2     1  LIG1       -0.2665
     21 C           0.4920    0.1790    0.0000 C.3     1  LIG1        0.1401
     22 C           1.3460   -0.3170    0.0000 C.3     1  LIG1        0.0776
     23 C           3.0920   -0.3170    0.0000 C.ar    1  LIG1       -0.0124
     24 C           3.0920   -1.3210    0.0000 C.ar    1  LIG1       -0.0038
     25 C           3.9540   -1.8290    0.0000 C.ar    1  LIG1       -0.0003
     26 C           4.8080   -1.3210    0.0000 C.ar    1  LIG1       -0.0000
     27 C           4.8080   -0.3170    0.0000 C.ar    1  LIG1       -0.0003
     28 C           3.9540    0.1790    0.0000 C.ar    1  LIG1       -0.0038
@<TRIPOS>BOND
     1     1     2    1
     2     1     7    1
     3     1    22    1
     4     1    23    1
     5     2     3    2
     6     2     4    1
     7     4     5    1
     8     5     6    1
     9     7     8    1
    10     8     9    1
    11     9    10    1
    12     9    21    1
    13    10    11    1
    14    11    12   am
    15    11    20    2
    16    12    13    1
    17    13    14   ar
    18    13    19   ar
    19    14    15   ar
    20    15    16   ar
    21    16    17    1
    22    16    18   ar
    23    18    19   ar
    24    21    22    1
    25    23    24   ar
    26    23    28   ar
    27    24    25   ar
    28    25    26   ar
    29    26    27   ar
    30    27    28   ar
