@<TRIPOS>MOLECULE
30627_ChemDiv_4109-2069
 22 24 0 0 0
SMALL
GASTEIGER
Energy = 0

@<TRIPOS>ATOM
      1 S           1.7040    2.5250    0.0000 S.O2    1  LIG1        0.0932
      2 C           0.8540    2.0250    0.0000 C.ar    1  LIG1        0.1211
      3 C           0.8580    1.0170    0.0000 C.ar    1  LIG1        0.0212
      4 C          -0.0040    0.5170    0.0000 C.ar    1  LIG1        0.0207
      5 C           0.0130   -0.4920    0.0000 C.ar    1  LIG1        0.1031
      6 N           0.8880   -0.9960    0.0000 N.ar    1  LIG1       -0.1449
      7 N           0.9040   -2.0040    0.0000 N.ar    1  LIG1       -0.1055
      8 C           0.0420   -2.5040    0.0000 C.ar    1  LIG1        0.2967
      9 C          -0.8330   -2.0210    0.0000 C.ar    1  LIG1        0.0608
     10 C          -0.8460   -1.0210    0.0000 C.ar    1  LIG1        0.0241
     11 C          -1.7080   -0.5040    0.0000 C.ar    1  LIG1        0.0017
     12 C          -2.5670   -1.0210    0.0000 C.ar    1  LIG1        0.0001
     13 C          -2.5670   -2.0210    0.0000 C.ar    1  LIG1        0.0002
     14 C          -1.7080   -2.5130    0.0000 C.ar    1  LIG1        0.0049
     15 O           0.0540   -3.5000    0.0000 O.2     1  LIG1       -0.2636
     16 C          -0.8670    0.9960    0.0000 C.ar    1  LIG1        0.0013
     17 C          -0.8920    1.9920    0.0000 C.ar    1  LIG1       -0.0029
     18 C          -0.0210    2.5080    0.0000 C.ar    1  LIG1       -0.0031
     19 C          -0.0380    3.5040    0.0000 C.3     1  LIG1        0.0324
     20 O           1.2040    3.3960    0.0000 O.2     1  LIG1       -0.1503
     21 O           2.2000    1.6670    0.0000 O.2     1  LIG1       -0.1503
     22 N           2.5630    3.0330    0.0000 N.3     1  LIG1        0.0392
@<TRIPOS>BOND
     1     1     2    1
     2     1    20    2
     3     1    21    2
     4     1    22    1
     5     2     3   ar
     6     2    18   ar
     7     3     4   ar
     8     4     5    1
     9     4    16   ar
    10     5     6   ar
    11     5    10   ar
    12     6     7   ar
    13     7     8   ar
    14     8     9   ar
    15     8    15    2
    16     9    10   ar
    17     9    14   ar
    18    10    11   ar
    19    11    12   ar
    20    12    13   ar
    21    13    14   ar
    22    16    17   ar
    23    17    18   ar
    24    18    19    1
