@<TRIPOS>MOLECULE
30636_ChemDiv_4286-0206
 18 20 0 0 0
SMALL
GASTEIGER
Energy = 0

@<TRIPOS>ATOM
      1 C           0.3170    0.4500    0.0000 C.ar    1  LIG1        0.0749
      2 C           0.3170   -0.4630    0.0000 C.ar    1  LIG1        0.1515
      3 O          -0.4880   -0.9330    0.0000 O.2     1  LIG1       -0.4529
      4 C          -1.3130   -0.4630    0.0000 C.ar    1  LIG1        0.1487
      5 C          -1.3130    0.4500    0.0000 C.ar    1  LIG1        0.0776
      6 C          -2.1290    0.9130    0.0000 C.ar    1  LIG1        0.1422
      7 O          -2.1290    1.9210    0.0000 O.3     1  LIG1       -0.4713
      8 C          -1.2750    2.4000    0.0000 C.3     1  LIG1        0.2525
      9 C          -2.9500    0.4500    0.0000 C.ar    1  LIG1        0.0371
     10 C          -2.9500   -0.4630    0.0000 C.ar    1  LIG1        0.0062
     11 C          -2.1290   -0.9330    0.0000 C.ar    1  LIG1        0.0377
     12 C           1.1920   -0.9330    0.0000 C.ar    1  LIG1        0.0351
     13 C           1.2080   -1.9330    0.0000 C.ar    1  LIG1        0.0030
     14 C           2.1130   -2.3960    0.0000 C.ar    1  LIG1        0.0001
     15 C           2.9460   -1.8710    0.0000 C.ar    1  LIG1        0.0000
     16 C           2.9130   -0.8670    0.0000 C.ar    1  LIG1        0.0001
     17 C           2.0420   -0.4000    0.0000 C.ar    1  LIG1        0.0030
     18 BR          1.1920    0.9380    0.0000 Br      1  LIG1       -0.0456
@<TRIPOS>BOND
     1     1     2   ar
     2     1     5   ar
     3     1    18    1
     4     2     3   ar
     5     2    12    1
     6     3     4   ar
     7     4     5   ar
     8     4    11   ar
     9     5     6   ar
    10     6     7    1
    11     6     9   ar
    12     7     8    1
    13     9    10   ar
    14    10    11   ar
    15    12    13   ar
    16    12    17   ar
    17    13    14   ar
    18    14    15   ar
    19    15    16   ar
    20    16    17   ar
