@<TRIPOS>MOLECULE
30635_ChemDiv_4111-3796
 25 26 0 0 0
SMALL
GASTEIGER
Energy = 0

@<TRIPOS>ATOM
      1 C          -1.7130    0.5000    0.0000 C.2     1  LIG1        0.2414
      2 O          -1.7130   -0.5040    0.0000 O.2     1  LIG1       -0.2733
      3 N          -2.6000    1.0040    0.0000 N.am    1  LIG1       -0.2051
      4 C          -3.4580    0.5080    0.0000 C.3     1  LIG1        0.1195
      5 C          -4.3080    1.0000    0.0000 C.3     1  LIG1        0.0451
      6 C          -5.2080    0.5000    0.0000 C.2     1  LIG1       -0.0467
      7 C          -5.1920   -0.4960    0.0000 C.2     1  LIG1       -0.0346
      8 C          -6.0380   -1.0080    0.0000 C.3     1  LIG1        0.0254
      9 C          -6.9080   -0.5210    0.0000 C.3     1  LIG1        0.0050
     10 C          -6.9130    0.4750    0.0000 C.3     1  LIG1        0.0047
     11 C          -6.0630    1.0000    0.0000 C.3     1  LIG1        0.0218
     12 C          -0.8670    1.0130    0.0000 C.3     1  LIG1        0.0873
     13 C           0.0040    0.5000    0.0000 C.3     1  LIG1        0.0192
     14 C           0.8670    1.0000    0.0000 C.3     1  LIG1        0.0873
     15 C           1.7250    0.4920    0.0000 C.2     1  LIG1        0.2414
     16 O           1.7250   -0.4880    0.0000 O.2     1  LIG1       -0.2733
     17 N           2.5830    1.0040    0.0000 N.am    1  LIG1       -0.2051
     18 C           3.4500    0.5000    0.0000 C.3     1  LIG1        0.1195
     19 C           4.3040    1.0040    0.0000 C.3     1  LIG1        0.0451
     20 C           5.1830    0.5000    0.0000 C.2     1  LIG1       -0.0467
     21 C           6.0380    1.0130    0.0000 C.2     1  LIG1       -0.0346
     22 C           6.9130    0.5330    0.0000 C.3     1  LIG1        0.0254
     23 C           6.9130   -0.4750    0.0000 C.3     1  LIG1        0.0050
     24 C           6.0710   -0.9920    0.0000 C.3     1  LIG1        0.0047
     25 C           5.1830   -0.4960    0.0000 C.3     1  LIG1        0.0218
@<TRIPOS>BOND
     1     1     2    2
     2     1     3   am
     3     1    12    1
     4     3     4    1
     5     4     5    1
     6     5     6    1
     7     6     7    2
     8     6    11    1
     9     7     8    1
    10     8     9    1
    11     9    10    1
    12    10    11    1
    13    12    13    1
    14    13    14    1
    15    14    15    1
    16    15    16    2
    17    15    17   am
    18    17    18    1
    19    18    19    1
    20    19    20    1
    21    20    21    2
    22    20    25    1
    23    21    22    1
    24    22    23    1
    25    23    24    1
    26    24    25    1
