@<TRIPOS>MOLECULE
30632_ChemDiv_4286-0129
 21 25 0 0 0
SMALL
GASTEIGER
Energy = 0

@<TRIPOS>ATOM
      1 C           0.6040   -0.1830    0.0000 C.3     1  LIG1        0.0896
      2 C          -0.2040   -0.6580    0.0000 C.2     1  LIG1        0.3160
      3 O          -1.0040   -0.1960    0.0000 O.3     1  LIG1       -0.4460
      4 C          -1.8130   -0.6630    0.0000 C.3     1  LIG1        0.2253
      5 C          -1.8130   -1.6000    0.0000 C.3     1  LIG1        0.1827
      6 N          -2.6210   -2.0460    0.0000 N.4     1  LIG1        0.3801
      7 C          -2.9170   -0.9750    0.0000 C.3     1  LIG1        0.1388
      8 C          -2.1460   -1.1500    0.0000 C.3     1  LIG1        0.0667
      9 C          -2.6130   -0.1960    0.0000 C.3     1  LIG1        0.0581
     10 C          -3.4040   -0.6580    0.0000 C.3     1  LIG1        0.0667
     11 C          -3.4210   -1.5880    0.0000 C.3     1  LIG1        0.1388
     12 O          -0.2040   -1.5750    0.0000 O.2     1  LIG1       -0.2501
     13 C           1.3960   -0.6580    0.0000 C.3     1  LIG1        0.0106
     14 C           2.2080   -0.1960    0.0000 C.3     1  LIG1        0.0005
     15 C           2.2080    0.7290    0.0000 C.3     1  LIG1        0.0000
     16 C           1.3960    1.1960    0.0000 C.3     1  LIG1        0.0005
     17 C           0.6040    0.7420    0.0000 C.3     1  LIG1        0.0106
     18 C           1.8420    2.0500    0.0000 C.3     1  LIG1        0.0000
     19 C           1.8420    0.5170    0.0000 C.3     1  LIG1        0.0005
     20 C           1.0710    0.6830    0.0000 C.3     1  LIG1        0.0106
     21 C           3.4170   -0.1960    0.0000 C.3     1  LIG1        0.0000
@<TRIPOS>BOND
     1     1     2    1
     2     1    13    1
     3     1    17    1
     4     1    20    1
     5     2     3    1
     6     2    12    2
     7     3     4    1
     8     4     5    1
     9     4     9    1
    10     5     6    1
    11     6     7    1
    12     6    11    1
    13     7     8    1
    14     8     9    1
    15     9    10    1
    16    10    11    1
    17    13    14    1
    18    14    15    1
    19    14    21    1
    20    15    16    1
    21    16    17    1
    22    16    18    1
    23    18    19    1
    24    19    20    1
    25    19    21    1
