@<TRIPOS>MOLECULE
30633_ChemDiv_6216-0157
 30 33 0 0 0
SMALL
GASTEIGER
Energy = 0

@<TRIPOS>ATOM
      1 S          -0.4500    2.5080    0.0000 S.O2    1  LIG1        0.0767
      2 C          -1.3250    2.0000    0.0000 C.ar    1  LIG1        0.1196
      3 C          -1.3250    0.9960    0.0000 C.ar    1  LIG1        0.0212
      4 C          -2.1880    0.5000    0.0000 C.ar    1  LIG1        0.0207
      5 C          -2.1880   -0.5000    0.0000 C.ar    1  LIG1        0.1031
      6 N          -1.3250   -0.9960    0.0000 N.ar    1  LIG1       -0.1449
      7 N          -1.3250   -1.9960    0.0000 N.ar    1  LIG1       -0.1055
      8 C          -2.1880   -2.4920    0.0000 C.ar    1  LIG1        0.2967
      9 C          -3.0500   -1.9960    0.0000 C.ar    1  LIG1        0.0608
     10 C          -3.0500   -0.9960    0.0000 C.ar    1  LIG1        0.0241
     11 C          -3.9080   -0.5000    0.0000 C.ar    1  LIG1        0.0017
     12 C          -4.7750   -1.0080    0.0000 C.ar    1  LIG1        0.0001
     13 C          -4.7750   -1.9960    0.0000 C.ar    1  LIG1        0.0002
     14 C          -3.9080   -2.4920    0.0000 C.ar    1  LIG1        0.0049
     15 O          -2.1880   -3.4920    0.0000 O.2     1  LIG1       -0.2636
     16 C          -3.0500    0.9960    0.0000 C.ar    1  LIG1        0.0013
     17 C          -3.0500    2.0000    0.0000 C.ar    1  LIG1       -0.0029
     18 C          -2.1880    2.4960    0.0000 C.ar    1  LIG1       -0.0032
     19 C          -2.1880    3.4960    0.0000 C.3     1  LIG1        0.0324
     20 O           0.0580    1.6380    0.0000 O.2     1  LIG1       -0.1516
     21 O          -0.9630    3.3830    0.0000 O.2     1  LIG1       -0.1516
     22 N           0.4210    3.0210    0.0000 N.3     1  LIG1       -0.0714
     23 C           1.2880    2.5210    0.0000 C.3     1  LIG1        0.1778
     24 C           2.1500    3.0210    0.0000 C.3     1  LIG1        0.1600
     25 N           3.0250    2.5290    0.0000 N.4     1  LIG1        0.3824
     26 C           3.0250    1.5290    0.0000 C.3     1  LIG1        0.1714
     27 C           3.8830    1.0330    0.0000 C.3     1  LIG1        0.2047
     28 O           4.7710    1.5420    0.0000 O.3     1  LIG1       -0.3411
     29 C           4.7630    2.5420    0.0000 C.3     1  LIG1        0.2047
     30 C           3.8830    3.0380    0.0000 C.3     1  LIG1        0.1714
@<TRIPOS>BOND
     1     1     2    1
     2     1    20    2
     3     1    21    2
     4     1    22    1
     5     2     3   ar
     6     2    18   ar
     7     3     4   ar
     8     4     5    1
     9     4    16   ar
    10     5     6   ar
    11     5    10   ar
    12     6     7   ar
    13     7     8   ar
    14     8     9   ar
    15     8    15    2
    16     9    10   ar
    17     9    14   ar
    18    10    11   ar
    19    11    12   ar
    20    12    13   ar
    21    13    14   ar
    22    16    17   ar
    23    17    18   ar
    24    18    19    1
    25    22    23    1
    26    23    24    1
    27    24    25    1
    28    25    26    1
    29    25    30    1
    30    26    27    1
    31    27    28    1
    32    28    29    1
    33    29    30    1
