@<TRIPOS>MOLECULE
30631_ChemDiv_5498-2725
 25 27 0 0 0
SMALL
GASTEIGER
Energy = 0

@<TRIPOS>ATOM
      1 N           0.4290   -1.5040    0.0000 N.ar    1  LIG1       -0.1668
      2 N           0.4290   -2.5000    0.0000 N.ar    1  LIG1       -0.2146
      3 C          -0.4580   -2.9960    0.0000 C.ar    1  LIG1        0.2764
      4 C          -1.3210   -2.5000    0.0000 C.ar    1  LIG1        0.0591
      5 C          -1.3210   -1.5040    0.0000 C.ar    1  LIG1        0.0240
      6 C          -0.4580   -1.0080    0.0000 C.ar    1  LIG1        0.1011
      7 C          -0.4580   -0.0130    0.0000 C.ar    1  LIG1        0.0207
      8 C           0.4290    0.4920    0.0000 C.ar    1  LIG1        0.0212
      9 C           0.4290    1.4790    0.0000 C.ar    1  LIG1        0.1196
     10 S           1.2830    2.0000    0.0000 S.O2    1  LIG1        0.0765
     11 O           0.7880    2.8630    0.0000 O.2     1  LIG1       -0.1516
     12 O           1.8040    1.1170    0.0000 O.2     1  LIG1       -0.1516
     13 N           2.1670    2.4960    0.0000 N.3     1  LIG1       -0.0778
     14 C           2.1670    3.5000    0.0000 C.3     1  LIG1        0.1155
     15 C           3.0290    3.9960    0.0000 C.3     1  LIG1        0.0224
     16 C          -0.4580    1.9790    0.0000 C.ar    1  LIG1       -0.0032
     17 C          -1.3210    1.4790    0.0000 C.ar    1  LIG1       -0.0029
     18 C          -1.3210    0.4920    0.0000 C.ar    1  LIG1        0.0013
     19 C          -0.4580    2.9790    0.0000 C.3     1  LIG1        0.0324
     20 C          -2.1710   -1.0080    0.0000 C.ar    1  LIG1        0.0017
     21 C          -3.0330   -1.5040    0.0000 C.ar    1  LIG1        0.0001
     22 C          -3.0330   -2.5000    0.0000 C.ar    1  LIG1        0.0002
     23 C          -2.1710   -2.9960    0.0000 C.ar    1  LIG1        0.0048
     24 O          -0.4580   -3.9920    0.0000 O.2     1  LIG1       -0.2655
     25 C           1.2830   -3.0170    0.0000 C.3     1  LIG1        0.1571
@<TRIPOS>BOND
     1     1     2   ar
     2     1     6   ar
     3     2     3   ar
     4     2    25    1
     5     3     4   ar
     6     3    24    2
     7     4     5   ar
     8     4    23   ar
     9     5     6   ar
    10     5    20   ar
    11     6     7    1
    12     7     8   ar
    13     7    18   ar
    14     8     9   ar
    15     9    10    1
    16     9    16   ar
    17    10    11    2
    18    10    12    2
    19    10    13    1
    20    13    14    1
    21    14    15    1
    22    16    17   ar
    23    16    19    1
    24    17    18   ar
    25    20    21   ar
    26    21    22   ar
    27    22    23   ar
