@<TRIPOS>MOLECULE
30649_ChemDiv_5590-0102
 27 29 0 0 0
SMALL
GASTEIGER
Energy = 0

@<TRIPOS>ATOM
      1 C           0.8170    1.0670    0.0000 C.ar    1  LIG1        0.0214
      2 C           1.6790    0.6080    0.0000 C.3     1  LIG1        0.2133
      3 O           2.5250    1.1460    0.0000 O.3     1  LIG1       -0.4428
      4 C           2.4960    2.1170    0.0000 C.2     1  LIG1        0.3220
      5 C           1.5960    2.6040    0.0000 C.3     1  LIG1        0.1358
      6 C           0.7670    2.0580    0.0000 C.ar    1  LIG1       -0.0082
      7 C          -0.1460    2.5040    0.0000 C.ar    1  LIG1        0.0361
      8 C          -1.0040    1.9630    0.0000 C.ar    1  LIG1        0.1719
      9 C          -0.9630    0.9880    0.0000 C.ar    1  LIG1        0.1720
     10 C          -0.0380    0.5290    0.0000 C.ar    1  LIG1        0.0393
     11 O          -1.8170    0.4540    0.0000 O.3     1  LIG1       -0.4724
     12 C          -2.7330    0.8920    0.0000 C.3     1  LIG1        0.2057
     13 C          -3.5880    0.3670    0.0000 C.3     1  LIG1        0.0512
     14 O          -1.9170    2.4130    0.0000 O.3     1  LIG1       -0.4724
     15 C          -1.9540    3.4000    0.0000 C.3     1  LIG1        0.2057
     16 C          -2.8670    3.8250    0.0000 C.3     1  LIG1        0.0512
     17 O           3.3500    2.6580    0.0000 O.2     1  LIG1       -0.2497
     18 C           1.7290   -0.3830    0.0000 C.ar    1  LIG1        0.0248
     19 C           2.6040   -0.8380    0.0000 C.ar    1  LIG1        0.0396
     20 C           2.6500   -1.8290    0.0000 C.ar    1  LIG1        0.1722
     21 C           1.8080   -2.3540    0.0000 C.ar    1  LIG1        0.1724
     22 C           0.9210   -1.9040    0.0000 C.ar    1  LIG1        0.0398
     23 C           0.8960   -0.9130    0.0000 C.ar    1  LIG1        0.0028
     24 O           1.8330   -3.3540    0.0000 O.3     1  LIG1       -0.4684
     25 C           2.7290   -3.8210    0.0000 C.3     1  LIG1        0.2526
     26 O           3.5380   -2.2960    0.0000 O.3     1  LIG1       -0.4684
     27 C           3.5830   -3.2830    0.0000 C.3     1  LIG1        0.2526
@<TRIPOS>BOND
     1     1     2    1
     2     1     6   ar
     3     1    10   ar
     4     2     3    1
     5     2    18    1
     6     3     4    1
     7     4     5    1
     8     4    17    2
     9     5     6    1
    10     6     7   ar
    11     7     8   ar
    12     8     9   ar
    13     8    14    1
    14     9    10   ar
    15     9    11    1
    16    11    12    1
    17    12    13    1
    18    14    15    1
    19    15    16    1
    20    18    19   ar
    21    18    23   ar
    22    19    20   ar
    23    20    21   ar
    24    20    26    1
    25    21    22   ar
    26    21    24    1
    27    22    23   ar
    28    24    25    1
    29    26    27    1
