@<TRIPOS>MOLECULE
30641_ChemDiv_4192-0617
 19 21 0 0 0
SMALL
GASTEIGER
Energy = 0

@<TRIPOS>ATOM
      1 C           0.0080    0.2330    0.0000 C.ar    1  LIG1       -0.0100
      2 C           0.8630    0.7290    0.0000 C.3     1  LIG1        0.1082
      3 C           1.7290    0.2330    0.0000 C.2     1  LIG1        0.3201
      4 O           1.7290   -0.7580    0.0000 O.3     1  LIG1       -0.4433
      5 C           0.8750   -1.2670    0.0000 C.3     1  LIG1        0.2348
      6 C           0.0080   -0.7630    0.0000 C.ar    1  LIG1        0.0210
      7 C          -0.8580   -1.2670    0.0000 C.ar    1  LIG1        0.0391
      8 C          -1.7170   -0.7790    0.0000 C.ar    1  LIG1        0.1722
      9 C          -1.7330    0.2170    0.0000 C.ar    1  LIG1        0.1721
     10 C          -0.8670    0.7210    0.0000 C.ar    1  LIG1        0.0361
     11 O          -2.5960    0.7210    0.0000 O.3     1  LIG1       -0.4684
     12 C          -2.5960    1.7210    0.0000 C.3     1  LIG1        0.2526
     13 O          -2.5960   -1.2790    0.0000 O.3     1  LIG1       -0.4684
     14 C          -2.5960   -2.2790    0.0000 C.3     1  LIG1        0.2526
     15 O           2.5920    0.7290    0.0000 O.2     1  LIG1       -0.2498
     16 C           1.6790    1.3290    0.0000 C.3     1  LIG1        0.0147
     17 C           1.3630    2.2830    0.0000 C.3     1  LIG1        0.0009
     18 C           0.3540    2.2830    0.0000 C.3     1  LIG1        0.0009
     19 C           0.0540    1.3290    0.0000 C.3     1  LIG1        0.0147
@<TRIPOS>BOND
     1     1     2    1
     2     1     6   ar
     3     1    10   ar
     4     2     3    1
     5     2    16    1
     6     2    19    1
     7     3     4    1
     8     3    15    2
     9     4     5    1
    10     5     6    1
    11     6     7   ar
    12     7     8   ar
    13     8     9   ar
    14     8    13    1
    15     9    10   ar
    16     9    11    1
    17    11    12    1
    18    13    14    1
    19    16    17    1
    20    17    18    1
    21    18    19    1
