@<TRIPOS>MOLECULE
30647_ChemDiv_5590-0100
 26 28 0 0 0
SMALL
GASTEIGER
Energy = 0

@<TRIPOS>ATOM
      1 C           0.9250    1.5830    0.0000 C.ar    1  LIG1        0.0214
      2 C           0.8880    2.5670    0.0000 C.ar    1  LIG1       -0.0082
      3 C          -0.0330    3.0170    0.0000 C.ar    1  LIG1        0.0361
      4 C          -0.8920    2.4710    0.0000 C.ar    1  LIG1        0.1719
      5 C          -0.8460    1.4880    0.0000 C.ar    1  LIG1        0.1720
      6 C           0.0630    1.0380    0.0000 C.ar    1  LIG1        0.0393
      7 O          -1.7000    0.9630    0.0000 O.3     1  LIG1       -0.4724
      8 C          -2.6130    1.4080    0.0000 C.3     1  LIG1        0.2057
      9 C          -3.4710    0.8830    0.0000 C.3     1  LIG1        0.0512
     10 O          -1.7960    2.9170    0.0000 O.3     1  LIG1       -0.4724
     11 C          -1.8380    3.8960    0.0000 C.3     1  LIG1        0.2057
     12 C          -2.7580    4.3710    0.0000 C.3     1  LIG1        0.0512
     13 C           1.7040    3.1130    0.0000 C.3     1  LIG1        0.1358
     14 C           2.6080    2.6460    0.0000 C.2     1  LIG1        0.3220
     15 O           2.6330    1.6420    0.0000 O.3     1  LIG1       -0.4428
     16 C           1.8000    1.1170    0.0000 C.3     1  LIG1        0.2132
     17 C           1.8500    0.1170    0.0000 C.ar    1  LIG1        0.0218
     18 C           1.0040   -0.4040    0.0000 C.ar    1  LIG1        0.0026
     19 C           1.0420   -1.3920    0.0000 C.ar    1  LIG1        0.0367
     20 C           1.9290   -1.8580    0.0000 C.ar    1  LIG1        0.1385
     21 C           2.7670   -1.3210    0.0000 C.ar    1  LIG1        0.0367
     22 C           2.7130   -0.3290    0.0000 C.ar    1  LIG1        0.0026
     23 O           1.9540   -2.8500    0.0000 O.3     1  LIG1       -0.4755
     24 C           1.1210   -3.3790    0.0000 C.3     1  LIG1        0.2055
     25 C           1.1580   -4.3710    0.0000 C.3     1  LIG1        0.0512
     26 O           3.4670    3.1710    0.0000 O.2     1  LIG1       -0.2497
@<TRIPOS>BOND
     1     1     2   ar
     2     1     6   ar
     3     1    16    1
     4     2     3   ar
     5     2    13    1
     6     3     4   ar
     7     4     5   ar
     8     4    10    1
     9     5     6   ar
    10     5     7    1
    11     7     8    1
    12     8     9    1
    13    10    11    1
    14    11    12    1
    15    13    14    1
    16    14    15    1
    17    14    26    2
    18    15    16    1
    19    16    17    1
    20    17    18   ar
    21    17    22   ar
    22    18    19   ar
    23    19    20   ar
    24    20    21   ar
    25    20    23    1
    26    21    22   ar
    27    23    24    1
    28    24    25    1
