@<TRIPOS>MOLECULE
30645_ChemDiv_5590-0096
 23 25 0 0 0
SMALL
GASTEIGER
Energy = 0

@<TRIPOS>ATOM
      1 C           0.9250    0.3250    0.0000 C.ar    1  LIG1        0.0214
      2 C           0.8880    1.3290    0.0000 C.ar    1  LIG1       -0.0082
      3 C          -0.0170    1.7580    0.0000 C.ar    1  LIG1        0.0361
      4 C          -0.8710    1.2330    0.0000 C.ar    1  LIG1        0.1719
      5 C          -0.8460    0.2500    0.0000 C.ar    1  LIG1        0.1720
      6 C           0.0710   -0.2000    0.0000 C.ar    1  LIG1        0.0393
      7 O          -1.7000   -0.2960    0.0000 O.3     1  LIG1       -0.4724
      8 C          -2.6000    0.1630    0.0000 C.3     1  LIG1        0.2057
      9 C          -3.4710   -0.3750    0.0000 C.3     1  LIG1        0.0512
     10 O          -1.7960    1.6790    0.0000 O.3     1  LIG1       -0.4724
     11 C          -1.8380    2.6580    0.0000 C.3     1  LIG1        0.2057
     12 C          -2.7380    3.1000    0.0000 C.3     1  LIG1        0.0512
     13 C           1.7210    1.8750    0.0000 C.3     1  LIG1        0.1358
     14 C           2.6080    1.3880    0.0000 C.2     1  LIG1        0.3220
     15 O           2.6540    0.4040    0.0000 O.3     1  LIG1       -0.4428
     16 C           1.8170   -0.1420    0.0000 C.3     1  LIG1        0.2132
     17 C           1.8500   -1.1210    0.0000 C.ar    1  LIG1        0.0216
     18 C           1.0040   -1.6460    0.0000 C.ar    1  LIG1       -0.0005
     19 C           1.0540   -2.6330    0.0000 C.ar    1  LIG1       -0.0002
     20 C           1.9290   -3.0960    0.0000 C.ar    1  LIG1       -0.0000
     21 C           2.7670   -2.5580    0.0000 C.ar    1  LIG1       -0.0002
     22 C           2.7130   -1.5670    0.0000 C.ar    1  LIG1       -0.0005
     23 O           3.4670    1.9330    0.0000 O.2     1  LIG1       -0.2497
@<TRIPOS>BOND
     1     1     2   ar
     2     1     6   ar
     3     1    16    1
     4     2     3   ar
     5     2    13    1
     6     3     4   ar
     7     4     5   ar
     8     4    10    1
     9     5     6   ar
    10     5     7    1
    11     7     8    1
    12     8     9    1
    13    10    11    1
    14    11    12    1
    15    13    14    1
    16    14    15    1
    17    14    23    2
    18    15    16    1
    19    16    17    1
    20    17    18   ar
    21    17    22   ar
    22    18    19   ar
    23    19    20   ar
    24    20    21   ar
    25    21    22   ar
