@<TRIPOS>MOLECULE
30651_ChemDiv_5590-0103
 29 31 0 0 0
SMALL
GASTEIGER
Energy = 0

@<TRIPOS>ATOM
      1 C           0.8170    1.5960    0.0000 C.ar    1  LIG1        0.0214
      2 C           1.6790    1.1380    0.0000 C.3     1  LIG1        0.2133
      3 O           2.5290    1.6750    0.0000 O.3     1  LIG1       -0.4428
      4 C           2.4960    2.6460    0.0000 C.2     1  LIG1        0.3220
      5 C           1.5960    3.1330    0.0000 C.3     1  LIG1        0.1358
      6 C           0.7670    2.5880    0.0000 C.ar    1  LIG1       -0.0082
      7 C          -0.1460    3.0330    0.0000 C.ar    1  LIG1        0.0361
      8 C          -1.0040    2.4920    0.0000 C.ar    1  LIG1        0.1719
      9 C          -0.9630    1.5170    0.0000 C.ar    1  LIG1        0.1720
     10 C          -0.0380    1.0580    0.0000 C.ar    1  LIG1        0.0393
     11 O          -1.8210    0.9790    0.0000 O.3     1  LIG1       -0.4724
     12 C          -2.7330    1.4210    0.0000 C.3     1  LIG1        0.2057
     13 C          -3.5880    0.8960    0.0000 C.3     1  LIG1        0.0512
     14 O          -1.9170    2.9420    0.0000 O.3     1  LIG1       -0.4724
     15 C          -1.9540    3.9290    0.0000 C.3     1  LIG1        0.2057
     16 C          -2.8710    4.3500    0.0000 C.3     1  LIG1        0.0512
     17 O           3.3500    3.1880    0.0000 O.2     1  LIG1       -0.2497
     18 C           1.7290    0.1460    0.0000 C.ar    1  LIG1        0.0248
     19 C           2.6040   -0.3080    0.0000 C.ar    1  LIG1        0.0396
     20 C           2.6500   -1.3000    0.0000 C.ar    1  LIG1        0.1720
     21 C           1.8080   -1.8250    0.0000 C.ar    1  LIG1        0.1722
     22 C           0.9210   -1.3790    0.0000 C.ar    1  LIG1        0.0398
     23 C           0.8960   -0.3880    0.0000 C.ar    1  LIG1        0.0028
     24 O           1.8330   -2.8290    0.0000 O.3     1  LIG1       -0.4724
     25 C           1.0000   -3.3540    0.0000 C.3     1  LIG1        0.2057
     26 C           1.0500   -4.3500    0.0000 C.3     1  LIG1        0.0512
     27 O           3.5380   -1.7670    0.0000 O.3     1  LIG1       -0.4724
     28 C           3.5830   -2.7580    0.0000 C.3     1  LIG1        0.2057
     29 C           2.7290   -3.2960    0.0000 C.3     1  LIG1        0.0512
@<TRIPOS>BOND
     1     1     2    1
     2     1     6   ar
     3     1    10   ar
     4     2     3    1
     5     2    18    1
     6     3     4    1
     7     4     5    1
     8     4    17    2
     9     5     6    1
    10     6     7   ar
    11     7     8   ar
    12     8     9   ar
    13     8    14    1
    14     9    10   ar
    15     9    11    1
    16    11    12    1
    17    12    13    1
    18    14    15    1
    19    15    16    1
    20    18    19   ar
    21    18    23   ar
    22    19    20   ar
    23    20    21   ar
    24    20    27    1
    25    21    22   ar
    26    21    24    1
    27    22    23   ar
    28    24    25    1
    29    25    26    1
    30    27    28    1
    31    28    29    1
