@<TRIPOS>MOLECULE
30657_ChemDiv_4112-3109
 22 25 0 0 0
SMALL
GASTEIGER
Energy = 0

@<TRIPOS>ATOM
      1 C          -0.0130    0.4830    0.0000 C.ar    1  LIG1        0.1628
      2 N           0.8290   -0.0080    0.0000 N.ar    1  LIG1       -0.2967
      3 C           1.6670    0.4830    0.0000 C.ar    1  LIG1        0.1510
      4 C           1.6830    1.4630    0.0000 C.ar    1  LIG1        0.0896
      5 C          -0.0130    1.4630    0.0000 C.ar    1  LIG1        0.1210
      6 N          -0.8750    1.9460    0.0000 N.ar    1  LIG1       -0.2406
      7 C          -1.7040    1.4460    0.0000 C.ar    1  LIG1        0.0990
      8 C          -1.7040    0.4790    0.0000 C.ar    1  LIG1        0.1005
      9 N          -0.8630    0.0080    0.0000 N.ar    1  LIG1       -0.2252
     10 C          -2.5420    0.0080    0.0000 C.ar    1  LIG1        0.0207
     11 C          -3.3750    0.4830    0.0000 C.ar    1  LIG1        0.0016
     12 C          -3.3750    1.4460    0.0000 C.ar    1  LIG1        0.0016
     13 C          -2.5420    1.9330    0.0000 C.ar    1  LIG1        0.0206
     14 C           2.5330    1.9460    0.0000 C.ar    1  LIG1        0.1758
     15 N           3.3710    1.4460    0.0000 N.ar    1  LIG1       -0.2055
     16 C           3.3710    0.4790    0.0000 C.ar    1  LIG1        0.2015
     17 N           2.5290   -0.0080    0.0000 N.ar    1  LIG1       -0.2064
     18 N           2.5330    2.9170    0.0000 N.pl3   1  LIG1       -0.1070
     19 C           0.8290   -0.9880    0.0000 C.3     1  LIG1        0.1089
     20 C           0.0000   -1.4630    0.0000 C.3     1  LIG1        0.0246
     21 C           0.0000   -2.4210    0.0000 C.3     1  LIG1        0.0020
     22 C          -0.8250   -2.9130    0.0000 C.3     1  LIG1        0.0001
@<TRIPOS>BOND
     1     1     2   ar
     2     1     5   ar
     3     1     9   ar
     4     2     3   ar
     5     2    19    1
     6     3     4   ar
     7     3    17   ar
     8     4     5   ar
     9     4    14   ar
    10     5     6   ar
    11     6     7   ar
    12     7     8   ar
    13     7    13   ar
    14     8     9   ar
    15     8    10   ar
    16    10    11   ar
    17    11    12   ar
    18    12    13   ar
    19    14    15   ar
    20    14    18    1
    21    15    16   ar
    22    16    17   ar
    23    19    20    1
    24    20    21    1
    25    21    22    1
