@<TRIPOS>MOLECULE
30659_ChemDiv_4112-3392
 23 26 0 0 0
SMALL
GASTEIGER
Energy = 0

@<TRIPOS>ATOM
      1 C          -2.2170    0.2210    0.0000 C.ar    1  LIG1        0.0971
      2 C          -1.2460   -0.0040    0.0000 C.ar    1  LIG1        0.1070
      3 N          -0.8380   -0.9130    0.0000 N.ar    1  LIG1       -0.2210
      4 C           0.1750   -0.7960    0.0000 C.ar    1  LIG1        0.1835
      5 S           0.3790    0.1750    0.0000 S.2     1  LIG1       -0.0492
      6 C          -0.4790    0.6670    0.0000 C.ar    1  LIG1        0.0588
      7 N           0.8420   -1.5420    0.0000 N.pl3   1  LIG1       -0.1886
      8 C           1.8040   -1.2830    0.0000 C.ar    1  LIG1        0.0727
      9 C           2.0540   -0.3130    0.0000 C.ar    1  LIG1        0.0180
     10 C           3.0170   -0.0630    0.0000 C.ar    1  LIG1        0.0194
     11 C           3.7170   -0.7500    0.0000 C.ar    1  LIG1        0.0892
     12 N           4.6880   -0.4920    0.0000 N.pl3   1  LIG1       -0.1281
     13 C           3.4670   -1.7210    0.0000 C.ar    1  LIG1        0.0194
     14 C           2.5000   -1.9920    0.0000 C.ar    1  LIG1        0.0180
     15 N          -2.9630   -0.4630    0.0000 N.ar    1  LIG1       -0.2877
     16 C          -3.8290    0.0380    0.0000 C.ar    1  LIG1        0.1474
     17 N          -3.6290    1.0250    0.0000 N.ar    1  LIG1       -0.2307
     18 C          -2.6170    1.1290    0.0000 C.ar    1  LIG1        0.0785
     19 C          -2.1170    1.9960    0.0000 C.3     1  LIG1        0.0538
     20 C          -4.6920   -0.4750    0.0000 C.ar    1  LIG1        0.0374
     21 C          -4.6920   -1.4670    0.0000 C.ar    1  LIG1        0.0046
     22 C          -3.8290   -1.9670    0.0000 C.ar    1  LIG1        0.0191
     23 C          -2.9670   -1.4670    0.0000 C.ar    1  LIG1        0.0815
@<TRIPOS>BOND
     1     1     2    1
     2     1    15   ar
     3     1    18   ar
     4     2     3   ar
     5     2     6   ar
     6     3     4   ar
     7     4     5   ar
     8     4     7    1
     9     5     6   ar
    10     7     8    1
    11     8     9   ar
    12     8    14   ar
    13     9    10   ar
    14    10    11   ar
    15    11    12    1
    16    11    13   ar
    17    13    14   ar
    18    15    16   ar
    19    15    23   ar
    20    16    17   ar
    21    16    20   ar
    22    17    18   ar
    23    18    19    1
    24    20    21   ar
    25    21    22   ar
    26    22    23   ar
