@<TRIPOS>MOLECULE
30656_ChemDiv_4240-0358
 35 39 0 0 0
SMALL
GASTEIGER
Energy = 0

@<TRIPOS>ATOM
      1 S           0.4080   -2.9460    0.0000 S.O2    1  LIG1        0.0637
      2 N           1.2960   -2.4500    0.0000 N.3     1  LIG1       -0.1433
      3 C           1.2500   -1.4380    0.0000 C.3     1  LIG1        0.1585
      4 C           2.1210   -0.9000    0.0000 C.3     1  LIG1        0.1586
      5 N           3.0380   -1.3790    0.0000 N.4     1  LIG1        0.3830
      6 C           3.9290   -0.8790    0.0000 C.3     1  LIG1        0.1663
      7 C           3.9290    0.1580    0.0000 C.ar    1  LIG1        0.0345
      8 C           3.0960    0.6380    0.0000 C.ar    1  LIG1        0.0029
      9 C           3.0960    1.6210    0.0000 C.ar    1  LIG1        0.0171
     10 C           3.9290    2.0830    0.0000 C.ar    1  LIG1        0.0599
     11 N           3.7210    3.0630    0.0000 N.ar    1  LIG1       -0.3272
     12 C           2.7710    3.1380    0.0000 C.ar    1  LIG1        0.0599
     13 C           2.3790    2.3040    0.0000 C.ar    1  LIG1        0.0172
     14 C           1.3750    2.1920    0.0000 C.ar    1  LIG1        0.0015
     15 C           0.8420    2.9710    0.0000 C.ar    1  LIG1        0.0001
     16 C           1.2330    3.8580    0.0000 C.ar    1  LIG1        0.0015
     17 C           2.2130    3.9460    0.0000 C.ar    1  LIG1        0.0172
     18 C           4.3210    3.7750    0.0000 C.3     1  LIG1        0.1061
     19 C           5.2500    3.6500    0.0000 C.3     1  LIG1        0.0265
     20 C           4.7580    1.6000    0.0000 C.ar    1  LIG1        0.0171
     21 C           4.7750    0.6540    0.0000 C.ar    1  LIG1        0.0029
     22 C           3.0790   -2.3880    0.0000 C.3     1  LIG1        0.1586
     23 C           2.2080   -2.9330    0.0000 C.3     1  LIG1        0.1585
     24 C          -0.6130   -2.9880    0.0000 C.ar    1  LIG1        0.1223
     25 C          -1.1420   -3.8790    0.0000 C.ar    1  LIG1        0.0212
     26 C          -2.1540   -3.8790    0.0000 C.ar    1  LIG1        0.0180
     27 C          -2.6920   -3.0080    0.0000 C.ar    1  LIG1        0.0734
     28 N          -3.7080   -3.0080    0.0000 N.am    1  LIG1       -0.1792
     29 C          -4.2170   -2.1420    0.0000 C.2     1  LIG1        0.2461
     30 O          -3.7170   -1.2710    0.0000 O.2     1  LIG1       -0.2730
     31 C          -5.2540   -2.1670    0.0000 C.3     1  LIG1        0.0968
     32 C          -2.1960   -2.1040    0.0000 C.ar    1  LIG1        0.0180
     33 C          -1.1460   -2.0790    0.0000 C.ar    1  LIG1        0.0212
     34 O           0.9420   -3.8580    0.0000 O.2     1  LIG1       -0.1528
     35 O           0.1580   -3.9420    0.0000 O.2     1  LIG1       -0.1528
@<TRIPOS>BOND
     1     1     2    1
     2     1    24    1
     3     1    34    2
     4     1    35    2
     5     2     3    1
     6     2    23    1
     7     3     4    1
     8     4     5    1
     9     5     6    1
    10     5    22    1
    11     6     7    1
    12     7     8   ar
    13     7    21   ar
    14     8     9   ar
    15     9    10   ar
    16     9    13   ar
    17    10    11   ar
    18    10    20   ar
    19    11    12   ar
    20    11    18    1
    21    12    13   ar
    22    12    17   ar
    23    13    14   ar
    24    14    15   ar
    25    15    16   ar
    26    16    17   ar
    27    18    19    1
    28    20    21   ar
    29    22    23    1
    30    24    25   ar
    31    24    33   ar
    32    25    26   ar
    33    26    27   ar
    34    27    28    1
    35    27    32   ar
    36    28    29   am
    37    29    30    2
    38    29    31    1
    39    32    33   ar
