@<TRIPOS>MOLECULE
30653_ChemDiv_5590-0104
 24 26 0 0 0
SMALL
GASTEIGER
Energy = 0

@<TRIPOS>ATOM
      1 C           0.9250    0.8330    0.0000 C.ar    1  LIG1        0.0214
      2 C           0.8880    1.8290    0.0000 C.ar    1  LIG1       -0.0082
      3 C          -0.0330    2.2750    0.0000 C.ar    1  LIG1        0.0361
      4 C          -0.8920    1.7290    0.0000 C.ar    1  LIG1        0.1719
      5 C          -0.8460    0.7580    0.0000 C.ar    1  LIG1        0.1720
      6 C           0.0630    0.2960    0.0000 C.ar    1  LIG1        0.0393
      7 O          -1.7000    0.2210    0.0000 O.3     1  LIG1       -0.4724
      8 C          -2.6170    0.6580    0.0000 C.3     1  LIG1        0.2057
      9 C          -3.4710    0.1330    0.0000 C.3     1  LIG1        0.0512
     10 O          -1.8000    2.1830    0.0000 O.3     1  LIG1       -0.4724
     11 C          -1.8380    3.1500    0.0000 C.3     1  LIG1        0.2057
     12 C          -2.7580    3.5960    0.0000 C.3     1  LIG1        0.0512
     13 C           1.7040    2.3710    0.0000 C.3     1  LIG1        0.1358
     14 C           2.6130    1.8880    0.0000 C.2     1  LIG1        0.3220
     15 O           2.6380    0.9130    0.0000 O.3     1  LIG1       -0.4428
     16 C           1.8000    0.3750    0.0000 C.3     1  LIG1        0.2132
     17 C           1.8540   -0.6170    0.0000 C.ar    1  LIG1        0.0216
     18 C           1.0040   -1.1500    0.0000 C.ar    1  LIG1        0.0000
     19 C           1.0420   -2.1420    0.0000 C.ar    1  LIG1        0.0065
     20 C           1.9290   -2.5880    0.0000 C.ar    1  LIG1        0.0345
     21 C           2.7670   -2.0630    0.0000 C.ar    1  LIG1        0.0065
     22 C           2.7170   -1.0710    0.0000 C.ar    1  LIG1        0.0000
     23 BR          1.9540   -3.5920    0.0000 Br      1  LIG1       -0.0490
     24 O           3.4670    2.4290    0.0000 O.2     1  LIG1       -0.2497
@<TRIPOS>BOND
     1     1     2   ar
     2     1     6   ar
     3     1    16    1
     4     2     3   ar
     5     2    13    1
     6     3     4   ar
     7     4     5   ar
     8     4    10    1
     9     5     6   ar
    10     5     7    1
    11     7     8    1
    12     8     9    1
    13    10    11    1
    14    11    12    1
    15    13    14    1
    16    14    15    1
    17    14    24    2
    18    15    16    1
    19    16    17    1
    20    17    18   ar
    21    17    22   ar
    22    18    19   ar
    23    19    20   ar
    24    20    21   ar
    25    20    23    1
    26    21    22   ar
