@<TRIPOS>MOLECULE
30655_ChemDiv_8009-2685
 23 25 0 0 0
SMALL
GASTEIGER
Energy = 0

@<TRIPOS>ATOM
      1 C           0.4580    1.6500    0.0000 C.ar    1  LIG1        0.0214
      2 C           0.4580    2.6420    0.0000 C.ar    1  LIG1       -0.0082
      3 C          -0.4040    3.1540    0.0000 C.ar    1  LIG1        0.0361
      4 C          -1.2630    2.6420    0.0000 C.ar    1  LIG1        0.1721
      5 C          -1.2630    1.6500    0.0000 C.ar    1  LIG1        0.1722
      6 C          -0.4040    1.1500    0.0000 C.ar    1  LIG1        0.0393
      7 O          -2.1460    1.1500    0.0000 O.3     1  LIG1       -0.4684
      8 C          -3.0080    1.6500    0.0000 C.3     1  LIG1        0.2526
      9 O          -2.1460    3.1540    0.0000 O.3     1  LIG1       -0.4684
     10 C          -3.0080    2.6420    0.0000 C.3     1  LIG1        0.2526
     11 C           1.3170    3.1830    0.0000 C.3     1  LIG1        0.1358
     12 C           2.1960    2.7420    0.0000 C.2     1  LIG1        0.3220
     13 O           2.1750    1.6500    0.0000 O.3     1  LIG1       -0.4428
     14 C           1.3170    1.1330    0.0000 C.3     1  LIG1        0.2132
     15 C           1.3170    0.1420    0.0000 C.ar    1  LIG1        0.0218
     16 C           0.4580   -0.3500    0.0000 C.ar    1  LIG1        0.0026
     17 C           0.4580   -1.3420    0.0000 C.ar    1  LIG1        0.0367
     18 C           1.3170   -1.8380    0.0000 C.ar    1  LIG1        0.1387
     19 C           2.1750   -1.3420    0.0000 C.ar    1  LIG1        0.0367
     20 C           2.1750   -0.3500    0.0000 C.ar    1  LIG1        0.0026
     21 O           1.3460   -2.8250    0.0000 O.3     1  LIG1       -0.4714
     22 C           0.5080   -3.3130    0.0000 C.3     1  LIG1        0.2525
     23 O           3.0040    3.3170    0.0000 O.2     1  LIG1       -0.2497
@<TRIPOS>BOND
     1     1     2   ar
     2     1     6   ar
     3     1    14    1
     4     2     3   ar
     5     2    11    1
     6     3     4   ar
     7     4     5   ar
     8     4     9    1
     9     5     6   ar
    10     5     7    1
    11     7     8    1
    12     9    10    1
    13    11    12    1
    14    12    13    1
    15    12    23    2
    16    13    14    1
    17    14    15    1
    18    15    16   ar
    19    15    20   ar
    20    16    17   ar
    21    17    18   ar
    22    18    19   ar
    23    18    21    1
    24    19    20   ar
    25    21    22    1
