@<TRIPOS>MOLECULE
30661_ChemDiv_8010-3162
 24 27 0 0 0
SMALL
GASTEIGER
Energy = 0

@<TRIPOS>ATOM
      1 C           1.4960    0.5670    0.0000 C.ar    1  LIG1        0.0971
      2 C           0.8790   -0.2000    0.0000 C.ar    1  LIG1        0.1070
      3 N          -0.1630   -0.2000    0.0000 N.ar    1  LIG1       -0.2210
      4 C          -0.4880   -1.0920    0.0000 C.ar    1  LIG1        0.1835
      5 S           0.3460   -1.6460    0.0000 S.2     1  LIG1       -0.0492
      6 C           1.1960   -1.0920    0.0000 C.ar    1  LIG1        0.0588
      7 N          -1.4830   -1.3960    0.0000 N.pl3   1  LIG1       -0.1889
      8 C          -2.2670   -0.7540    0.0000 C.ar    1  LIG1        0.0686
      9 C          -3.2580   -1.0420    0.0000 C.ar    1  LIG1       -0.0068
     10 C          -4.0330   -0.4130    0.0000 C.ar    1  LIG1       -0.0072
     11 C          -3.8130    0.5130    0.0000 C.ar    1  LIG1       -0.0221
     12 C          -2.8130    0.8080    0.0000 C.ar    1  LIG1       -0.0029
     13 C          -2.0330    0.1670    0.0000 C.ar    1  LIG1        0.0159
     14 C          -4.5670    1.2290    0.0000 C.3     1  LIG1        0.0310
     15 C          -3.4750   -2.0080    0.0000 C.3     1  LIG1        0.0324
     16 N           2.5380    0.5580    0.0000 N.ar    1  LIG1       -0.2877
     17 C           2.8500    1.4460    0.0000 C.ar    1  LIG1        0.1474
     18 N           2.0130    2.0130    0.0000 N.ar    1  LIG1       -0.2307
     19 C           1.1710    1.4460    0.0000 C.ar    1  LIG1        0.0785
     20 C           0.1790    1.7500    0.0000 C.3     1  LIG1        0.0538
     21 C           3.8710    1.6500    0.0000 C.ar    1  LIG1        0.0374
     22 C           4.5630    0.9460    0.0000 C.ar    1  LIG1        0.0046
     23 C           4.2330    0.0380    0.0000 C.ar    1  LIG1        0.0191
     24 C           3.2040   -0.1540    0.0000 C.ar    1  LIG1        0.0815
@<TRIPOS>BOND
     1     1     2    1
     2     1    16   ar
     3     1    19   ar
     4     2     3   ar
     5     2     6   ar
     6     3     4   ar
     7     4     5   ar
     8     4     7    1
     9     5     6   ar
    10     7     8    1
    11     8     9   ar
    12     8    13   ar
    13     9    10   ar
    14     9    15    1
    15    10    11   ar
    16    11    12   ar
    17    11    14    1
    18    12    13   ar
    19    16    17   ar
    20    16    24   ar
    21    17    18   ar
    22    17    21   ar
    23    18    19   ar
    24    19    20    1
    25    21    22   ar
    26    22    23   ar
    27    23    24   ar
