@<TRIPOS>MOLECULE
30665_ChemDiv_4119-0088
 29 33 0 0 0
SMALL
GASTEIGER
Energy = 0

@<TRIPOS>ATOM
      1 N          -0.0920   -1.0330    0.0000 N.am    1  LIG1       -0.2222
      2 C          -0.0920   -2.0330    0.0000 C.2     1  LIG1        0.3149
      3 N           0.7880   -2.5250    0.0000 N.am    1  LIG1       -0.2584
      4 C           1.6420   -2.0330    0.0000 C.3     1  LIG1        0.1270
      5 C           2.5250   -2.5250    0.0000 C.3     1  LIG1        0.1637
      6 O           2.5290   -3.5380    0.0000 O.3     1  LIG1       -0.3501
      7 C           1.6580   -4.0420    0.0000 C.3     1  LIG1        0.1637
      8 C           0.7880   -3.5210    0.0000 C.3     1  LIG1        0.1270
      9 O          -0.9630   -2.5170    0.0000 O.2     1  LIG1       -0.2517
     10 C          -0.9460   -0.5250    0.0000 C.ar    1  LIG1        0.0609
     11 C          -1.1040    0.4580    0.0000 C.ar    1  LIG1        0.0427
     12 C          -0.4080    1.2000    0.0000 C.3     1  LIG1        0.1158
     13 C           0.5880    1.0830    0.0000 C.3     1  LIG1        0.0892
     14 C           1.1330    0.2750    0.0000 C.ar    1  LIG1       -0.0020
     15 C           0.8630   -0.6670    0.0000 C.ar    1  LIG1        0.0558
     16 C           1.5250   -1.3790    0.0000 C.ar    1  LIG1        0.0150
     17 C           2.5000   -1.1500    0.0000 C.ar    1  LIG1        0.0013
     18 C           2.8000   -0.2040    0.0000 C.ar    1  LIG1       -0.0002
     19 C           2.1040    0.5040    0.0000 C.ar    1  LIG1       -0.0028
     20 N          -0.7330    2.1380    0.0000 N.4     1  LIG1        0.3804
     21 C          -1.7040    2.3080    0.0000 C.3     1  LIG1        0.1715
     22 C          -2.0460    3.2670    0.0000 C.3     1  LIG1        0.2048
     23 O          -1.4080    4.0420    0.0000 O.3     1  LIG1       -0.3411
     24 C          -0.4250    3.8670    0.0000 C.3     1  LIG1        0.2048
     25 C          -0.0920    2.8790    0.0000 C.3     1  LIG1        0.1715
     26 C          -2.0170    0.8330    0.0000 C.ar    1  LIG1        0.0025
     27 C          -2.8040    0.2040    0.0000 C.ar    1  LIG1       -0.0000
     28 C          -2.6670   -0.7830    0.0000 C.ar    1  LIG1        0.0013
     29 C          -1.7420   -1.1500    0.0000 C.ar    1  LIG1        0.0152
@<TRIPOS>BOND
     1     1     2   am
     2     1    10    1
     3     1    15    1
     4     2     3   am
     5     2     9    2
     6     3     4    1
     7     3     8    1
     8     4     5    1
     9     5     6    1
    10     6     7    1
    11     7     8    1
    12    10    11   ar
    13    10    29   ar
    14    11    12    1
    15    11    26   ar
    16    12    13    1
    17    12    20    1
    18    13    14    1
    19    14    15   ar
    20    14    19   ar
    21    15    16   ar
    22    16    17   ar
    23    17    18   ar
    24    18    19   ar
    25    20    21    1
    26    20    25    1
    27    21    22    1
    28    22    23    1
    29    23    24    1
    30    24    25    1
    31    26    27   ar
    32    27    28   ar
    33    28    29   ar
