@<TRIPOS>MOLECULE
30673_ChemDiv_8018-0738
 23 26 0 0 0
SMALL
GASTEIGER
Energy = 0

@<TRIPOS>ATOM
      1 C           0.4790    1.5170    0.0000 C.ar    1  LIG1        0.0081
      2 C           1.3540    1.0210    0.0000 C.3     1  LIG1        0.1596
      3 C           1.3540    0.0330    0.0000 C.ar    1  LIG1        0.0119
      4 C           2.2170   -0.4540    0.0000 C.ar    1  LIG1        0.0386
      5 C           2.2250   -1.4540    0.0000 C.ar    1  LIG1        0.1762
      6 C           1.3630   -1.9630    0.0000 C.ar    1  LIG1        0.1764
      7 O           1.5790   -2.9420    0.0000 O.3     1  LIG1       -0.4346
      8 C           2.5790   -3.0380    0.0000 C.3     1  LIG1        0.4294
      9 O           2.9750   -2.1170    0.0000 O.3     1  LIG1       -0.4346
     10 C           0.4920   -1.4630    0.0000 C.ar    1  LIG1        0.0400
     11 C           0.4920   -0.4670    0.0000 C.ar    1  LIG1        0.0017
     12 O           2.2250    1.5290    0.0000 O.3     1  LIG1       -0.3471
     13 C           2.2170    2.5330    0.0000 C.3     1  LIG1        0.1476
     14 C           1.3420    3.0420    0.0000 C.3     1  LIG1        0.0583
     15 C           0.4790    2.5290    0.0000 C.ar    1  LIG1       -0.0178
     16 C          -0.3830    3.0210    0.0000 C.ar    1  LIG1        0.0356
     17 C          -1.2420    2.5210    0.0000 C.ar    1  LIG1        0.1721
     18 C          -1.2460    1.5210    0.0000 C.ar    1  LIG1        0.1721
     19 C          -0.3790    1.0210    0.0000 C.ar    1  LIG1        0.0381
     20 O          -2.1040    1.0210    0.0000 O.3     1  LIG1       -0.4684
     21 C          -2.1040    0.0330    0.0000 C.3     1  LIG1        0.2526
     22 O          -2.1170    3.0210    0.0000 O.3     1  LIG1       -0.4684
     23 C          -2.9790    2.5290    0.0000 C.3     1  LIG1        0.2526
@<TRIPOS>BOND
     1     1     2    1
     2     1    15   ar
     3     1    19   ar
     4     2     3    1
     5     2    12    1
     6     3     4   ar
     7     3    11   ar
     8     4     5   ar
     9     5     6   ar
    10     5     9    1
    11     6     7    1
    12     6    10   ar
    13     7     8    1
    14     8     9    1
    15    10    11   ar
    16    12    13    1
    17    13    14    1
    18    14    15    1
    19    15    16   ar
    20    16    17   ar
    21    17    18   ar
    22    17    22    1
    23    18    19   ar
    24    18    20    1
    25    20    21    1
    26    22    23    1
