@<TRIPOS>MOLECULE
30671_ChemDiv_4120-0460
 28 30 0 0 0
SMALL
GASTEIGER
Energy = 0

@<TRIPOS>ATOM
      1 N          -2.1750    0.2040    0.0000 N.ar    1  LIG1       -0.1554
      2 C          -1.3080    0.6920    0.0000 C.ar    1  LIG1        0.2949
      3 C          -1.3080    1.6960    0.0000 C.ar    1  LIG1        0.1251
      4 C          -0.4170    2.2000    0.0000 C.2     1  LIG1        0.2750
      5 N           0.4250    1.6960    0.0000 N.am    1  LIG1       -0.1759
      6 C           1.3130    2.2000    0.0000 C.ar    1  LIG1        0.0657
      7 C           1.3130    3.2130    0.0000 C.ar    1  LIG1       -0.0068
      8 C           2.1830    3.7000    0.0000 C.ar    1  LIG1       -0.0030
      9 C           3.0380    3.2130    0.0000 C.ar    1  LIG1       -0.0006
     10 C           3.0380    2.2000    0.0000 C.ar    1  LIG1       -0.0030
     11 C           2.1830    1.6960    0.0000 C.ar    1  LIG1       -0.0068
     12 C           2.1830    0.7080    0.0000 C.3     1  LIG1        0.0324
     13 C           0.4630    3.7040    0.0000 C.3     1  LIG1        0.0324
     14 O          -0.4170    3.2130    0.0000 O.2     1  LIG1       -0.2678
     15 C          -2.1750    2.2000    0.0000 C.ar    1  LIG1        0.0171
     16 C          -3.0420    1.6960    0.0000 C.ar    1  LIG1        0.0760
     17 C          -3.0420    0.6920    0.0000 C.ar    1  LIG1        0.2904
     18 C          -2.1750   -0.8330    0.0000 C.3     1  LIG1        0.3503
     19 C          -1.3080   -1.3210    0.0000 C.ar    1  LIG1        0.0587
     20 C          -0.4500   -0.8330    0.0000 C.ar    1  LIG1        0.0425
     21 C           0.4250   -1.3170    0.0000 C.ar    1  LIG1        0.1723
     22 C           0.4750   -2.2960    0.0000 C.ar    1  LIG1        0.1724
     23 C          -0.4040   -2.8250    0.0000 C.ar    1  LIG1        0.0399
     24 C          -1.2830   -2.3420    0.0000 C.ar    1  LIG1        0.0058
     25 O           1.3670   -2.7170    0.0000 O.3     1  LIG1       -0.4684
     26 C           1.4330   -3.7000    0.0000 C.3     1  LIG1        0.2526
     27 O           1.2630   -0.8000    0.0000 O.3     1  LIG1       -0.4684
     28 C           2.1290   -1.2580    0.0000 C.3     1  LIG1        0.2526
@<TRIPOS>BOND
     1     1     2   ar
     2     1    17   ar
     3     1    18    1
     4     2     3   ar
     5     3     4    1
     6     3    15   ar
     7     4     5   am
     8     4    14    2
     9     5     6    1
    10     6     7   ar
    11     6    11   ar
    12     7     8   ar
    13     7    13    1
    14     8     9   ar
    15     9    10   ar
    16    10    11   ar
    17    11    12    1
    18    15    16   ar
    19    16    17   ar
    20    18    19    1
    21    19    20   ar
    22    19    24   ar
    23    20    21   ar
    24    21    22   ar
    25    21    27    1
    26    22    23   ar
    27    22    25    1
    28    23    24   ar
    29    25    26    1
    30    27    28    1
