@<TRIPOS>MOLECULE
30674_ChemDiv_4964-2359
 31 35 0 0 0
SMALL
GASTEIGER
Energy = 0

@<TRIPOS>ATOM
      1 S          -1.9500   -1.8080    0.0000 S.O2    1  LIG1        0.0637
      2 N          -1.0920   -1.2830    0.0000 N.3     1  LIG1       -0.1433
      3 C          -0.1670   -1.7750    0.0000 C.3     1  LIG1        0.1585
      4 C           0.6960   -1.2380    0.0000 C.3     1  LIG1        0.1586
      5 N           0.6420   -0.2330    0.0000 N.4     1  LIG1        0.3830
      6 C           1.5330    0.2630    0.0000 C.3     1  LIG1        0.1663
      7 C           1.5580    1.3080    0.0000 C.ar    1  LIG1        0.0345
      8 C           0.7000    1.7960    0.0000 C.ar    1  LIG1        0.0029
      9 C           0.7000    2.7540    0.0000 C.ar    1  LIG1        0.0171
     10 C           1.5330    3.2170    0.0000 C.ar    1  LIG1        0.0599
     11 N           1.3170    4.1830    0.0000 N.ar    1  LIG1       -0.3272
     12 C           0.3880    4.2460    0.0000 C.ar    1  LIG1        0.0599
     13 C          -0.0080    3.4330    0.0000 C.ar    1  LIG1        0.0172
     14 C          -1.0080    3.3080    0.0000 C.ar    1  LIG1        0.0015
     15 C          -1.5380    4.0790    0.0000 C.ar    1  LIG1        0.0001
     16 C          -1.1460    4.9670    0.0000 C.ar    1  LIG1        0.0015
     17 C          -0.1670    5.0460    0.0000 C.ar    1  LIG1        0.0172
     18 C           1.9290    4.8750    0.0000 C.3     1  LIG1        0.1061
     19 C           2.8540    4.7540    0.0000 C.3     1  LIG1        0.0265
     20 C           2.3630    2.7290    0.0000 C.ar    1  LIG1        0.0171
     21 C           2.3670    1.8040    0.0000 C.ar    1  LIG1        0.0029
     22 C          -0.2540    0.2630    0.0000 C.3     1  LIG1        0.1586
     23 C          -1.1330   -0.2920    0.0000 C.3     1  LIG1        0.1585
     24 O          -2.5710   -1.5250    0.0000 O.2     1  LIG1       -0.1528
     25 O          -2.6580   -2.4540    0.0000 O.2     1  LIG1       -0.1528
     26 C          -1.8580   -2.7580    0.0000 C.ar    1  LIG1        0.1222
     27 C          -0.8460   -3.3210    0.0000 C.ar    1  LIG1        0.0199
     28 C          -0.8460   -4.4880    0.0000 C.ar    1  LIG1        0.0014
     29 C          -1.8290   -5.0460    0.0000 C.ar    1  LIG1        0.0001
     30 C          -2.8420   -4.4880    0.0000 C.ar    1  LIG1        0.0014
     31 C          -2.8580   -3.3130    0.0000 C.ar    1  LIG1        0.0199
@<TRIPOS>BOND
     1     1     2    1
     2     1    24    2
     3     1    25    2
     4     1    26    1
     5     2     3    1
     6     2    23    1
     7     3     4    1
     8     4     5    1
     9     5     6    1
    10     5    22    1
    11     6     7    1
    12     7     8   ar
    13     7    21   ar
    14     8     9   ar
    15     9    10   ar
    16     9    13   ar
    17    10    11   ar
    18    10    20   ar
    19    11    12   ar
    20    11    18    1
    21    12    13   ar
    22    12    17   ar
    23    13    14   ar
    24    14    15   ar
    25    15    16   ar
    26    16    17   ar
    27    18    19    1
    28    20    21   ar
    29    22    23    1
    30    26    27   ar
    31    26    31   ar
    32    27    28   ar
    33    28    29   ar
    34    29    30   ar
    35    30    31   ar
