@<TRIPOS>MOLECULE
30676_ChemDiv_K940-0172
 29 32 0 0 0
SMALL
GASTEIGER
Energy = 0

@<TRIPOS>ATOM
      1 S           2.5040    0.7460    0.0000 S.O2    1  LIG1        0.0637
      2 N           1.6290    0.2330    0.0000 N.3     1  LIG1       -0.1433
      3 C           0.7630    0.7290    0.0000 C.3     1  LIG1        0.1585
      4 C          -0.1080    0.2330    0.0000 C.3     1  LIG1        0.1588
      5 N          -0.1080   -0.7670    0.0000 N.4     1  LIG1        0.3868
      6 C          -0.9710   -1.2540    0.0000 C.3     1  LIG1        0.2270
      7 C          -0.9710   -2.2420    0.0000 C.2     1  LIG1        0.3033
      8 N          -1.8330   -2.7540    0.0000 N.am    1  LIG1       -0.1742
      9 C          -2.7080   -2.2420    0.0000 C.ar    1  LIG1        0.0751
     10 C          -3.5750   -2.7420    0.0000 C.ar    1  LIG1        0.0375
     11 C          -4.4290   -2.2420    0.0000 C.ar    1  LIG1        0.1057
     12 N          -5.3920   -2.5540    0.0000 N.ar    1  LIG1       -0.1479
     13 N          -5.9710   -1.7380    0.0000 N.ar    1  LIG1       -0.1464
     14 C          -5.3920   -0.9500    0.0000 C.ar    1  LIG1        0.1237
     15 C          -4.4290   -1.2420    0.0000 C.ar    1  LIG1        0.0404
     16 C          -3.5750   -0.7500    0.0000 C.ar    1  LIG1        0.0045
     17 C          -2.7080   -1.2420    0.0000 C.ar    1  LIG1        0.0167
     18 O          -0.0960   -2.7540    0.0000 O.2     1  LIG1       -0.2665
     19 C           0.7710   -1.2630    0.0000 C.3     1  LIG1        0.1588
     20 C           1.6290   -0.7670    0.0000 C.3     1  LIG1        0.1585
     21 C           3.3670    1.2460    0.0000 C.ar    1  LIG1        0.1222
     22 C           4.2330    0.7460    0.0000 C.ar    1  LIG1        0.0204
     23 C           5.1040    1.2460    0.0000 C.ar    1  LIG1        0.0081
     24 C           5.0920    2.2580    0.0000 C.ar    1  LIG1        0.0346
     25 C           4.2330    2.7420    0.0000 C.ar    1  LIG1        0.0081
     26 C           3.3710    2.2420    0.0000 C.ar    1  LIG1        0.0204
     27 BR          5.9670    2.7580    0.0000 Br      1  LIG1       -0.0490
     28 O           1.9960    1.6080    0.0000 O.2     1  LIG1       -0.1528
     29 O           3.0080   -0.1330    0.0000 O.2     1  LIG1       -0.1528
@<TRIPOS>BOND
     1     1     2    1
     2     1    21    1
     3     1    28    2
     4     1    29    2
     5     2     3    1
     6     2    20    1
     7     3     4    1
     8     4     5    1
     9     5     6    1
    10     5    19    1
    11     6     7    1
    12     7     8   am
    13     7    18    2
    14     8     9    1
    15     9    10   ar
    16     9    17   ar
    17    10    11   ar
    18    11    12   ar
    19    11    15   ar
    20    12    13   ar
    21    13    14   ar
    22    14    15   ar
    23    15    16   ar
    24    16    17   ar
    25    19    20    1
    26    21    22   ar
    27    21    26   ar
    28    22    23   ar
    29    23    24   ar
    30    24    25   ar
    31    24    27    1
    32    25    26   ar
