@<TRIPOS>MOLECULE
30685_ChemDiv_4826-0024
 21 22 0 0 0
SMALL
GASTEIGER
Energy = 0

@<TRIPOS>ATOM
      1 N           1.8420   -1.8580    0.0000 N.ar    1  LIG1       -0.1755
      2 C           0.9920   -1.3540    0.0000 C.ar    1  LIG1        0.2629
      3 N           0.9920   -0.3710    0.0000 N.ar    1  LIG1       -0.1252
      4 N           2.6920   -0.3710    0.0000 N.ar    1  LIG1       -0.1948
      5 C           2.6920   -1.3540    0.0000 C.ar    1  LIG1        0.2602
      6 N           3.5130   -1.8250    0.0000 N.pl3   1  LIG1       -0.0859
      7 C           3.3540    0.2880    0.0000 C.ar    1  LIG1        0.0858
      8 C           4.2790    0.0500    0.0000 C.ar    1  LIG1        0.0192
      9 C           4.9460    0.7000    0.0000 C.ar    1  LIG1        0.0015
     10 C           4.7080    1.6250    0.0000 C.ar    1  LIG1        0.0001
     11 C           3.7880    1.8630    0.0000 C.ar    1  LIG1        0.0015
     12 C           3.1170    1.2000    0.0000 C.ar    1  LIG1        0.0192
     13 N           0.1540   -1.8210    0.0000 N.am    1  LIG1       -0.1419
     14 C          -0.6460   -1.3380    0.0000 C.2     1  LIG1        0.2481
     15 O          -0.6460   -0.3920    0.0000 O.2     1  LIG1       -0.2729
     16 C          -1.5040   -1.8250    0.0000 C.3     1  LIG1        0.0877
     17 C          -2.3670   -1.3380    0.0000 C.3     1  LIG1        0.0155
     18 C          -3.2210   -1.8250    0.0000 C.3     1  LIG1        0.0422
     19 C          -4.0880   -1.3210    0.0000 C.2     1  LIG1        0.0503
     20 O          -4.9500   -1.8210    0.0000 O.co2   1  LIG1       -0.5492
     21 O          -4.0830   -0.3130    0.0000 O.co2   1  LIG1       -0.5492
@<TRIPOS>BOND
     1     1     2   ar
     2     1     5   ar
     3     2     3   ar
     4     2    13    1
     5     3     4   ar
     6     4     5   ar
     7     4     7    1
     8     5     6    1
     9     7     8   ar
    10     7    12   ar
    11     8     9   ar
    12     9    10   ar
    13    10    11   ar
    14    11    12   ar
    15    13    14   am
    16    14    15    2
    17    14    16    1
    18    16    17    1
    19    17    18    1
    20    18    19    1
    21    19    20   ar
    22    19    21   ar
