@<TRIPOS>MOLECULE
30684_ChemDiv_4240-0504
 27 29 0 0 0
SMALL
GASTEIGER
Energy = 0

@<TRIPOS>ATOM
      1 S          -2.1630   -4.3250    0.0000 S.O2    1  LIG1        0.0460
      2 N          -1.2670   -3.8210    0.0000 N.3     1  LIG1       -0.1472
      3 C          -0.4040   -4.3130    0.0000 C.3     1  LIG1        0.1581
      4 C           0.4500   -3.8210    0.0000 C.3     1  LIG1        0.1586
      5 N           0.4500   -2.8000    0.0000 N.4     1  LIG1        0.3830
      6 C           1.3330   -2.2750    0.0000 C.3     1  LIG1        0.1664
      7 C           1.3000   -1.2710    0.0000 C.ar    1  LIG1        0.0376
      8 C           2.1460   -0.7960    0.0000 C.ar    1  LIG1        0.0415
      9 C           2.1460    0.2080    0.0000 C.ar    1  LIG1        0.1723
     10 C           1.2580    0.6920    0.0000 C.ar    1  LIG1        0.1727
     11 O           1.1880    1.7170    0.0000 O.3     1  LIG1       -0.4676
     12 C           2.0130    2.2460    0.0000 C.3     1  LIG1        0.2321
     13 C           1.9630    3.2420    0.0000 C.ar    1  LIG1        0.0212
     14 C           2.8130    3.7580    0.0000 C.ar    1  LIG1       -0.0007
     15 C           2.7500    4.7460    0.0000 C.ar    1  LIG1       -0.0002
     16 C           1.8880    5.2000    0.0000 C.ar    1  LIG1       -0.0000
     17 C           1.0380    4.6710    0.0000 C.ar    1  LIG1       -0.0002
     18 C           1.1040    3.6920    0.0000 C.ar    1  LIG1       -0.0007
     19 C           0.4080    0.1830    0.0000 C.ar    1  LIG1        0.0399
     20 C           0.4330   -0.7960    0.0000 C.ar    1  LIG1        0.0048
     21 O           3.0380    0.7170    0.0000 O.3     1  LIG1       -0.4684
     22 C           3.0380    1.7290    0.0000 C.3     1  LIG1        0.2526
     23 C          -0.4040   -2.3130    0.0000 C.3     1  LIG1        0.1586
     24 C          -1.2670   -2.8330    0.0000 C.3     1  LIG1        0.1581
     25 O          -3.0420   -4.8420    0.0000 O.2     1  LIG1       -0.1572
     26 O          -2.6710   -3.4380    0.0000 O.2     1  LIG1       -0.1572
     27 C          -1.6460   -5.2000    0.0000 C.3     1  LIG1        0.1960
@<TRIPOS>BOND
     1     1     2    1
     2     1    25    2
     3     1    26    2
     4     1    27    1
     5     2     3    1
     6     2    24    1
     7     3     4    1
     8     4     5    1
     9     5     6    1
    10     5    23    1
    11     6     7    1
    12     7     8   ar
    13     7    20   ar
    14     8     9   ar
    15     9    10   ar
    16     9    21    1
    17    10    11    1
    18    10    19   ar
    19    11    12    1
    20    12    13    1
    21    13    14   ar
    22    13    18   ar
    23    14    15   ar
    24    15    16   ar
    25    16    17   ar
    26    17    18   ar
    27    19    20   ar
    28    21    22    1
    29    23    24    1
