@<TRIPOS>MOLECULE
30682_ChemDiv_K940-3755
 37 41 0 0 0
SMALL
GASTEIGER
Energy = 0

@<TRIPOS>ATOM
      1 S          -0.0170    3.1000    0.0000 S.O2    1  LIG1        0.0637
      2 N          -0.8920    2.6000    0.0000 N.3     1  LIG1       -0.1433
      3 C          -0.8830    1.6080    0.0000 C.3     1  LIG1        0.1585
      4 C          -1.7460    1.1130    0.0000 C.3     1  LIG1        0.1588
      5 N          -2.6170    1.6000    0.0000 N.4     1  LIG1        0.3868
      6 C          -3.4790    1.1130    0.0000 C.3     1  LIG1        0.2270
      7 C          -3.4790    0.1250    0.0000 C.2     1  LIG1        0.3033
      8 N          -2.6170   -0.3880    0.0000 N.am    1  LIG1       -0.1742
      9 C          -2.6080   -1.3880    0.0000 C.ar    1  LIG1        0.0737
     10 C          -1.7380   -1.8750    0.0000 C.ar    1  LIG1        0.0181
     11 C          -1.7250   -2.8880    0.0000 C.ar    1  LIG1        0.0185
     12 C          -2.5920   -3.3880    0.0000 C.ar    1  LIG1        0.0600
     13 N          -2.3750   -4.3710    0.0000 N.ar    1  LIG1       -0.3272
     14 C          -1.3920   -4.4580    0.0000 C.ar    1  LIG1        0.0599
     15 C          -0.9830   -3.5540    0.0000 C.ar    1  LIG1        0.0172
     16 C           0.0170   -3.4460    0.0000 C.ar    1  LIG1        0.0015
     17 C           0.6040   -4.2500    0.0000 C.ar    1  LIG1        0.0001
     18 C           0.1960   -5.1710    0.0000 C.ar    1  LIG1        0.0015
     19 C          -0.8000   -5.2750    0.0000 C.ar    1  LIG1        0.0172
     20 C          -3.0250   -5.1250    0.0000 C.3     1  LIG1        0.1061
     21 C          -2.6960   -6.0750    0.0000 C.3     1  LIG1        0.0265
     22 C          -3.4790   -2.9000    0.0000 C.ar    1  LIG1        0.0185
     23 C          -3.4790   -1.9040    0.0000 C.ar    1  LIG1        0.0181
     24 O          -4.3420   -0.3750    0.0000 O.2     1  LIG1       -0.2665
     25 C          -2.6080    2.6000    0.0000 C.3     1  LIG1        0.1588
     26 C          -1.7540    3.0920    0.0000 C.3     1  LIG1        0.1585
     27 C           0.8580    3.5960    0.0000 C.ar    1  LIG1        0.1222
     28 C           1.7210    3.0830    0.0000 C.ar    1  LIG1        0.0196
     29 C           2.5710    3.5670    0.0000 C.ar    1  LIG1       -0.0029
     30 C           2.5880    4.5750    0.0000 C.ar    1  LIG1       -0.0224
     31 C           1.7330    5.0830    0.0000 C.ar    1  LIG1       -0.0029
     32 C           0.8630    4.5920    0.0000 C.ar    1  LIG1        0.0196
     33 C           3.4750    5.0750    0.0000 C.3     1  LIG1        0.0224
     34 C           4.3380    4.5750    0.0000 C.3     1  LIG1        0.0047
     35 C           3.4630    6.0750    0.0000 C.3     1  LIG1        0.0047
     36 O          -0.5130    3.9580    0.0000 O.2     1  LIG1       -0.1528
     37 O           0.4830    2.2210    0.0000 O.2     1  LIG1       -0.1528
@<TRIPOS>BOND
     1     1     2    1
     2     1    27    1
     3     1    36    2
     4     1    37    2
     5     2     3    1
     6     2    26    1
     7     3     4    1
     8     4     5    1
     9     5     6    1
    10     5    25    1
    11     6     7    1
    12     7     8   am
    13     7    24    2
    14     8     9    1
    15     9    10   ar
    16     9    23   ar
    17    10    11   ar
    18    11    12   ar
    19    11    15   ar
    20    12    13   ar
    21    12    22   ar
    22    13    14   ar
    23    13    20    1
    24    14    15   ar
    25    14    19   ar
    26    15    16   ar
    27    16    17   ar
    28    17    18   ar
    29    18    19   ar
    30    20    21    1
    31    22    23   ar
    32    25    26    1
    33    27    28   ar
    34    27    32   ar
    35    28    29   ar
    36    29    30   ar
    37    30    31   ar
    38    30    33    1
    39    31    32   ar
    40    33    34    1
    41    33    35    1
