@<TRIPOS>MOLECULE
30680_ChemDiv_K940-3641
 36 40 0 0 0
SMALL
GASTEIGER
Energy = 0

@<TRIPOS>ATOM
      1 S           0.8500    3.0880    0.0000 S.O2    1  LIG1        0.0645
      2 C           1.7250    3.5960    0.0000 C.ar    1  LIG1        0.1335
      3 C           1.7380    4.5920    0.0000 C.ar    1  LIG1        0.0322
      4 C           2.5960    5.0830    0.0000 C.ar    1  LIG1        0.0591
      5 C           3.4630    4.5750    0.0000 C.ar    1  LIG1        0.0123
      6 C           3.4580    3.5830    0.0000 C.ar    1  LIG1        0.0136
      7 C           2.5880    3.0880    0.0000 C.ar    1  LIG1        0.0763
      8 CL          2.5830    2.0920    0.0000 Cl      1  LIG1       -0.0809
      9 CL          2.6040    6.0830    0.0000 Cl      1  LIG1       -0.0822
     10 N          -0.0130    2.5750    0.0000 N.3     1  LIG1       -0.1433
     11 C          -0.0130    1.5710    0.0000 C.3     1  LIG1        0.1585
     12 C          -0.8750    1.0830    0.0000 C.3     1  LIG1        0.1588
     13 N          -1.7460    1.5750    0.0000 N.4     1  LIG1        0.3868
     14 C          -2.6040    1.0880    0.0000 C.3     1  LIG1        0.2270
     15 C          -2.6040    0.1040    0.0000 C.2     1  LIG1        0.3033
     16 N          -1.7460   -0.4040    0.0000 N.am    1  LIG1       -0.1742
     17 C          -1.7380   -1.4080    0.0000 C.ar    1  LIG1        0.0737
     18 C          -0.8710   -1.8920    0.0000 C.ar    1  LIG1        0.0181
     19 C          -0.8540   -2.9000    0.0000 C.ar    1  LIG1        0.0185
     20 C          -1.7210   -3.4000    0.0000 C.ar    1  LIG1        0.0600
     21 N          -1.5040   -4.3790    0.0000 N.ar    1  LIG1       -0.3272
     22 C          -0.5210   -4.4710    0.0000 C.ar    1  LIG1        0.0599
     23 C          -0.1170   -3.5670    0.0000 C.ar    1  LIG1        0.0172
     24 C           0.8790   -3.4580    0.0000 C.ar    1  LIG1        0.0015
     25 C           1.4710   -4.2580    0.0000 C.ar    1  LIG1        0.0001
     26 C           1.0630   -5.1790    0.0000 C.ar    1  LIG1        0.0015
     27 C           0.0670   -5.2880    0.0000 C.ar    1  LIG1        0.0172
     28 C          -2.1540   -5.1380    0.0000 C.3     1  LIG1        0.1061
     29 C          -1.8250   -6.0830    0.0000 C.3     1  LIG1        0.0265
     30 C          -2.6040   -2.9170    0.0000 C.ar    1  LIG1        0.0185
     31 C          -2.6040   -1.9210    0.0000 C.ar    1  LIG1        0.0181
     32 O          -3.4670   -0.3960    0.0000 O.2     1  LIG1       -0.2665
     33 C          -1.7460    2.5880    0.0000 C.3     1  LIG1        0.1588
     34 C          -0.8750    3.0830    0.0000 C.3     1  LIG1        0.1585
     35 O           1.3630    2.2130    0.0000 O.2     1  LIG1       -0.1527
     36 O           0.3460    3.9580    0.0000 O.2     1  LIG1       -0.1527
@<TRIPOS>BOND
     1     1     2    1
     2     1    10    1
     3     1    35    2
     4     1    36    2
     5     2     3   ar
     6     2     7   ar
     7     3     4   ar
     8     4     5   ar
     9     4     9    1
    10     5     6   ar
    11     6     7   ar
    12     7     8    1
    13    10    11    1
    14    10    34    1
    15    11    12    1
    16    12    13    1
    17    13    14    1
    18    13    33    1
    19    14    15    1
    20    15    16   am
    21    15    32    2
    22    16    17    1
    23    17    18   ar
    24    17    31   ar
    25    18    19   ar
    26    19    20   ar
    27    19    23   ar
    28    20    21   ar
    29    20    30   ar
    30    21    22   ar
    31    21    28    1
    32    22    23   ar
    33    22    27   ar
    34    23    24   ar
    35    24    25   ar
    36    25    26   ar
    37    26    27   ar
    38    28    29    1
    39    30    31   ar
    40    33    34    1
