@<TRIPOS>MOLECULE
30683_ChemDiv_4205-0005
 19 20 0 0 0
SMALL
GASTEIGER
Energy = 0

@<TRIPOS>ATOM
      1 C           0.4330   -1.6130    0.0000 C.ar    1  LIG1        0.2469
      2 N          -0.3040   -2.0420    0.0000 N.ar    1  LIG1       -0.1764
      3 C          -1.0290   -1.6130    0.0000 C.ar    1  LIG1        0.2629
      4 N          -1.0290   -0.7500    0.0000 N.ar    1  LIG1       -0.1252
      5 N           0.4330   -0.7540    0.0000 N.ar    1  LIG1       -0.1957
      6 C           1.2710    0.0710    0.0000 C.ar    1  LIG1        0.0858
      7 C           2.4210   -0.2290    0.0000 C.ar    1  LIG1        0.0192
      8 C           3.2540    0.6080    0.0000 C.ar    1  LIG1        0.0015
      9 C           2.9460    1.7580    0.0000 C.ar    1  LIG1        0.0001
     10 C           1.7960    2.0460    0.0000 C.ar    1  LIG1        0.0015
     11 C           0.9670    1.2210    0.0000 C.ar    1  LIG1        0.0192
     12 N          -1.7790   -2.0250    0.0000 N.am    1  LIG1       -0.1419
     13 C          -2.5330   -1.5920    0.0000 C.2     1  LIG1        0.2486
     14 O          -2.5130   -0.7500    0.0000 O.2     1  LIG1       -0.2729
     15 C          -3.2580   -2.0250    0.0000 C.3     1  LIG1        0.0969
     16 N           1.1790   -2.0420    0.0000 N.am    1  LIG1       -0.1431
     17 C           1.9170   -1.6130    0.0000 C.2     1  LIG1        0.2486
     18 O           1.9170   -0.7500    0.0000 O.2     1  LIG1       -0.2729
     19 C           2.6580   -2.0250    0.0000 C.3     1  LIG1        0.0969
@<TRIPOS>BOND
     1     1     2   ar
     2     1     5   ar
     3     1    16    1
     4     2     3   ar
     5     3     4   ar
     6     3    12    1
     7     4     5   ar
     8     5     6    1
     9     6     7   ar
    10     6    11   ar
    11     7     8   ar
    12     8     9   ar
    13     9    10   ar
    14    10    11   ar
    15    12    13   am
    16    13    14    2
    17    13    15    1
    18    16    17   am
    19    17    18    2
    20    17    19    1
