@<TRIPOS>MOLECULE
30681_ChemDiv_4205-0004
 16 17 0 0 0
SMALL
GASTEIGER
Energy = 0

@<TRIPOS>ATOM
      1 N          -0.2830   -2.0000    0.0000 N.ar    1  LIG1       -0.1755
      2 C          -1.0080   -1.5630    0.0000 C.ar    1  LIG1        0.2629
      3 N          -1.0000   -0.7420    0.0000 N.ar    1  LIG1       -0.1252
      4 N           0.4330   -0.7420    0.0000 N.ar    1  LIG1       -0.1948
      5 C           0.4330   -1.5790    0.0000 C.ar    1  LIG1        0.2602
      6 N           1.1580   -1.9790    0.0000 N.pl3   1  LIG1       -0.0859
      7 C           1.2380    0.0710    0.0000 C.ar    1  LIG1        0.0858
      8 C           2.3540   -0.2330    0.0000 C.ar    1  LIG1        0.0192
      9 C           3.1710    0.5710    0.0000 C.ar    1  LIG1        0.0015
     10 C           2.8790    1.6880    0.0000 C.ar    1  LIG1        0.0001
     11 C           1.7580    2.0040    0.0000 C.ar    1  LIG1        0.0015
     12 C           0.9500    1.1710    0.0000 C.ar    1  LIG1        0.0192
     13 N          -1.7250   -1.9790    0.0000 N.am    1  LIG1       -0.1419
     14 C          -2.4500   -1.5630    0.0000 C.2     1  LIG1        0.2486
     15 O          -2.4330   -0.7250    0.0000 O.2     1  LIG1       -0.2729
     16 C          -3.1750   -1.9750    0.0000 C.3     1  LIG1        0.0969
@<TRIPOS>BOND
     1     1     2   ar
     2     1     5   ar
     3     2     3   ar
     4     2    13    1
     5     3     4   ar
     6     4     5   ar
     7     4     7    1
     8     5     6    1
     9     7     8   ar
    10     7    12   ar
    11     8     9   ar
    12     9    10   ar
    13    10    11   ar
    14    11    12   ar
    15    13    14   am
    16    14    15    2
    17    14    16    1
