@<TRIPOS>MOLECULE
30694_ChemDiv_4312-0010
 16 17 0 0 0
SMALL
GASTEIGER
Energy = 0

@<TRIPOS>ATOM
      1 C           0.9290    0.7210    0.0000 C.ar    1  LIG1        0.0901
      2 C           0.9290   -0.2920    0.0000 C.ar    1  LIG1        0.3469
      3 O           0.0790   -0.7710    0.0000 O.2     1  LIG1       -0.4179
      4 C          -0.8250   -0.2920    0.0000 C.ar    1  LIG1        0.1823
      5 C          -0.8250    0.7210    0.0000 C.ar    1  LIG1        0.0380
      6 C           0.0790    1.1960    0.0000 C.ar    1  LIG1        0.0107
      7 C          -1.7040    1.1960    0.0000 C.ar    1  LIG1        0.0032
      8 C          -2.5920    0.7210    0.0000 C.ar    1  LIG1        0.0033
      9 C          -2.5920   -0.2920    0.0000 C.ar    1  LIG1        0.0401
     10 C          -1.7040   -0.7710    0.0000 C.ar    1  LIG1        0.1731
     11 O          -1.7040   -1.7710    0.0000 O.3     1  LIG1       -0.4683
     12 C          -2.5580   -2.2630    0.0000 C.3     1  LIG1        0.2526
     13 O           1.7710   -0.7710    0.0000 O.2     1  LIG1       -0.2444
     14 C           1.7710    1.2330    0.0000 C.2     1  LIG1        0.0791
     15 O           1.7540    2.2670    0.0000 O.co2   1  LIG1       -0.5444
     16 O           2.5880    0.6920    0.0000 O.co2   1  LIG1       -0.5444
@<TRIPOS>BOND
     1     1     2   ar
     2     1     6   ar
     3     1    14    1
     4     2     3   ar
     5     2    13    2
     6     3     4   ar
     7     4     5   ar
     8     4    10   ar
     9     5     6   ar
    10     5     7   ar
    11     7     8   ar
    12     8     9   ar
    13     9    10   ar
    14    10    11    1
    15    11    12    1
    16    14    15   ar
    17    14    16   ar
