@<TRIPOS>MOLECULE
30696_ChemDiv_4312-1633
 24 26 0 0 0
SMALL
GASTEIGER
Energy = 0

@<TRIPOS>ATOM
      1 C          -0.8540    0.7580    0.0000 C.ar    1  LIG1        0.1295
      2 C          -0.8540   -0.2540    0.0000 C.ar    1  LIG1        0.3503
      3 O          -1.7210   -0.7580    0.0000 O.2     1  LIG1       -0.4178
      4 C          -2.5960   -0.2580    0.0000 C.ar    1  LIG1        0.1823
      5 C          -2.5960    0.7420    0.0000 C.ar    1  LIG1        0.0381
      6 C          -1.7380    1.2630    0.0000 C.ar    1  LIG1        0.0142
      7 C          -3.4750    1.2420    0.0000 C.ar    1  LIG1        0.0032
      8 C          -4.3250    0.7420    0.0000 C.ar    1  LIG1        0.0033
      9 C          -4.3250   -0.2580    0.0000 C.ar    1  LIG1        0.0401
     10 C          -3.4750   -0.7580    0.0000 C.ar    1  LIG1        0.1731
     11 O          -3.4750   -1.7540    0.0000 O.3     1  LIG1       -0.4683
     12 C          -4.3250   -2.2540    0.0000 C.3     1  LIG1        0.2526
     13 O           0.0130   -0.7580    0.0000 O.2     1  LIG1       -0.2443
     14 C          -0.0040    1.2580    0.0000 C.2     1  LIG1        0.2557
     15 N           0.8710    0.7580    0.0000 N.am    1  LIG1       -0.2643
     16 C           0.8710   -0.2540    0.0000 C.3     1  LIG1        0.1567
     17 C           1.7330   -0.7380    0.0000 C.3     1  LIG1        0.1607
     18 N           2.5880   -0.2540    0.0000 N.4     1  LIG1        0.3821
     19 C           2.5880    0.7580    0.0000 C.3     1  LIG1        0.1607
     20 C           1.7330    1.2630    0.0000 C.3     1  LIG1        0.1567
     21 C           3.4630   -0.7420    0.0000 C.3     1  LIG1        0.1749
     22 C           3.4500   -1.7290    0.0000 C.3     1  LIG1        0.2442
     23 O           4.3210   -2.2380    0.0000 O.3     1  LIG1       -0.2137
     24 O          -0.0040    2.2580    0.0000 O.2     1  LIG1       -0.2697
@<TRIPOS>BOND
     1     1     2   ar
     2     1     6   ar
     3     1    14    1
     4     2     3   ar
     5     2    13    2
     6     3     4   ar
     7     4     5   ar
     8     4    10   ar
     9     5     6   ar
    10     5     7   ar
    11     7     8   ar
    12     8     9   ar
    13     9    10   ar
    14    10    11    1
    15    11    12    1
    16    14    15   am
    17    14    24    2
    18    15    16    1
    19    15    20    1
    20    16    17    1
    21    17    18    1
    22    18    19    1
    23    18    21    1
    24    19    20    1
    25    21    22    1
    26    22    23    1
