@<TRIPOS>MOLECULE
30695_ChemDiv_4130-5507
 21 23 0 0 0
SMALL
GASTEIGER
Energy = 0

@<TRIPOS>ATOM
      1 C          -1.0130    1.7580    0.0000 C.2     1  LIG1        0.3073
      2 N          -0.5420    0.9040    0.0000 N.am    1  LIG1       -0.2640
      3 C           0.4670    0.9040    0.0000 C.3     1  LIG1        0.0950
      4 C           1.0040    0.0380    0.0000 C.3     1  LIG1        0.0219
      5 C           0.4710   -0.8420    0.0000 C.3     1  LIG1        0.0078
      6 C           1.0040   -1.7170    0.0000 C.3     1  LIG1        0.0265
      7 C           2.0080   -1.7080    0.0000 C.ar    1  LIG1       -0.0222
      8 C           2.4790   -0.8380    0.0000 C.ar    1  LIG1       -0.0043
      9 C           3.4880   -0.8380    0.0000 C.ar    1  LIG1       -0.0003
     10 C           4.0250   -1.7080    0.0000 C.ar    1  LIG1       -0.0000
     11 C           3.5080   -2.5830    0.0000 C.ar    1  LIG1       -0.0003
     12 C           2.5040   -2.5830    0.0000 C.ar    1  LIG1       -0.0043
     13 C          -0.5380   -0.8580    0.0000 C.3     1  LIG1        0.0219
     14 C          -1.0130    0.0130    0.0000 C.3     1  LIG1        0.0950
     15 N          -2.0210    1.7580    0.0000 N.am    1  LIG1       -0.2589
     16 C          -2.5580    2.5880    0.0000 C.3     1  LIG1        0.1270
     17 C          -3.5250    2.5880    0.0000 C.3     1  LIG1        0.1637
     18 O          -4.0290    1.7580    0.0000 O.3     1  LIG1       -0.3501
     19 C          -3.5250    0.8880    0.0000 C.3     1  LIG1        0.1637
     20 C          -2.5580    0.8880    0.0000 C.3     1  LIG1        0.1270
     21 O          -0.5420    2.5880    0.0000 O.2     1  LIG1       -0.2523
@<TRIPOS>BOND
     1     1     2   am
     2     1    15   am
     3     1    21    2
     4     2     3    1
     5     2    14    1
     6     3     4    1
     7     4     5    1
     8     5     6    1
     9     5    13    1
    10     6     7    1
    11     7     8   ar
    12     7    12   ar
    13     8     9   ar
    14     9    10   ar
    15    10    11   ar
    16    11    12   ar
    17    13    14    1
    18    15    16    1
    19    15    20    1
    20    16    17    1
    21    17    18    1
    22    18    19    1
    23    19    20    1
