@<TRIPOS>MOLECULE
30698_ChemDiv_6049-1018
 33 37 0 0 0
SMALL
GASTEIGER
Energy = 0

@<TRIPOS>ATOM
      1 C          -2.8710    1.3330    0.0000 C.ar    1  LIG1        0.1295
      2 C          -3.7630    1.8040    0.0000 C.ar    1  LIG1        0.3502
      3 O          -4.6040    1.2460    0.0000 O.2     1  LIG1       -0.4209
      4 C          -4.5630    0.2630    0.0000 C.ar    1  LIG1        0.1487
      5 C          -3.6630   -0.2080    0.0000 C.ar    1  LIG1        0.0350
      6 C          -2.8420    0.3500    0.0000 C.ar    1  LIG1        0.0141
      7 C          -3.6000   -1.1750    0.0000 C.ar    1  LIG1        0.0030
      8 C          -4.4420   -1.7170    0.0000 C.ar    1  LIG1        0.0002
      9 C          -5.3380   -1.2670    0.0000 C.ar    1  LIG1        0.0031
     10 C          -5.4000   -0.2670    0.0000 C.ar    1  LIG1        0.0376
     11 O          -3.8250    2.8000    0.0000 O.2     1  LIG1       -0.2443
     12 C          -2.0170    1.8670    0.0000 C.2     1  LIG1        0.2554
     13 N          -1.1460    1.3920    0.0000 N.am    1  LIG1       -0.2741
     14 C          -1.2830    0.3920    0.0000 C.3     1  LIG1        0.1152
     15 C          -0.6290   -0.3250    0.0000 C.3     1  LIG1        0.1152
     16 N           0.3710   -0.2380    0.0000 N.am    1  LIG1       -0.2741
     17 C           0.8580   -1.1040    0.0000 C.2     1  LIG1        0.2554
     18 C           1.8420   -1.1500    0.0000 C.ar    1  LIG1        0.1295
     19 C           2.3210   -2.0000    0.0000 C.ar    1  LIG1        0.3502
     20 O           3.3380   -2.0290    0.0000 O.2     1  LIG1       -0.4209
     21 C           3.8540   -1.1750    0.0000 C.ar    1  LIG1        0.1487
     22 C           3.3540   -0.2960    0.0000 C.ar    1  LIG1        0.0350
     23 C           2.3540   -0.2960    0.0000 C.ar    1  LIG1        0.0141
     24 C           3.8790    0.5420    0.0000 C.ar    1  LIG1        0.0030
     25 C           4.8960    0.5540    0.0000 C.ar    1  LIG1        0.0002
     26 C           5.3960   -0.3380    0.0000 C.ar    1  LIG1        0.0031
     27 C           4.8630   -1.2080    0.0000 C.ar    1  LIG1        0.0376
     28 O           1.8080   -2.8830    0.0000 O.2     1  LIG1       -0.2443
     29 O           0.3290   -1.9880    0.0000 O.2     1  LIG1       -0.2697
     30 C           0.9290    0.5880    0.0000 C.3     1  LIG1        0.0955
     31 C           0.6380    1.5080    0.0000 C.3     1  LIG1        0.0430
     32 C          -0.2920    1.8960    0.0000 C.3     1  LIG1        0.0955
     33 O          -2.0170    2.8880    0.0000 O.2     1  LIG1       -0.2697
@<TRIPOS>BOND
     1     1     2   ar
     2     1     6   ar
     3     1    12    1
     4     2     3   ar
     5     2    11    2
     6     3     4   ar
     7     4     5   ar
     8     4    10   ar
     9     5     6   ar
    10     5     7   ar
    11     7     8   ar
    12     8     9   ar
    13     9    10   ar
    14    12    13   am
    15    12    33    2
    16    13    14    1
    17    13    32    1
    18    14    15    1
    19    15    16    1
    20    16    17   am
    21    16    30    1
    22    17    18    1
    23    17    29    2
    24    18    19   ar
    25    18    23   ar
    26    19    20   ar
    27    19    28    2
    28    20    21   ar
    29    21    22   ar
    30    21    27   ar
    31    22    23   ar
    32    22    24   ar
    33    24    25   ar
    34    25    26   ar
    35    26    27   ar
    36    30    31    1
    37    31    32    1
