@<TRIPOS>MOLECULE
30690_ChemDiv_4311-1728
 18 20 0 0 0
SMALL
GASTEIGER
Energy = 0

@<TRIPOS>ATOM
      1 N          -2.8250    0.0330    0.0000 N.am    1  LIG1       -0.2162
      2 C          -2.3920   -0.8420    0.0000 C.2     1  LIG1        0.2437
      3 O          -1.4040   -0.7290    0.0000 O.3     1  LIG1       -0.4290
      4 C          -1.2000    0.2040    0.0000 C.2     1  LIG1        0.2010
      5 C          -2.0670    0.7130    0.0000 C.2     1  LIG1        0.2901
      6 O          -2.1790    1.7210    0.0000 O.2     1  LIG1       -0.2661
      7 C          -0.3210    0.7290    0.0000 C.2     1  LIG1        0.0424
      8 C           0.5540    0.2040    0.0000 C.ar    1  LIG1        0.0064
      9 C           1.4290    0.7130    0.0000 C.ar    1  LIG1        0.0403
     10 C           2.2880    0.2040    0.0000 C.ar    1  LIG1        0.1764
     11 C           2.2880   -0.7920    0.0000 C.ar    1  LIG1        0.1764
     12 O           3.2380   -1.0920    0.0000 O.3     1  LIG1       -0.4346
     13 C           3.8130   -0.2830    0.0000 C.3     1  LIG1        0.4294
     14 O           3.2380    0.5130    0.0000 O.3     1  LIG1       -0.4346
     15 C           1.4290   -1.2920    0.0000 C.ar    1  LIG1        0.0402
     16 C           0.5540   -0.7920    0.0000 C.ar    1  LIG1        0.0034
     17 S          -2.9040   -1.7170    0.0000 S.2     1  LIG1        0.0068
     18 C          -3.8170    0.2040    0.0000 C.3     1  LIG1        0.1239
@<TRIPOS>BOND
     1     1     2    1
     2     1     5   am
     3     1    18    1
     4     2     3    1
     5     2    17    2
     6     3     4    1
     7     4     5    1
     8     4     7    2
     9     5     6    2
    10     7     8    1
    11     8     9   ar
    12     8    16   ar
    13     9    10   ar
    14    10    11   ar
    15    10    14    1
    16    11    12    1
    17    11    15   ar
    18    12    13    1
    19    13    14    1
    20    15    16   ar
