@<TRIPOS>MOLECULE
30697_ChemDiv_4135-0021
 20 23 0 0 0
SMALL
GASTEIGER
Energy = 0

@<TRIPOS>ATOM
      1 C           2.7420   -0.4500    0.0000 C.2     1  LIG1        0.3563
      2 N           3.3330    0.3580    0.0000 N.2     1  LIG1       -0.0574
      3 C           4.3130   -0.0080    0.0000 C.3     1  LIG1        0.3182
      4 C           4.2540   -1.0040    0.0000 C.3     1  LIG1        0.3086
      5 N           3.2960   -1.2500    0.0000 N.pl3   1  LIG1       -0.0266
      6 C           1.7500   -0.4500    0.0000 C.ar    1  LIG1        0.0855
      7 C           1.2540    0.4130    0.0000 C.ar    1  LIG1        0.0075
      8 C           0.2540    0.4130    0.0000 C.ar    1  LIG1        0.0002
      9 C          -0.2460   -0.4080    0.0000 C.ar    1  LIG1        0.0002
     10 C          -1.2500   -0.3960    0.0000 C.ar    1  LIG1        0.0075
     11 C          -1.7330    0.4670    0.0000 C.ar    1  LIG1        0.0855
     12 C          -2.7380    0.4670    0.0000 C.2     1  LIG1        0.3563
     13 N          -3.2750    1.2630    0.0000 N.2     1  LIG1       -0.0574
     14 C          -4.2380    1.0250    0.0000 C.3     1  LIG1        0.3182
     15 C          -4.3170    0.0460    0.0000 C.3     1  LIG1        0.3086
     16 N          -3.3330   -0.3290    0.0000 N.pl3   1  LIG1       -0.0266
     17 C          -1.2170    1.3290    0.0000 C.ar    1  LIG1        0.0075
     18 C          -0.2130    1.3170    0.0000 C.ar    1  LIG1        0.0002
     19 C           0.2170   -1.3080    0.0000 C.ar    1  LIG1        0.0002
     20 C           1.2330   -1.3250    0.0000 C.ar    1  LIG1        0.0075
@<TRIPOS>BOND
     1     1     2    2
     2     1     5    1
     3     1     6    1
     4     2     3    1
     5     3     4    1
     6     4     5    1
     7     6     7   ar
     8     6    20   ar
     9     7     8   ar
    10     8     9   ar
    11     8    18   ar
    12     9    10   ar
    13     9    19   ar
    14    10    11   ar
    15    11    12    1
    16    11    17   ar
    17    12    13    2
    18    12    16    1
    19    13    14    1
    20    14    15    1
    21    15    16    1
    22    17    18   ar
    23    19    20   ar
