@<TRIPOS>MOLECULE
30699_ChemDiv_4135-0025
 26 30 0 0 0
SMALL
GASTEIGER
Energy = 0

@<TRIPOS>ATOM
      1 C          -0.0540    0.0130    0.0000 C.ar    1  LIG1        0.1790
      2 N          -0.6080   -0.8210    0.0000 N.ar    1  LIG1       -0.3070
      3 C          -1.5540   -0.5000    0.0000 C.ar    1  LIG1        0.0789
      4 C          -1.5540    0.5040    0.0000 C.ar    1  LIG1        0.0987
      5 N          -0.6080    0.8250    0.0000 N.ar    1  LIG1       -0.2239
      6 C          -2.4290    1.0250    0.0000 C.ar    1  LIG1        0.0191
      7 C          -3.3040    0.5040    0.0000 C.ar    1  LIG1        0.0015
      8 C          -3.3040   -0.5000    0.0000 C.ar    1  LIG1        0.0015
      9 C          -2.4290   -1.0080    0.0000 C.ar    1  LIG1        0.0173
     10 C          -2.4420   -2.0080    0.0000 C.ar    1  LIG1        0.0015
     11 C          -3.2960   -2.5040    0.0000 C.ar    1  LIG1        0.0000
     12 C          -4.1630   -1.9880    0.0000 C.ar    1  LIG1        0.0000
     13 C          -4.1630   -0.9920    0.0000 C.ar    1  LIG1        0.0000
     14 C          -4.1750    1.0080    0.0000 C.ar    1  LIG1        0.0000
     15 C          -4.1750    2.0040    0.0000 C.ar    1  LIG1        0.0000
     16 C          -3.3040    2.5080    0.0000 C.ar    1  LIG1        0.0000
     17 C          -2.4420    2.0130    0.0000 C.ar    1  LIG1        0.0015
     18 C          -0.3000   -1.7580    0.0000 C.3     1  LIG1        0.1320
     19 C           0.9460    0.0130    0.0000 C.ar    1  LIG1        0.1794
     20 O           1.5330   -0.7710    0.0000 O.2     1  LIG1       -0.4476
     21 C           2.4830   -0.5130    0.0000 C.ar    1  LIG1        0.1799
     22 C           2.5130    0.4540    0.0000 C.ar    1  LIG1        0.0437
     23 C           1.5330    0.8250    0.0000 C.ar    1  LIG1        0.0438
     24 C           3.2750   -1.1130    0.0000 C.2     1  LIG1        0.2077
     25 O           3.1670   -2.1290    0.0000 O.2     1  LIG1       -0.2881
     26 C           4.1710   -0.6880    0.0000 C.3     1  LIG1        0.0806
@<TRIPOS>BOND
     1     1     2   ar
     2     1     5   ar
     3     1    19    1
     4     2     3   ar
     5     2    18    1
     6     3     4   ar
     7     3     9   ar
     8     4     5   ar
     9     4     6   ar
    10     6     7   ar
    11     6    17   ar
    12     7     8   ar
    13     7    14   ar
    14     8     9   ar
    15     8    13   ar
    16     9    10   ar
    17    10    11   ar
    18    11    12   ar
    19    12    13   ar
    20    14    15   ar
    21    15    16   ar
    22    16    17   ar
    23    19    20   ar
    24    19    23   ar
    25    20    21   ar
    26    21    22   ar
    27    21    24    1
    28    22    23   ar
    29    24    25    2
    30    24    26    1
