@<TRIPOS>MOLECULE
30704_ChemDiv_6049-1654
 32 36 0 0 0
SMALL
GASTEIGER
Energy = 0

@<TRIPOS>ATOM
      1 C           2.0670   -0.0330    0.0000 C.ar    1  LIG1        0.2019
      2 O           3.0710   -0.0040    0.0000 O.2     1  LIG1       -0.4164
      3 C           3.5330    0.8630    0.0000 C.ar    1  LIG1        0.3458
      4 C           2.9750    1.7170    0.0000 C.ar    1  LIG1        0.0761
      5 C           2.0170    1.6670    0.0000 C.ar    1  LIG1        0.0094
      6 C           1.5500    0.7880    0.0000 C.ar    1  LIG1        0.0425
      7 C           1.4880    2.5080    0.0000 C.ar    1  LIG1        0.0003
      8 C           1.9130    3.3920    0.0000 C.ar    1  LIG1        0.0000
      9 C           2.9250    3.4290    0.0000 C.ar    1  LIG1        0.0002
     10 C           3.4250    2.5960    0.0000 C.ar    1  LIG1        0.0065
     11 O           4.5330    0.9330    0.0000 O.2     1  LIG1       -0.2445
     12 C           1.5880   -0.8960    0.0000 C.2     1  LIG1        0.2842
     13 N           0.5880   -0.8960    0.0000 N.am    1  LIG1       -0.2620
     14 C           0.1130   -0.0130    0.0000 C.3     1  LIG1        0.1568
     15 C          -0.9040    0.0170    0.0000 C.3     1  LIG1        0.1612
     16 N          -1.4290   -0.8290    0.0000 N.4     1  LIG1        0.3820
     17 C          -2.4670   -0.8290    0.0000 C.3     1  LIG1        0.1331
     18 C          -2.9630    0.0250    0.0000 C.ar    1  LIG1        0.0328
     19 C          -3.9710    0.0540    0.0000 C.ar    1  LIG1        0.0016
     20 C          -4.4630    0.9460    0.0000 C.ar    1  LIG1       -0.0001
     21 C          -3.9580    1.8040    0.0000 C.ar    1  LIG1       -0.0000
     22 C          -2.9460    1.7880    0.0000 C.ar    1  LIG1       -0.0001
     23 C          -2.4670    0.9000    0.0000 C.ar    1  LIG1        0.0016
     24 C          -2.9960   -1.6790    0.0000 C.ar    1  LIG1        0.0328
     25 C          -4.0130   -1.6210    0.0000 C.ar    1  LIG1        0.0016
     26 C          -4.5380   -2.4670    0.0000 C.ar    1  LIG1       -0.0001
     27 C          -4.0500   -3.3630    0.0000 C.ar    1  LIG1       -0.0000
     28 C          -3.0540   -3.4250    0.0000 C.ar    1  LIG1       -0.0001
     29 C          -2.5250   -2.5630    0.0000 C.ar    1  LIG1        0.0016
     30 C          -0.9540   -1.7040    0.0000 C.3     1  LIG1        0.1612
     31 C           0.0580   -1.7420    0.0000 C.3     1  LIG1        0.1568
     32 O           2.1080   -1.7540    0.0000 O.2     1  LIG1       -0.2666
@<TRIPOS>BOND
     1     1     2   ar
     2     1     6   ar
     3     1    12    1
     4     2     3   ar
     5     3     4   ar
     6     3    11    2
     7     4     5   ar
     8     4    10   ar
     9     5     6   ar
    10     5     7   ar
    11     7     8   ar
    12     8     9   ar
    13     9    10   ar
    14    12    13   am
    15    12    32    2
    16    13    14    1
    17    13    31    1
    18    14    15    1
    19    15    16    1
    20    16    17    1
    21    16    30    1
    22    17    18    1
    23    17    24    1
    24    18    19   ar
    25    18    23   ar
    26    19    20   ar
    27    20    21   ar
    28    21    22   ar
    29    22    23   ar
    30    24    25   ar
    31    24    29   ar
    32    25    26   ar
    33    26    27   ar
    34    27    28   ar
    35    28    29   ar
    36    30    31    1
