@<TRIPOS>MOLECULE
30700_ChemDiv_6049-1057
 29 33 0 0 0
SMALL
GASTEIGER
Energy = 0

@<TRIPOS>ATOM
      1 C           0.2460    2.9330    0.0000 C.ar    1  LIG1        0.1295
      2 C          -0.2540    3.8000    0.0000 C.ar    1  LIG1        0.3502
      3 O          -1.2580    3.8000    0.0000 O.2     1  LIG1       -0.4209
      4 C          -1.7580    2.9330    0.0000 C.ar    1  LIG1        0.1487
      5 C          -1.2580    2.0710    0.0000 C.ar    1  LIG1        0.0350
      6 C          -0.2540    2.0710    0.0000 C.ar    1  LIG1        0.0141
      7 C          -1.7580    1.2000    0.0000 C.ar    1  LIG1        0.0030
      8 C          -2.7580    1.2000    0.0000 C.ar    1  LIG1        0.0002
      9 C          -3.2580    2.0710    0.0000 C.ar    1  LIG1        0.0031
     10 C          -2.7580    2.9330    0.0000 C.ar    1  LIG1        0.0376
     11 O           0.2540    4.6670    0.0000 O.2     1  LIG1       -0.2443
     12 C           1.2420    2.9330    0.0000 C.2     1  LIG1        0.2557
     13 N           1.7420    2.0710    0.0000 N.am    1  LIG1       -0.2643
     14 C           1.2420    1.2080    0.0000 C.3     1  LIG1        0.1567
     15 C           1.7420    0.3420    0.0000 C.3     1  LIG1        0.1610
     16 N           2.7460    0.3420    0.0000 N.4     1  LIG1        0.3834
     17 C           3.2540   -0.5330    0.0000 C.3     1  LIG1        0.1664
     18 C           2.7540   -1.4040    0.0000 C.ar    1  LIG1        0.0376
     19 C           3.2540   -2.2670    0.0000 C.ar    1  LIG1        0.0416
     20 C           2.7540   -3.1330    0.0000 C.ar    1  LIG1        0.1763
     21 C           1.7580   -3.1380    0.0000 C.ar    1  LIG1        0.1764
     22 O           1.4500   -4.0880    0.0000 O.3     1  LIG1       -0.4346
     23 C           2.2500   -4.6670    0.0000 C.3     1  LIG1        0.4294
     24 O           3.0630   -4.0830    0.0000 O.3     1  LIG1       -0.4346
     25 C           1.2580   -2.2710    0.0000 C.ar    1  LIG1        0.0401
     26 C           1.7580   -1.4080    0.0000 C.ar    1  LIG1        0.0048
     27 C           3.2460    1.2080    0.0000 C.3     1  LIG1        0.1610
     28 C           2.7460    2.0710    0.0000 C.3     1  LIG1        0.1567
     29 O           1.7420    3.8000    0.0000 O.2     1  LIG1       -0.2697
@<TRIPOS>BOND
     1     1     2   ar
     2     1     6   ar
     3     1    12    1
     4     2     3   ar
     5     2    11    2
     6     3     4   ar
     7     4     5   ar
     8     4    10   ar
     9     5     6   ar
    10     5     7   ar
    11     7     8   ar
    12     8     9   ar
    13     9    10   ar
    14    12    13   am
    15    12    29    2
    16    13    14    1
    17    13    28    1
    18    14    15    1
    19    15    16    1
    20    16    17    1
    21    16    27    1
    22    17    18    1
    23    18    19   ar
    24    18    26   ar
    25    19    20   ar
    26    20    21   ar
    27    20    24    1
    28    21    22    1
    29    21    25   ar
    30    22    23    1
    31    23    24    1
    32    25    26   ar
    33    27    28    1
