@<TRIPOS>MOLECULE
30707_ChemDiv_4206-0017
 33 37 0 0 0
SMALL
GASTEIGER
Energy = 0

@<TRIPOS>ATOM
      1 C           2.1710    1.8080    0.0000 C.ar    1  LIG1        0.1205
      2 C           1.3080    2.2880    0.0000 C.ar    1  LIG1        0.1028
      3 N           0.4540    1.8080    0.0000 N.ar    1  LIG1       -0.2183
      4 C           0.4540    0.7920    0.0000 C.ar    1  LIG1        0.2110
      5 N           1.3080    0.2790    0.0000 N.ar    1  LIG1       -0.1218
      6 N           2.1710    0.7920    0.0000 N.ar    1  LIG1       -0.1445
      7 S          -0.4290    0.2630    0.0000 S.3     1  LIG1       -0.0642
      8 C          -0.4290   -0.7540    0.0000 C.3     1  LIG1        0.1520
      9 C          -1.2880   -1.2420    0.0000 C.2     1  LIG1        0.2571
     10 N          -1.2880   -2.2580    0.0000 N.am    1  LIG1       -0.1754
     11 C          -2.1540   -2.7420    0.0000 C.ar    1  LIG1        0.1074
     12 C          -3.0130   -2.2580    0.0000 C.ar    1  LIG1        0.1569
     13 C          -3.8790   -2.7420    0.0000 C.ar    1  LIG1        0.0751
     14 C          -3.8790   -3.7500    0.0000 C.ar    1  LIG1        0.1418
     15 C          -3.0130   -4.2420    0.0000 C.ar    1  LIG1        0.0384
     16 C          -2.1540   -3.7500    0.0000 C.ar    1  LIG1        0.0228
     17 O          -4.7630   -4.2630    0.0000 O.3     1  LIG1       -0.4713
     18 C          -4.7630   -5.2790    0.0000 C.3     1  LIG1        0.2525
     19 O          -3.0130   -1.2420    0.0000 O.3     1  LIG1       -0.4700
     20 C          -3.8790   -0.7540    0.0000 C.3     1  LIG1        0.2525
     21 O          -2.1540   -0.7540    0.0000 O.2     1  LIG1       -0.2720
     22 C           1.3080    3.3080    0.0000 C.ar    1  LIG1        0.0193
     23 C           2.1710    3.7880    0.0000 C.ar    1  LIG1        0.0015
     24 C           3.0330    3.3080    0.0000 C.ar    1  LIG1        0.0016
     25 C           3.0330    2.2880    0.0000 C.ar    1  LIG1        0.0209
     26 C           3.8960    1.8080    0.0000 C.ar    1  LIG1        0.0016
     27 C           4.7580    2.2880    0.0000 C.ar    1  LIG1        0.0000
     28 C           4.7580    3.3080    0.0000 C.ar    1  LIG1        0.0000
     29 C           3.8960    3.7880    0.0000 C.ar    1  LIG1        0.0000
     30 C           2.1710    4.7920    0.0000 C.ar    1  LIG1        0.0000
     31 C           1.3080    5.2790    0.0000 C.ar    1  LIG1        0.0000
     32 C           0.4540    4.7920    0.0000 C.ar    1  LIG1        0.0000
     33 C           0.4540    3.7880    0.0000 C.ar    1  LIG1        0.0015
@<TRIPOS>BOND
     1     1     2   ar
     2     1     6   ar
     3     1    25   ar
     4     2     3   ar
     5     2    22   ar
     6     3     4   ar
     7     4     5   ar
     8     4     7    1
     9     5     6   ar
    10     7     8    1
    11     8     9    1
    12     9    10   am
    13     9    21    2
    14    10    11    1
    15    11    12   ar
    16    11    16   ar
    17    12    13   ar
    18    12    19    1
    19    13    14   ar
    20    14    15   ar
    21    14    17    1
    22    15    16   ar
    23    17    18    1
    24    19    20    1
    25    22    23   ar
    26    22    33   ar
    27    23    24   ar
    28    23    30   ar
    29    24    25   ar
    30    24    29   ar
    31    25    26   ar
    32    26    27   ar
    33    27    28   ar
    34    28    29   ar
    35    30    31   ar
    36    31    32   ar
    37    32    33   ar
