@<TRIPOS>MOLECULE
30702_ChemDiv_6049-1493
 20 22 0 0 0
SMALL
GASTEIGER
Energy = 0

@<TRIPOS>ATOM
      1 C           1.0170   -0.8750    0.0000 C.ar    1  LIG1        0.2019
      2 O           2.0290   -0.8500    0.0000 O.2     1  LIG1       -0.4164
      3 C           2.5040    0.0290    0.0000 C.ar    1  LIG1        0.3458
      4 C           1.9380    0.8960    0.0000 C.ar    1  LIG1        0.0761
      5 C           0.9670    0.8420    0.0000 C.ar    1  LIG1        0.0094
      6 C           0.4960   -0.0500    0.0000 C.ar    1  LIG1        0.0425
      7 C           0.4290    1.7000    0.0000 C.ar    1  LIG1        0.0003
      8 C           0.8630    2.5880    0.0000 C.ar    1  LIG1        0.0000
      9 C           1.8830    2.6290    0.0000 C.ar    1  LIG1        0.0002
     10 C           2.3960    1.7880    0.0000 C.ar    1  LIG1        0.0065
     11 O           3.5130    0.0920    0.0000 O.2     1  LIG1       -0.2445
     12 C           0.5330   -1.7540    0.0000 C.2     1  LIG1        0.2842
     13 N          -0.4830   -1.7540    0.0000 N.am    1  LIG1       -0.2620
     14 C          -0.9790   -0.9130    0.0000 C.3     1  LIG1        0.1568
     15 C          -1.9500   -0.9380    0.0000 C.3     1  LIG1        0.1608
     16 N          -2.4250   -1.7670    0.0000 N.4     1  LIG1        0.3847
     17 C          -1.9500   -2.6250    0.0000 C.3     1  LIG1        0.1608
     18 C          -0.9960   -2.6250    0.0000 C.3     1  LIG1        0.1568
     19 C          -3.5170   -1.7540    0.0000 C.3     1  LIG1        0.2024
     20 O           1.0580   -2.6210    0.0000 O.2     1  LIG1       -0.2666
@<TRIPOS>BOND
     1     1     2   ar
     2     1     6   ar
     3     1    12    1
     4     2     3   ar
     5     3     4   ar
     6     3    11    2
     7     4     5   ar
     8     4    10   ar
     9     5     6   ar
    10     5     7   ar
    11     7     8   ar
    12     8     9   ar
    13     9    10   ar
    14    12    13   am
    15    12    20    2
    16    13    14    1
    17    13    18    1
    18    14    15    1
    19    15    16    1
    20    16    17    1
    21    16    19    1
    22    17    18    1
