@<TRIPOS>MOLECULE
30701_ChemDiv_8009-4231
 24 28 0 0 0
SMALL
GASTEIGER
Energy = 0

@<TRIPOS>ATOM
      1 N           0.4250    0.4250    0.0000 N.ar    1  LIG1       -0.3090
      2 C           0.9250    1.2290    0.0000 C.ar    1  LIG1        0.1789
      3 N           0.4420    2.0170    0.0000 N.ar    1  LIG1       -0.2239
      4 C          -0.9540    1.2290    0.0000 C.ar    1  LIG1        0.0987
      5 C          -0.4880    0.4250    0.0000 C.ar    1  LIG1        0.0789
      6 C          -0.9710   -0.4040    0.0000 C.ar    1  LIG1        0.0173
      7 C          -1.9250   -0.4040    0.0000 C.ar    1  LIG1        0.0015
      8 C          -2.3920    0.4130    0.0000 C.ar    1  LIG1        0.0015
      9 C          -1.9130    1.2290    0.0000 C.ar    1  LIG1        0.0191
     10 C          -2.3920    2.0750    0.0000 C.ar    1  LIG1        0.0015
     11 C          -3.3420    2.0750    0.0000 C.ar    1  LIG1        0.0000
     12 C          -3.8040    1.2380    0.0000 C.ar    1  LIG1        0.0000
     13 C          -3.3130    0.4130    0.0000 C.ar    1  LIG1        0.0000
     14 C          -2.3750   -1.2380    0.0000 C.ar    1  LIG1        0.0000
     15 C          -1.9130   -2.0710    0.0000 C.ar    1  LIG1        0.0000
     16 C          -0.9710   -2.0710    0.0000 C.ar    1  LIG1        0.0000
     17 C          -0.4880   -1.2380    0.0000 C.ar    1  LIG1        0.0015
     18 C           1.8790    1.2290    0.0000 C.ar    1  LIG1        0.1794
     19 O           2.3790    2.0580    0.0000 O.2     1  LIG1       -0.4474
     20 C           3.3380    2.0580    0.0000 C.ar    1  LIG1        0.1798
     21 C           3.8000    1.2380    0.0000 C.ar    1  LIG1        0.0439
     22 C           2.3460    0.4250    0.0000 C.ar    1  LIG1        0.0439
     23 C           0.8960   -0.4330    0.0000 C.3     1  LIG1        0.1077
     24 C           1.8960   -0.4330    0.0000 C.3     1  LIG1        0.0265
@<TRIPOS>BOND
     1     1     2   ar
     2     1     5   ar
     3     1    23    1
     4     2     3   ar
     5     2    18    1
     6     3     4   ar
     7     4     5   ar
     8     4     9   ar
     9     5     6   ar
    10     6     7   ar
    11     6    17   ar
    12     7     8   ar
    13     7    14   ar
    14     8     9   ar
    15     8    13   ar
    16     9    10   ar
    17    10    11   ar
    18    11    12   ar
    19    12    13   ar
    20    14    15   ar
    21    15    16   ar
    22    16    17   ar
    23    18    19   ar
    24    18    22   ar
    25    19    20   ar
    26    20    21   ar
    27    21    22   ar
    28    23    24    1
