@<TRIPOS>MOLECULE
30705_ChemDiv_5454-0012
 25 27 0 0 0
SMALL
GASTEIGER
Energy = 0

@<TRIPOS>ATOM
      1 N           1.2380   -2.4670    0.0000 N.ar    1  LIG1       -0.1754
      2 C           0.9250   -1.5210    0.0000 C.ar    1  LIG1        0.2631
      3 N           1.7420   -0.9250    0.0000 N.ar    1  LIG1       -0.1252
      4 N           2.5460   -1.5210    0.0000 N.ar    1  LIG1       -0.1948
      5 C           2.2460   -2.4670    0.0000 C.ar    1  LIG1        0.2602
      6 N           2.8210   -3.2790    0.0000 N.pl3   1  LIG1       -0.0859
      7 C           3.4960   -1.2040    0.0000 C.ar    1  LIG1        0.0858
      8 C           3.7000   -0.2290    0.0000 C.ar    1  LIG1        0.0192
      9 C           4.6500    0.0880    0.0000 C.ar    1  LIG1        0.0015
     10 C           5.3920   -0.5880    0.0000 C.ar    1  LIG1        0.0001
     11 C           5.1920   -1.5580    0.0000 C.ar    1  LIG1        0.0015
     12 C           4.2460   -1.8750    0.0000 C.ar    1  LIG1        0.0192
     13 N          -0.0250   -1.2040    0.0000 N.am    1  LIG1       -0.1381
     14 C          -0.2330   -0.2130    0.0000 C.2     1  LIG1        0.2717
     15 C          -1.1830    0.0880    0.0000 C.2     1  LIG1        0.0599
     16 C          -1.3830    1.0710    0.0000 C.2     1  LIG1        0.0047
     17 C          -2.3290    1.3710    0.0000 C.ar    1  LIG1        0.0003
     18 C          -2.5380    2.3460    0.0000 C.ar    1  LIG1        0.0031
     19 C          -3.4830    2.6500    0.0000 C.ar    1  LIG1        0.0369
     20 C          -4.2250    2.0000    0.0000 C.ar    1  LIG1        0.1387
     21 C          -4.0250    1.0210    0.0000 C.ar    1  LIG1        0.0369
     22 C          -3.0790    0.7040    0.0000 C.ar    1  LIG1        0.0031
     23 O          -5.1920    2.3000    0.0000 O.3     1  LIG1       -0.4714
     24 C          -5.3960    3.2830    0.0000 C.3     1  LIG1        0.2525
     25 O           0.5130    0.4380    0.0000 O.2     1  LIG1       -0.2679
@<TRIPOS>BOND
     1     1     2   ar
     2     1     5   ar
     3     2     3   ar
     4     2    13    1
     5     3     4   ar
     6     4     5   ar
     7     4     7    1
     8     5     6    1
     9     7     8   ar
    10     7    12   ar
    11     8     9   ar
    12     9    10   ar
    13    10    11   ar
    14    11    12   ar
    15    13    14   am
    16    14    15    1
    17    14    25    2
    18    15    16    2
    19    16    17    1
    20    17    18   ar
    21    17    22   ar
    22    18    19   ar
    23    19    20   ar
    24    20    21   ar
    25    20    23    1
    26    21    22   ar
    27    23    24    1
