@<TRIPOS>MOLECULE
30703_ChemDiv_8009-4578
 23 27 0 0 0
SMALL
GASTEIGER
Energy = 0

@<TRIPOS>ATOM
      1 N           0.2040   -1.4750    0.0000 N.ar    1  LIG1       -0.3070
      2 C           1.0130   -0.9130    0.0000 C.ar    1  LIG1        0.1790
      3 N           0.6960    0.0380    0.0000 N.ar    1  LIG1       -0.2239
      4 C          -0.2960    0.0380    0.0000 C.ar    1  LIG1        0.0987
      5 C          -0.6040   -0.8920    0.0000 C.ar    1  LIG1        0.0789
      6 C          -1.6000   -1.1080    0.0000 C.ar    1  LIG1        0.0173
      7 C          -2.2630   -0.3630    0.0000 C.ar    1  LIG1        0.0015
      8 C          -1.9540    0.5880    0.0000 C.ar    1  LIG1        0.0015
      9 C          -0.9710    0.8040    0.0000 C.ar    1  LIG1        0.0191
     10 C          -0.6540    1.7380    0.0000 C.ar    1  LIG1        0.0015
     11 C          -1.3290    2.5000    0.0000 C.ar    1  LIG1        0.0000
     12 C          -2.3080    2.2920    0.0000 C.ar    1  LIG1        0.0000
     13 C          -2.6210    1.3460    0.0000 C.ar    1  LIG1        0.0000
     14 C          -3.2380   -0.5580    0.0000 C.ar    1  LIG1        0.0000
     15 C          -3.5580   -1.5040    0.0000 C.ar    1  LIG1        0.0000
     16 C          -2.8830   -2.2630    0.0000 C.ar    1  LIG1        0.0000
     17 C          -1.9130   -2.0500    0.0000 C.ar    1  LIG1        0.0015
     18 C           1.9330   -1.2790    0.0000 C.ar    1  LIG1        0.1794
     19 O           2.2920   -2.2000    0.0000 O.2     1  LIG1       -0.4474
     20 C           3.3000   -2.1420    0.0000 C.ar    1  LIG1        0.1798
     21 C           3.5540   -1.2000    0.0000 C.ar    1  LIG1        0.0439
     22 C           2.7210   -0.6420    0.0000 C.ar    1  LIG1        0.0439
     23 C           0.2170   -2.4960    0.0000 C.3     1  LIG1        0.1320
@<TRIPOS>BOND
     1     1     2   ar
     2     1     5   ar
     3     1    23    1
     4     2     3   ar
     5     2    18    1
     6     3     4   ar
     7     4     5   ar
     8     4     9   ar
     9     5     6   ar
    10     6     7   ar
    11     6    17   ar
    12     7     8   ar
    13     7    14   ar
    14     8     9   ar
    15     8    13   ar
    16     9    10   ar
    17    10    11   ar
    18    11    12   ar
    19    12    13   ar
    20    14    15   ar
    21    15    16   ar
    22    16    17   ar
    23    18    19   ar
    24    18    22   ar
    25    19    20   ar
    26    20    21   ar
    27    21    22   ar
