@<TRIPOS>MOLECULE
30709_ChemDiv_4214-0370
 19 21 0 0 0
SMALL
GASTEIGER
Energy = 0

@<TRIPOS>ATOM
      1 C           0.3250   -0.4750    0.0000 C.ar    1  LIG1        0.1472
      2 C           0.3250    0.5040    0.0000 C.ar    1  LIG1        0.0305
      3 C           1.1630    0.9750    0.0000 C.ar    1  LIG1       -0.0167
      4 C           2.0080    0.5040    0.0000 C.ar    1  LIG1        0.0499
      5 C           2.0080   -0.4750    0.0000 C.ar    1  LIG1        0.3414
      6 O           1.1710   -0.9500    0.0000 O.2     1  LIG1       -0.4215
      7 O           2.8540   -0.9500    0.0000 O.2     1  LIG1       -0.2449
      8 C           2.8460    0.9920    0.0000 C.3     1  LIG1        0.0326
      9 C           3.6920    0.5210    0.0000 C.3     1  LIG1        0.0052
     10 C           1.1630    1.9380    0.0000 C.3     1  LIG1        0.0310
     11 C          -0.5080    0.9580    0.0000 C.ar    1  LIG1        0.0055
     12 C          -1.3460    0.4920    0.0000 C.ar    1  LIG1        0.0335
     13 C          -1.3460   -0.4790    0.0000 C.ar    1  LIG1        0.1440
     14 C          -0.5080   -0.9670    0.0000 C.ar    1  LIG1        0.0472
     15 C          -0.5080   -1.9330    0.0000 C.3     1  LIG1        0.0375
     16 O          -2.1670   -0.9670    0.0000 O.2     1  LIG1       -0.4510
     17 C          -3.0130   -0.4750    0.0000 C.ar    1  LIG1        0.1752
     18 C          -3.0130    0.4920    0.0000 C.ar    1  LIG1        0.0187
     19 C          -3.6960    1.1710    0.0000 C.3     1  LIG1        0.0344
@<TRIPOS>BOND
     1     1     2   ar
     2     1     6   ar
     3     1    14   ar
     4     2     3   ar
     5     2    11   ar
     6     3     4   ar
     7     3    10    1
     8     4     5   ar
     9     4     8    1
    10     5     6   ar
    11     5     7    2
    12     8     9    1
    13    11    12   ar
    14    12    13   ar
    15    12    18   ar
    16    13    14   ar
    17    13    16   ar
    18    14    15    1
    19    16    17   ar
    20    17    18   ar
    21    18    19    1
