@<TRIPOS>MOLECULE
30719_ChemDiv_5436-0864
 17 19 0 0 0
SMALL
GASTEIGER
Energy = 0

@<TRIPOS>ATOM
      1 C           1.1960   -0.5040    0.0000 C.ar    1  LIG1       -0.0167
      2 C           0.3330    0.0080    0.0000 C.ar    1  LIG1        0.0308
      3 C           0.3330    1.0000    0.0000 C.ar    1  LIG1        0.1514
      4 O           1.1960    1.5000    0.0000 O.2     1  LIG1       -0.4212
      5 C           2.0710    1.0000    0.0000 C.ar    1  LIG1        0.3414
      6 C           2.0710    0.0080    0.0000 C.ar    1  LIG1        0.0503
      7 C           2.9250   -0.5040    0.0000 C.3     1  LIG1        0.0375
      8 O           2.9420    1.5000    0.0000 O.2     1  LIG1       -0.2448
      9 C          -0.5330    1.5000    0.0000 C.ar    1  LIG1        0.0750
     10 C          -1.4040    1.0000    0.0000 C.ar    1  LIG1        0.1482
     11 C          -1.4040    0.0080    0.0000 C.ar    1  LIG1        0.0338
     12 C          -0.5330   -0.5040    0.0000 C.ar    1  LIG1        0.0055
     13 C          -2.3540   -0.3130    0.0000 C.ar    1  LIG1        0.0187
     14 C          -2.9460    0.4920    0.0000 C.ar    1  LIG1        0.1753
     15 O          -2.3540    1.3000    0.0000 O.2     1  LIG1       -0.4507
     16 C          -2.6630   -1.2670    0.0000 C.3     1  LIG1        0.0344
     17 C           1.1960   -1.4960    0.0000 C.3     1  LIG1        0.0310
@<TRIPOS>BOND
     1     1     2   ar
     2     1     6   ar
     3     1    17    1
     4     2     3   ar
     5     2    12   ar
     6     3     4   ar
     7     3     9   ar
     8     4     5   ar
     9     5     6   ar
    10     5     8    2
    11     6     7    1
    12     9    10   ar
    13    10    11   ar
    14    10    15   ar
    15    11    12   ar
    16    11    13   ar
    17    13    14   ar
    18    13    16    1
    19    14    15   ar
