@<TRIPOS>MOLECULE
30715_ChemDiv_5436-0857
 18 20 0 0 0
SMALL
GASTEIGER
Energy = 0

@<TRIPOS>ATOM
      1 C          -0.9130    0.2670    0.0000 C.ar    1  LIG1        0.0334
      2 C          -0.9130    1.2540    0.0000 C.ar    1  LIG1        0.1476
      3 O          -1.8630    1.5670    0.0000 O.2     1  LIG1       -0.4580
      4 C          -2.4670    0.7670    0.0000 C.ar    1  LIG1        0.1193
      5 C          -1.8630   -0.0380    0.0000 C.ar    1  LIG1        0.0114
      6 C          -2.1670   -0.9960    0.0000 C.3     1  LIG1        0.0340
      7 C          -3.4460    0.7670    0.0000 C.3     1  LIG1        0.0721
      8 C          -0.0460    1.7460    0.0000 C.ar    1  LIG1        0.0750
      9 C           0.8210    1.2540    0.0000 C.ar    1  LIG1        0.1514
     10 C           0.8210    0.2670    0.0000 C.ar    1  LIG1        0.0311
     11 C           1.6920   -0.2460    0.0000 C.ar    1  LIG1       -0.0128
     12 C           2.5670    0.2670    0.0000 C.ar    1  LIG1        0.0781
     13 C           2.5670    1.2540    0.0000 C.ar    1  LIG1        0.3456
     14 O           1.6920    1.7460    0.0000 O.2     1  LIG1       -0.4209
     15 O           3.4420    1.7460    0.0000 O.2     1  LIG1       -0.2445
     16 C           1.6920   -1.2420    0.0000 C.3     1  LIG1        0.0267
     17 C           2.5670   -1.7420    0.0000 C.3     1  LIG1        0.0050
     18 C          -0.0460   -0.2460    0.0000 C.ar    1  LIG1        0.0055
@<TRIPOS>BOND
     1     1     2   ar
     2     1     5   ar
     3     1    18   ar
     4     2     3   ar
     5     2     8   ar
     6     3     4   ar
     7     4     5   ar
     8     4     7    1
     9     5     6    1
    10     8     9   ar
    11     9    10   ar
    12     9    14   ar
    13    10    11   ar
    14    10    18   ar
    15    11    12   ar
    16    11    16    1
    17    12    13   ar
    18    13    14   ar
    19    13    15    2
    20    16    17    1
