@<TRIPOS>MOLECULE
30713_ChemDiv_5436-0856
 17 19 0 0 0
SMALL
GASTEIGER
Energy = 0

@<TRIPOS>ATOM
      1 C           0.3330    1.2540    0.0000 C.ar    1  LIG1        0.1514
      2 C           0.3330    0.2670    0.0000 C.ar    1  LIG1        0.0311
      3 C           1.2000   -0.2460    0.0000 C.ar    1  LIG1       -0.0128
      4 C           2.0750    0.2670    0.0000 C.ar    1  LIG1        0.0781
      5 C           2.0750    1.2540    0.0000 C.ar    1  LIG1        0.3456
      6 O           1.2000    1.7460    0.0000 O.2     1  LIG1       -0.4209
      7 O           2.9460    1.7460    0.0000 O.2     1  LIG1       -0.2445
      8 C           1.2000   -1.2420    0.0000 C.3     1  LIG1        0.0267
      9 C           2.0750   -1.7420    0.0000 C.3     1  LIG1        0.0050
     10 C          -0.5330   -0.2460    0.0000 C.ar    1  LIG1        0.0055
     11 C          -1.4000    0.2670    0.0000 C.ar    1  LIG1        0.0338
     12 C          -1.4000    1.2540    0.0000 C.ar    1  LIG1        0.1482
     13 C          -0.5330    1.7460    0.0000 C.ar    1  LIG1        0.0750
     14 O          -2.3500    1.5630    0.0000 O.2     1  LIG1       -0.4507
     15 C          -2.9500    0.7670    0.0000 C.ar    1  LIG1        0.1753
     16 C          -2.3500   -0.0380    0.0000 C.ar    1  LIG1        0.0187
     17 C          -2.6540   -0.9960    0.0000 C.3     1  LIG1        0.0344
@<TRIPOS>BOND
     1     1     2   ar
     2     1     6   ar
     3     1    13   ar
     4     2     3   ar
     5     2    10   ar
     6     3     4   ar
     7     3     8    1
     8     4     5   ar
     9     5     6   ar
    10     5     7    2
    11     8     9    1
    12    10    11   ar
    13    11    12   ar
    14    11    16   ar
    15    12    13   ar
    16    12    14   ar
    17    14    15   ar
    18    15    16   ar
    19    16    17    1
