@<TRIPOS>MOLECULE
30711_ChemDiv_4986-0813
 23 26 0 0 0
SMALL
GASTEIGER
Energy = 0

@<TRIPOS>ATOM
      1 C           1.6460    1.0210    0.0000 C.ar    1  LIG1        0.0543
      2 C           0.7710    0.5130    0.0000 C.ar    1  LIG1       -0.0163
      3 C          -0.0920    1.0210    0.0000 C.ar    1  LIG1        0.0308
      4 C          -0.0920    2.0130    0.0000 C.ar    1  LIG1        0.1514
      5 O           0.7710    2.5130    0.0000 O.2     1  LIG1       -0.4212
      6 C           1.6460    2.0130    0.0000 C.ar    1  LIG1        0.3417
      7 O           2.5170    2.5130    0.0000 O.2     1  LIG1       -0.2448
      8 C          -0.9580    2.5130    0.0000 C.ar    1  LIG1        0.0750
      9 C          -1.8250    2.0130    0.0000 C.ar    1  LIG1        0.1482
     10 C          -1.8250    1.0210    0.0000 C.ar    1  LIG1        0.0338
     11 C          -0.9580    0.5130    0.0000 C.ar    1  LIG1        0.0055
     12 C          -2.7750    0.7040    0.0000 C.ar    1  LIG1        0.0187
     13 C          -3.3670    1.5080    0.0000 C.ar    1  LIG1        0.1753
     14 O          -2.7750    2.3170    0.0000 O.2     1  LIG1       -0.4507
     15 C          -3.0830   -0.2500    0.0000 C.3     1  LIG1        0.0344
     16 C           0.7710   -0.4790    0.0000 C.3     1  LIG1        0.0310
     17 C           2.5170    0.4960    0.0000 C.3     1  LIG1        0.0589
     18 C           2.5000   -0.4920    0.0000 C.ar    1  LIG1       -0.0176
     19 C           1.6460   -1.0170    0.0000 C.ar    1  LIG1       -0.0039
     20 C           1.6460   -2.0080    0.0000 C.ar    1  LIG1       -0.0003
     21 C           2.5000   -2.5080    0.0000 C.ar    1  LIG1       -0.0000
     22 C           3.3630   -2.0080    0.0000 C.ar    1  LIG1       -0.0003
     23 C           3.3630   -1.0040    0.0000 C.ar    1  LIG1       -0.0039
@<TRIPOS>BOND
     1     1     2   ar
     2     1     6   ar
     3     1    17    1
     4     2     3   ar
     5     2    16    1
     6     3     4   ar
     7     3    11   ar
     8     4     5   ar
     9     4     8   ar
    10     5     6   ar
    11     6     7    2
    12     8     9   ar
    13     9    10   ar
    14     9    14   ar
    15    10    11   ar
    16    10    12   ar
    17    12    13   ar
    18    12    15    1
    19    13    14   ar
    20    17    18    1
    21    18    19   ar
    22    18    23   ar
    23    19    20   ar
    24    20    21   ar
    25    21    22   ar
    26    22    23   ar
