@<TRIPOS>MOLECULE
30724_ChemDiv_8013-3892
 31 36 0 0 0
SMALL
GASTEIGER
Energy = 0

@<TRIPOS>ATOM
      1 C           1.8500    0.8880    0.0000 C.ar    1  LIG1        0.1295
      2 C           1.3380    0.0210    0.0000 C.ar    1  LIG1        0.3503
      3 O           1.8330   -0.8460    0.0000 O.2     1  LIG1       -0.4178
      4 C           2.8380   -0.8540    0.0000 C.ar    1  LIG1        0.1823
      5 C           3.3420    0.0130    0.0000 C.ar    1  LIG1        0.0381
      6 C           2.8460    0.8880    0.0000 C.ar    1  LIG1        0.0142
      7 C           4.3380    0.0080    0.0000 C.ar    1  LIG1        0.0032
      8 C           4.8420   -0.8540    0.0000 C.ar    1  LIG1        0.0033
      9 C           4.3330   -1.7250    0.0000 C.ar    1  LIG1        0.0401
     10 C           3.3290   -1.7170    0.0000 C.ar    1  LIG1        0.1731
     11 O           2.8250   -2.5830    0.0000 O.3     1  LIG1       -0.4683
     12 C           3.3210   -3.4540    0.0000 C.3     1  LIG1        0.2526
     13 O           0.3380    0.0290    0.0000 O.2     1  LIG1       -0.2443
     14 C           1.3500    1.7540    0.0000 C.2     1  LIG1        0.2557
     15 N           0.3460    1.7540    0.0000 N.am    1  LIG1       -0.2643
     16 C          -0.1580    0.8960    0.0000 C.3     1  LIG1        0.1567
     17 C          -1.1500    0.9000    0.0000 C.3     1  LIG1        0.1600
     18 N          -1.6500    1.7630    0.0000 N.4     1  LIG1        0.3718
     19 C          -2.6500    1.7630    0.0000 C.3     1  LIG1        0.0457
     20 C          -3.4330    2.4540    0.0000 C.3     1  LIG1        0.0512
     21 C          -4.4670    2.4750    0.0000 C.3     1  LIG1        0.0055
     22 C          -4.8460    1.5750    0.0000 C.3     1  LIG1        0.0004
     23 C          -4.0330    0.8960    0.0000 C.3     1  LIG1        0.0055
     24 C          -3.0330    0.8670    0.0000 C.3     1  LIG1        0.0512
     25 C          -4.2420    1.8040    0.0000 C.3     1  LIG1        0.0004
     26 C          -3.9000    2.6630    0.0000 C.3     1  LIG1        0.0055
     27 C          -2.9290    2.6420    0.0000 C.3     1  LIG1        0.0512
     28 C          -4.7170    3.4580    0.0000 C.3     1  LIG1        0.0004
     29 C          -1.1500    2.6290    0.0000 C.3     1  LIG1        0.1600
     30 C          -0.1500    2.6250    0.0000 C.3     1  LIG1        0.1567
     31 O           1.8540    2.6210    0.0000 O.2     1  LIG1       -0.2697
@<TRIPOS>BOND
     1     1     2   ar
     2     1     6   ar
     3     1    14    1
     4     2     3   ar
     5     2    13    2
     6     3     4   ar
     7     4     5   ar
     8     4    10   ar
     9     5     6   ar
    10     5     7   ar
    11     7     8   ar
    12     8     9   ar
    13     9    10   ar
    14    10    11    1
    15    11    12    1
    16    14    15   am
    17    14    31    2
    18    15    16    1
    19    15    30    1
    20    16    17    1
    21    17    18    1
    22    18    19    1
    23    18    29    1
    24    19    20    1
    25    19    24    1
    26    19    27    1
    27    20    21    1
    28    21    22    1
    29    21    28    1
    30    22    23    1
    31    23    24    1
    32    23    25    1
    33    25    26    1
    34    26    27    1
    35    26    28    1
    36    29    30    1
