@<TRIPOS>MOLECULE
30727_ChemDiv_4260-1038
 22 26 0 0 0
SMALL
GASTEIGER
Energy = 0

@<TRIPOS>ATOM
      1 N           0.7130    0.1830    0.0000 N.am    1  LIG1       -0.2590
      2 C          -0.1920   -0.3420    0.0000 C.2     1  LIG1        0.2284
      3 C          -1.0210    0.1420    0.0000 C.3     1  LIG1        0.0694
      4 C          -0.5130    0.9460    0.0000 C.3     1  LIG1        0.0086
      5 C          -1.0250    1.7130    0.0000 C.3     1  LIG1        0.0005
      6 C          -1.8920    1.9170    0.0000 C.3     1  LIG1        0.0000
      7 C          -2.4040    1.1380    0.0000 C.3     1  LIG1        0.0005
      8 C          -1.8500    0.4380    0.0000 C.3     1  LIG1        0.0086
      9 C          -3.4380    0.8670    0.0000 C.3     1  LIG1        0.0000
     10 C          -2.5290    0.5880    0.0000 C.3     1  LIG1        0.0005
     11 C          -1.9750   -0.1750    0.0000 C.3     1  LIG1        0.0086
     12 C          -1.9790    1.4130    0.0000 C.3     1  LIG1        0.0000
     13 O          -0.2000   -1.3830    0.0000 O.2     1  LIG1       -0.2746
     14 C           1.6040   -0.3420    0.0000 C.ar    1  LIG1        0.0498
     15 C           2.5380    0.1710    0.0000 C.ar    1  LIG1       -0.0084
     16 C           2.5380    1.2250    0.0000 C.3     1  LIG1        0.0294
     17 C           1.6290    1.7580    0.0000 C.3     1  LIG1        0.0266
     18 C           0.7130    1.2380    0.0000 C.3     1  LIG1        0.0985
     19 C           3.4330   -0.3670    0.0000 C.ar    1  LIG1       -0.0030
     20 C           3.4250   -1.3880    0.0000 C.ar    1  LIG1       -0.0002
     21 C           2.5210   -1.9130    0.0000 C.ar    1  LIG1        0.0013
     22 C           1.6040   -1.3830    0.0000 C.ar    1  LIG1        0.0146
@<TRIPOS>BOND
     1     1     2   am
     2     1    14    1
     3     1    18    1
     4     2     3    1
     5     2    13    2
     6     3     4    1
     7     3     8    1
     8     3    11    1
     9     4     5    1
    10     5     6    1
    11     5    12    1
    12     6     7    1
    13     7     8    1
    14     7     9    1
    15     9    10    1
    16    10    11    1
    17    10    12    1
    18    14    15   ar
    19    14    22   ar
    20    15    16    1
    21    15    19   ar
    22    16    17    1
    23    17    18    1
    24    19    20   ar
    25    20    21   ar
    26    21    22   ar
