@<TRIPOS>MOLECULE
30725_ChemDiv_4151-0489
 23 25 0 0 0
SMALL
GASTEIGER
Energy = 0

@<TRIPOS>ATOM
      1 N          -1.8250    0.3670    0.0000 N.am    1  LIG1       -0.2582
      2 C          -1.8460   -0.6210    0.0000 C.2     1  LIG1        0.2407
      3 C          -1.0630   -1.1830    0.0000 C.3     1  LIG1        0.1491
      4 S          -0.1880   -0.7830    0.0000 S.3     1  LIG1       -0.0824
      5 C           0.6210   -1.3670    0.0000 C.2     1  LIG1        0.1117
      6 N           1.5790   -0.9250    0.0000 N.am    1  LIG1       -0.2869
      7 C           1.6710    0.0880    0.0000 C.3     1  LIG1        0.1551
      8 C           2.5830    0.4750    0.0000 C.3     1  LIG1        0.1608
      9 N           3.4460   -0.1210    0.0000 N.4     1  LIG1        0.3847
     10 C           3.2920   -1.0670    0.0000 C.3     1  LIG1        0.1608
     11 C           2.3960   -1.5000    0.0000 C.3     1  LIG1        0.1551
     12 C           4.4130    0.2500    0.0000 C.3     1  LIG1        0.2024
     13 S           0.5580   -2.3670    0.0000 S.2     1  LIG1       -0.0279
     14 O          -2.6880   -1.1250    0.0000 O.2     1  LIG1       -0.2736
     15 C          -2.6670    0.8750    0.0000 C.ar    1  LIG1        0.0498
     16 C          -2.6670    1.8630    0.0000 C.ar    1  LIG1       -0.0084
     17 C          -1.8250    2.3710    0.0000 C.3     1  LIG1        0.0294
     18 C          -0.9460    1.8630    0.0000 C.3     1  LIG1        0.0266
     19 C          -0.9460    0.8750    0.0000 C.3     1  LIG1        0.0986
     20 C          -3.5540    2.3710    0.0000 C.ar    1  LIG1       -0.0030
     21 C          -4.4170    1.8630    0.0000 C.ar    1  LIG1       -0.0002
     22 C          -4.4170    0.8750    0.0000 C.ar    1  LIG1        0.0013
     23 C          -3.5540    0.3670    0.0000 C.ar    1  LIG1        0.0146
@<TRIPOS>BOND
     1     1     2   am
     2     1    15    1
     3     1    19    1
     4     2     3    1
     5     2    14    2
     6     3     4    1
     7     4     5    1
     8     5     6    1
     9     5    13    2
    10     6     7    1
    11     6    11    1
    12     7     8    1
    13     8     9    1
    14     9    10    1
    15     9    12    1
    16    10    11    1
    17    15    16   ar
    18    15    23   ar
    19    16    17    1
    20    16    20   ar
    21    17    18    1
    22    18    19    1
    23    20    21   ar
    24    21    22   ar
    25    22    23   ar
