@<TRIPOS>MOLECULE
30721_ChemDiv_4138-0188
 24 27 0 0 0
SMALL
GASTEIGER
Energy = 0

@<TRIPOS>ATOM
      1 C           1.2750    1.1880    0.0000 C.ar    1  LIG1        0.1350
      2 C           0.7080    2.0040    0.0000 C.ar    1  LIG1        0.1049
      3 C          -0.2540    1.6830    0.0000 C.ar    1  LIG1        0.0381
      4 C          -0.2540    0.6960    0.0000 C.ar    1  LIG1        0.0620
      5 N           0.7080    0.3880    0.0000 N.ar    1  LIG1       -0.3180
      6 C           1.0420   -0.5420    0.0000 C.3     1  LIG1        0.1329
      7 C           0.3790   -1.3130    0.0000 C.ar    1  LIG1        0.0004
      8 C           0.7040   -2.2500    0.0000 C.ar    1  LIG1       -0.0024
      9 C           0.0420   -3.0000    0.0000 C.ar    1  LIG1       -0.0003
     10 C          -0.9290   -2.8500    0.0000 C.ar    1  LIG1       -0.0000
     11 C          -1.2790   -1.8920    0.0000 C.ar    1  LIG1       -0.0003
     12 C          -0.6210   -1.1290    0.0000 C.ar    1  LIG1       -0.0024
     13 C          -1.1130    0.1960    0.0000 C.ar    1  LIG1        0.0204
     14 C          -1.9830    0.6960    0.0000 C.ar    1  LIG1        0.0384
     15 C          -1.9830    1.6830    0.0000 C.ar    1  LIG1        0.1389
     16 C          -1.1130    2.1880    0.0000 C.ar    1  LIG1        0.0399
     17 O          -2.8500    2.1630    0.0000 O.3     1  LIG1       -0.4714
     18 C          -3.7000    1.6500    0.0000 C.3     1  LIG1        0.2525
     19 N           1.1250    2.9250    0.0000 N.ar    1  LIG1       -0.2237
     20 C           2.1080    3.0040    0.0000 C.ar    1  LIG1        0.1809
     21 N           2.7080    2.2040    0.0000 N.ar    1  LIG1       -0.2750
     22 C           2.2880    1.2830    0.0000 C.ar    1  LIG1        0.2794
     23 O           2.8670    0.4750    0.0000 O.2     1  LIG1       -0.2653
     24 C           3.7000    2.3170    0.0000 C.3     1  LIG1        0.1352
@<TRIPOS>BOND
     1     1     2   ar
     2     1     5   ar
     3     1    22   ar
     4     2     3   ar
     5     2    19   ar
     6     3     4   ar
     7     3    16   ar
     8     4     5   ar
     9     4    13   ar
    10     5     6    1
    11     6     7    1
    12     7     8   ar
    13     7    12   ar
    14     8     9   ar
    15     9    10   ar
    16    10    11   ar
    17    11    12   ar
    18    13    14   ar
    19    14    15   ar
    20    15    16   ar
    21    15    17    1
    22    17    18    1
    23    19    20   ar
    24    20    21   ar
    25    21    22   ar
    26    21    24    1
    27    22    23    2
