@<TRIPOS>MOLECULE
30722_ChemDiv_8013-3795
 29 34 0 0 0
SMALL
GASTEIGER
Energy = 0

@<TRIPOS>ATOM
      1 C           1.8500    0.0250    0.0000 C.ar    1  LIG1        0.1295
      2 C           1.3420   -0.8460    0.0000 C.ar    1  LIG1        0.3502
      3 O           1.8380   -1.7130    0.0000 O.2     1  LIG1       -0.4209
      4 C           2.8380   -1.7170    0.0000 C.ar    1  LIG1        0.1487
      5 C           3.3460   -0.8500    0.0000 C.ar    1  LIG1        0.0350
      6 C           2.8500    0.0210    0.0000 C.ar    1  LIG1        0.0141
      7 C           4.3420   -0.8580    0.0000 C.ar    1  LIG1        0.0030
      8 C           4.8420   -1.7210    0.0000 C.ar    1  LIG1        0.0002
      9 C           4.3380   -2.5880    0.0000 C.ar    1  LIG1        0.0031
     10 C           3.3330   -2.5880    0.0000 C.ar    1  LIG1        0.0376
     11 O           0.3380   -0.8330    0.0000 O.2     1  LIG1       -0.2443
     12 C           1.3500    0.8880    0.0000 C.2     1  LIG1        0.2557
     13 N           0.3500    0.8920    0.0000 N.am    1  LIG1       -0.2643
     14 C          -0.1580    0.0290    0.0000 C.3     1  LIG1        0.1567
     15 C          -1.1540    0.0380    0.0000 C.3     1  LIG1        0.1600
     16 N          -1.6500    0.8960    0.0000 N.4     1  LIG1        0.3718
     17 C          -2.6500    0.8960    0.0000 C.3     1  LIG1        0.0457
     18 C          -3.4380    1.5920    0.0000 C.3     1  LIG1        0.0512
     19 C          -4.4670    1.6130    0.0000 C.3     1  LIG1        0.0055
     20 C          -4.7170    2.5920    0.0000 C.3     1  LIG1        0.0004
     21 C          -3.8960    1.7960    0.0000 C.3     1  LIG1        0.0055
     22 C          -2.9330    1.7750    0.0000 C.3     1  LIG1        0.0512
     23 C          -4.2420    0.9380    0.0000 C.3     1  LIG1        0.0004
     24 C          -4.0330    0.0290    0.0000 C.3     1  LIG1        0.0055
     25 C          -3.0380    0.0000    0.0000 C.3     1  LIG1        0.0512
     26 C          -4.8460    0.7080    0.0000 C.3     1  LIG1        0.0004
     27 C          -1.1540    1.7630    0.0000 C.3     1  LIG1        0.1600
     28 C          -0.1500    1.7580    0.0000 C.3     1  LIG1        0.1567
     29 O           1.8580    1.7540    0.0000 O.2     1  LIG1       -0.2697
@<TRIPOS>BOND
     1     1     2   ar
     2     1     6   ar
     3     1    12    1
     4     2     3   ar
     5     2    11    2
     6     3     4   ar
     7     4     5   ar
     8     4    10   ar
     9     5     6   ar
    10     5     7   ar
    11     7     8   ar
    12     8     9   ar
    13     9    10   ar
    14    12    13   am
    15    12    29    2
    16    13    14    1
    17    13    28    1
    18    14    15    1
    19    15    16    1
    20    16    17    1
    21    16    27    1
    22    17    18    1
    23    17    22    1
    24    17    25    1
    25    18    19    1
    26    19    20    1
    27    19    26    1
    28    20    21    1
    29    21    22    1
    30    21    23    1
    31    23    24    1
    32    24    25    1
    33    24    26    1
    34    27    28    1
