@<TRIPOS>MOLECULE
30726_ChemDiv_8013-3893
 31 36 0 0 0
SMALL
GASTEIGER
Energy = 0

@<TRIPOS>ATOM
      1 C           1.1000    0.0250    0.0000 C.ar    1  LIG1        0.1295
      2 C           0.5880   -0.8420    0.0000 C.ar    1  LIG1        0.3502
      3 O           1.0830   -1.7040    0.0000 O.2     1  LIG1       -0.4209
      4 C           2.0920   -1.7170    0.0000 C.ar    1  LIG1        0.1489
      5 C           2.5920   -0.8540    0.0000 C.ar    1  LIG1        0.0380
      6 C           2.0960    0.0250    0.0000 C.ar    1  LIG1        0.0142
      7 C           3.5920   -0.8540    0.0000 C.ar    1  LIG1        0.0399
      8 C           4.0880   -1.7170    0.0000 C.ar    1  LIG1        0.1389
      9 C           3.5830   -2.5880    0.0000 C.ar    1  LIG1        0.0400
     10 C           2.5830   -2.5830    0.0000 C.ar    1  LIG1        0.0407
     11 O           5.0880   -1.7210    0.0000 O.3     1  LIG1       -0.4714
     12 C           5.5920   -0.8540    0.0000 C.3     1  LIG1        0.2525
     13 O          -0.4080   -0.8290    0.0000 O.2     1  LIG1       -0.2443
     14 C           0.6000    0.8880    0.0000 C.2     1  LIG1        0.2557
     15 N          -0.4000    0.8960    0.0000 N.am    1  LIG1       -0.2643
     16 C          -0.9000    0.0380    0.0000 C.3     1  LIG1        0.1567
     17 C          -1.9000    0.0380    0.0000 C.3     1  LIG1        0.1600
     18 N          -2.3960    0.9000    0.0000 N.4     1  LIG1        0.3718
     19 C          -3.3920    0.9000    0.0000 C.3     1  LIG1        0.0457
     20 C          -4.1830    1.5920    0.0000 C.3     1  LIG1        0.0512
     21 C          -5.2130    1.6130    0.0000 C.3     1  LIG1        0.0055
     22 C          -5.5960    0.7130    0.0000 C.3     1  LIG1        0.0004
     23 C          -4.7750    0.0330    0.0000 C.3     1  LIG1        0.0055
     24 C          -3.7790    0.0000    0.0000 C.3     1  LIG1        0.0512
     25 C          -4.9880    0.9380    0.0000 C.3     1  LIG1        0.0004
     26 C          -4.6460    1.7960    0.0000 C.3     1  LIG1        0.0055
     27 C          -3.6750    1.7790    0.0000 C.3     1  LIG1        0.0512
     28 C          -5.4630    2.5920    0.0000 C.3     1  LIG1        0.0004
     29 C          -1.9000    1.7630    0.0000 C.3     1  LIG1        0.1600
     30 C          -0.8960    1.7630    0.0000 C.3     1  LIG1        0.1567
     31 O           1.1080    1.7580    0.0000 O.2     1  LIG1       -0.2697
@<TRIPOS>BOND
     1     1     2   ar
     2     1     6   ar
     3     1    14    1
     4     2     3   ar
     5     2    13    2
     6     3     4   ar
     7     4     5   ar
     8     4    10   ar
     9     5     6   ar
    10     5     7   ar
    11     7     8   ar
    12     8     9   ar
    13     8    11    1
    14     9    10   ar
    15    11    12    1
    16    14    15   am
    17    14    31    2
    18    15    16    1
    19    15    30    1
    20    16    17    1
    21    17    18    1
    22    18    19    1
    23    18    29    1
    24    19    20    1
    25    19    24    1
    26    19    27    1
    27    20    21    1
    28    21    22    1
    29    21    28    1
    30    22    23    1
    31    23    24    1
    32    23    25    1
    33    25    26    1
    34    26    27    1
    35    26    28    1
    36    29    30    1
