@<TRIPOS>MOLECULE
30729_ChemDiv_8014-9471
 14 15 0 0 0
SMALL
GASTEIGER
Energy = 0

@<TRIPOS>ATOM
      1 C          -1.3040   -0.0040    0.0000 C.ar    1  LIG1        0.0439
      2 N          -2.1710   -0.5000    0.0000 N.pl3   1  LIG1       -0.3060
      3 C          -3.0290    0.0040    0.0000 C.3     1  LIG1        0.0912
      4 C          -3.0290    1.0080    0.0000 C.3     1  LIG1        0.0261
      5 C          -2.1540    1.5000    0.0000 C.3     1  LIG1        0.0294
      6 C          -1.2960    1.0000    0.0000 C.ar    1  LIG1       -0.0083
      7 C          -0.4420    1.4960    0.0000 C.ar    1  LIG1        0.0041
      8 C           0.4290    1.0040    0.0000 C.ar    1  LIG1        0.0390
      9 S           1.2830    1.5080    0.0000 S.3     1  LIG1       -0.0091
     10 C           2.1580    1.0130    0.0000 C.1     1  LIG1        0.1380
     11 N           3.0250    0.5170    0.0000 N.1     1  LIG1       -0.1834
     12 C           0.4330   -0.0040    0.0000 C.ar    1  LIG1        0.0084
     13 C          -0.4380   -0.5040    0.0000 C.ar    1  LIG1        0.0147
     14 C          -2.1710   -1.5040    0.0000 C.3     1  LIG1        0.1122
@<TRIPOS>BOND
     1     1     2    1
     2     1     6   ar
     3     1    13   ar
     4     2     3    1
     5     2    14    1
     6     3     4    1
     7     4     5    1
     8     5     6    1
     9     6     7   ar
    10     7     8   ar
    11     8     9    1
    12     8    12   ar
    13     9    10    1
    14    10    11    3
    15    12    13   ar
