@<TRIPOS>MOLECULE
30728_ChemDiv_8013-3894
 29 33 0 0 0
SMALL
GASTEIGER
Energy = 0

@<TRIPOS>ATOM
      1 C           0.9130   -0.6960    0.0000 C.ar    1  LIG1        0.1310
      2 C           0.9130   -1.7000    0.0000 C.ar    1  LIG1        0.3502
      3 O           1.7790   -2.1920    0.0000 O.2     1  LIG1       -0.4209
      4 C           2.6380   -1.6880    0.0000 C.ar    1  LIG1        0.1489
      5 C           2.6380   -0.6920    0.0000 C.ar    1  LIG1        0.0380
      6 C           1.7670   -0.1920    0.0000 C.ar    1  LIG1        0.0142
      7 C           3.5000   -0.1920    0.0000 C.ar    1  LIG1        0.0399
      8 C           4.3630   -0.6830    0.0000 C.ar    1  LIG1        0.1389
      9 C           4.3670   -1.6880    0.0000 C.ar    1  LIG1        0.0400
     10 C           3.5000   -2.1880    0.0000 C.ar    1  LIG1        0.0407
     11 O           5.2290   -0.1830    0.0000 O.3     1  LIG1       -0.4714
     12 C           5.2210    0.8130    0.0000 C.3     1  LIG1        0.2525
     13 O           0.0460   -2.2000    0.0000 O.2     1  LIG1       -0.2443
     14 C           0.0420   -0.2000    0.0000 C.2     1  LIG1        0.2712
     15 O           0.0380    0.7960    0.0000 O.2     1  LIG1       -0.2681
     16 N          -0.8210   -0.7040    0.0000 N.am    1  LIG1       -0.1988
     17 C          -1.8420   -1.0500    0.0000 C.3     1  LIG1        0.1474
     18 C          -2.5420   -0.3460    0.0000 C.3     1  LIG1        0.1653
     19 O          -2.0420    0.5130    0.0000 O.3     1  LIG1       -0.3566
     20 C          -3.0380    0.5130    0.0000 C.3     1  LIG1        0.0928
     21 C          -3.8210    1.2040    0.0000 C.3     1  LIG1        0.0272
     22 C          -4.8540    1.2290    0.0000 C.3     1  LIG1        0.0023
     23 C          -5.2330    0.3250    0.0000 C.3     1  LIG1        0.0002
     24 C          -4.4250   -0.3500    0.0000 C.3     1  LIG1        0.0023
     25 C          -3.4250   -0.3790    0.0000 C.3     1  LIG1        0.0272
     26 C          -4.6250    0.5540    0.0000 C.3     1  LIG1        0.0002
     27 C          -4.2830    1.4080    0.0000 C.3     1  LIG1        0.0023
     28 C          -3.3210    1.3880    0.0000 C.3     1  LIG1        0.0272
     29 C          -5.1040    2.2040    0.0000 C.3     1  LIG1        0.0002
@<TRIPOS>BOND
     1     1     2   ar
     2     1     6   ar
     3     1    14    1
     4     2     3   ar
     5     2    13    2
     6     3     4   ar
     7     4     5   ar
     8     4    10   ar
     9     5     6   ar
    10     5     7   ar
    11     7     8   ar
    12     8     9   ar
    13     8    11    1
    14     9    10   ar
    15    11    12    1
    16    14    15    2
    17    14    16   am
    18    16    17    1
    19    17    18    1
    20    18    19    1
    21    19    20    1
    22    20    21    1
    23    20    25    1
    24    20    28    1
    25    21    22    1
    26    22    23    1
    27    22    29    1
    28    23    24    1
    29    24    25    1
    30    24    26    1
    31    26    27    1
    32    27    28    1
    33    27    29    1
