@<TRIPOS>MOLECULE
30736_ChemDiv_C066-1895
 26 29 0 0 0
SMALL
GASTEIGER
Energy = 0

@<TRIPOS>ATOM
      1 C          -1.6630    0.5040    0.0000 C.ar    1  LIG1        0.0914
      2 C          -1.6630   -0.4960    0.0000 C.2     1  LIG1        0.2522
      3 N          -0.7880   -0.9960    0.0000 N.am    1  LIG1       -0.2725
      4 C          -0.7880   -2.0040    0.0000 C.3     1  LIG1        0.1152
      5 C           0.0920   -2.5130    0.0000 C.3     1  LIG1        0.1153
      6 N           0.9540   -2.0040    0.0000 N.am    1  LIG1       -0.2701
      7 C           1.8210   -2.5000    0.0000 C.2     1  LIG1        0.2839
      8 C           2.6790   -2.0000    0.0000 C.ar    1  LIG1        0.1987
      9 O           3.5920   -2.4130    0.0000 O.2     1  LIG1       -0.4458
     10 C           4.2500   -1.6670    0.0000 C.ar    1  LIG1        0.1798
     11 C           3.7330   -0.8000    0.0000 C.ar    1  LIG1        0.0440
     12 C           2.7880   -1.0080    0.0000 C.ar    1  LIG1        0.0455
     13 O           1.8210   -3.4960    0.0000 O.2     1  LIG1       -0.2666
     14 C           0.9540   -0.9960    0.0000 C.3     1  LIG1        0.1153
     15 C           0.0920   -0.4960    0.0000 C.3     1  LIG1        0.1152
     16 O          -2.5170   -0.9960    0.0000 O.2     1  LIG1       -0.2698
     17 C          -2.5170    1.0000    0.0000 C.ar    1  LIG1        0.0137
     18 C          -2.5170    2.0040    0.0000 C.ar    1  LIG1        0.0763
     19 C          -1.6630    2.5040    0.0000 C.ar    1  LIG1        0.3458
     20 O          -0.7880    2.0040    0.0000 O.2     1  LIG1       -0.4177
     21 C          -0.7880    1.0000    0.0000 C.ar    1  LIG1        0.1875
     22 O          -1.6630    3.5000    0.0000 O.2     1  LIG1       -0.2445
     23 C          -3.3830    2.5040    0.0000 C.ar    1  LIG1        0.0065
     24 C          -4.2540    1.9960    0.0000 C.ar    1  LIG1        0.0002
     25 C          -4.2540    1.0000    0.0000 C.ar    1  LIG1        0.0000
     26 C          -3.3830    0.5040    0.0000 C.ar    1  LIG1        0.0005
@<TRIPOS>BOND
     1     1     2    1
     2     1    17   ar
     3     1    21   ar
     4     2     3   am
     5     2    16    2
     6     3     4    1
     7     3    15    1
     8     4     5    1
     9     5     6    1
    10     6     7   am
    11     6    14    1
    12     7     8    1
    13     7    13    2
    14     8     9   ar
    15     8    12   ar
    16     9    10   ar
    17    10    11   ar
    18    11    12   ar
    19    14    15    1
    20    17    18   ar
    21    17    26   ar
    22    18    19   ar
    23    18    23   ar
    24    19    20   ar
    25    19    22    2
    26    20    21   ar
    27    23    24   ar
    28    24    25   ar
    29    25    26   ar
