@<TRIPOS>MOLECULE
30733_ChemDiv_8017-6193
 15 17 0 0 0
SMALL
GASTEIGER
Energy = 0

@<TRIPOS>ATOM
      1 C          -0.8710    0.2460    0.0000 C.ar    1  LIG1        0.0397
      2 C           0.0000   -0.2500    0.0000 C.ar    1  LIG1       -0.0092
      3 C           0.8670    0.2500    0.0000 C.ar    1  LIG1       -0.0010
      4 C           0.8630    1.2580    0.0000 C.ar    1  LIG1        0.0508
      5 C          -0.0080    1.7500    0.0000 C.ar    1  LIG1       -0.0010
      6 C          -0.8710    1.2500    0.0000 C.ar    1  LIG1       -0.0092
      7 C          -1.7330    1.7460    0.0000 C.3     1  LIG1        0.0293
      8 C          -2.5960    1.2500    0.0000 C.3     1  LIG1        0.0261
      9 C          -2.5960    0.2460    0.0000 C.3     1  LIG1        0.0911
     10 N          -1.7330   -0.2540    0.0000 N.pl3   1  LIG1       -0.3080
     11 C          -1.7330   -1.2540    0.0000 C.3     1  LIG1        0.0911
     12 C          -0.8630   -1.7540    0.0000 C.3     1  LIG1        0.0261
     13 C           0.0040   -1.2500    0.0000 C.3     1  LIG1        0.0293
     14 C           1.7250    1.7580    0.0000 C.3     1  LIG1        0.3431
     15 N           2.5920    1.2630    0.0000 N.4     1  LIG1        0.6017
@<TRIPOS>BOND
     1     1     2   ar
     2     1     6   ar
     3     1    10    1
     4     2     3   ar
     5     2    13    1
     6     3     4   ar
     7     4     5   ar
     8     4    14    1
     9     5     6   ar
    10     6     7    1
    11     7     8    1
    12     8     9    1
    13     9    10    1
    14    10    11    1
    15    11    12    1
    16    12    13    1
    17    14    15    1
