@<TRIPOS>MOLECULE
30739_ChemDiv_5436-0867
 18 20 0 0 0
SMALL
GASTEIGER
Energy = 0

@<TRIPOS>ATOM
      1 C           0.3330    0.5000    0.0000 C.ar    1  LIG1        0.1472
      2 C           0.3330   -0.4920    0.0000 C.ar    1  LIG1        0.0305
      3 C           1.1960   -1.0000    0.0000 C.ar    1  LIG1       -0.0167
      4 C           2.0710   -0.4920    0.0000 C.ar    1  LIG1        0.0503
      5 C           2.0710    0.5000    0.0000 C.ar    1  LIG1        0.3414
      6 O           1.1960    1.0000    0.0000 O.2     1  LIG1       -0.4215
      7 O           2.9420    1.0000    0.0000 O.2     1  LIG1       -0.2448
      8 C           2.9290   -1.0000    0.0000 C.3     1  LIG1        0.0375
      9 C           1.1960   -1.9920    0.0000 C.3     1  LIG1        0.0310
     10 C          -0.5330   -1.0000    0.0000 C.ar    1  LIG1        0.0055
     11 C          -1.4040   -0.4920    0.0000 C.ar    1  LIG1        0.0335
     12 C          -1.4040    0.5000    0.0000 C.ar    1  LIG1        0.1440
     13 C          -0.5330    1.0000    0.0000 C.ar    1  LIG1        0.0472
     14 C          -0.5330    1.9960    0.0000 C.3     1  LIG1        0.0375
     15 O          -2.3540    0.8040    0.0000 O.2     1  LIG1       -0.4510
     16 C          -2.9460   -0.0040    0.0000 C.ar    1  LIG1        0.1752
     17 C          -2.3540   -0.8080    0.0000 C.ar    1  LIG1        0.0187
     18 C          -2.6630   -1.7500    0.0000 C.3     1  LIG1        0.0344
@<TRIPOS>BOND
     1     1     2   ar
     2     1     6   ar
     3     1    13   ar
     4     2     3   ar
     5     2    10   ar
     6     3     4   ar
     7     3     9    1
     8     4     5   ar
     9     4     8    1
    10     5     6   ar
    11     5     7    2
    12    10    11   ar
    13    11    12   ar
    14    11    17   ar
    15    12    13   ar
    16    12    15   ar
    17    13    14    1
    18    15    16   ar
    19    16    17   ar
    20    17    18    1
