@<TRIPOS>MOLECULE
30732_ChemDiv_8017-3422
 26 29 0 0 0
SMALL
GASTEIGER
Energy = 0

@<TRIPOS>ATOM
      1 C          -1.6540    0.5210    0.0000 C.ar    1  LIG1        0.1295
      2 C          -1.6540   -0.4790    0.0000 C.ar    1  LIG1        0.3502
      3 O          -2.5290   -0.9790    0.0000 O.2     1  LIG1       -0.4209
      4 C          -3.3960   -0.4790    0.0000 C.ar    1  LIG1        0.1487
      5 C          -3.3830    0.5210    0.0000 C.ar    1  LIG1        0.0350
      6 C          -2.5210    1.0250    0.0000 C.ar    1  LIG1        0.0141
      7 C          -4.2540    1.0330    0.0000 C.ar    1  LIG1        0.0030
      8 C          -5.1080    0.5210    0.0000 C.ar    1  LIG1        0.0002
      9 C          -5.1080   -0.4790    0.0000 C.ar    1  LIG1        0.0031
     10 C          -4.2540   -0.9670    0.0000 C.ar    1  LIG1        0.0376
     11 O          -0.8040   -0.9790    0.0000 O.2     1  LIG1       -0.2443
     12 C          -0.7920    1.0210    0.0000 C.2     1  LIG1        0.2554
     13 N           0.0750    0.5080    0.0000 N.am    1  LIG1       -0.2724
     14 C           0.9380    1.0080    0.0000 C.3     1  LIG1        0.1152
     15 C           1.8040    0.5080    0.0000 C.3     1  LIG1        0.1153
     16 N           1.7880   -0.5000    0.0000 N.am    1  LIG1       -0.2701
     17 C           2.6500   -1.0130    0.0000 C.2     1  LIG1        0.2839
     18 C           3.5170   -0.5130    0.0000 C.ar    1  LIG1        0.1987
     19 O           3.6380    0.4880    0.0000 O.2     1  LIG1       -0.4458
     20 C           4.6170    0.6830    0.0000 C.ar    1  LIG1        0.1798
     21 C           5.1040   -0.1920    0.0000 C.ar    1  LIG1        0.0440
     22 C           4.4250   -0.9250    0.0000 C.ar    1  LIG1        0.0455
     23 O           2.6420   -2.0170    0.0000 O.2     1  LIG1       -0.2666
     24 C           0.9170   -1.0000    0.0000 C.3     1  LIG1        0.1153
     25 C           0.0540   -0.4920    0.0000 C.3     1  LIG1        0.1152
     26 O          -0.7920    2.0210    0.0000 O.2     1  LIG1       -0.2697
@<TRIPOS>BOND
     1     1     2   ar
     2     1     6   ar
     3     1    12    1
     4     2     3   ar
     5     2    11    2
     6     3     4   ar
     7     4     5   ar
     8     4    10   ar
     9     5     6   ar
    10     5     7   ar
    11     7     8   ar
    12     8     9   ar
    13     9    10   ar
    14    12    13   am
    15    12    26    2
    16    13    14    1
    17    13    25    1
    18    14    15    1
    19    15    16    1
    20    16    17   am
    21    16    24    1
    22    17    18    1
    23    17    23    2
    24    18    19   ar
    25    18    22   ar
    26    19    20   ar
    27    20    21   ar
    28    21    22   ar
    29    24    25    1
