@<TRIPOS>MOLECULE
30734_ChemDiv_8017-3423
 30 34 0 0 0
SMALL
GASTEIGER
Energy = 0

@<TRIPOS>ATOM
      1 C          -1.2210    0.2710    0.0000 C.ar    1  LIG1        0.1295
      2 C          -1.2210   -0.7380    0.0000 C.ar    1  LIG1        0.3502
      3 O          -2.0960   -1.2290    0.0000 O.2     1  LIG1       -0.4209
      4 C          -2.9580   -0.7290    0.0000 C.ar    1  LIG1        0.1487
      5 C          -2.9500    0.2710    0.0000 C.ar    1  LIG1        0.0350
      6 C          -2.0830    0.7710    0.0000 C.ar    1  LIG1        0.0141
      7 C          -3.8130    0.7830    0.0000 C.ar    1  LIG1        0.0029
      8 C          -4.6710    0.2710    0.0000 C.ar    1  LIG1        0.0002
      9 C          -4.6710   -0.7290    0.0000 C.ar    1  LIG1        0.0031
     10 C          -3.8130   -1.2170    0.0000 C.ar    1  LIG1        0.0376
     11 C          -5.5500    0.7710    0.0000 C.ar    1  LIG1        0.0000
     12 C          -5.5500    1.7710    0.0000 C.ar    1  LIG1        0.0000
     13 C          -4.6880    2.2710    0.0000 C.ar    1  LIG1        0.0000
     14 C          -3.8250    1.7710    0.0000 C.ar    1  LIG1        0.0001
     15 O          -0.3710   -1.2380    0.0000 O.2     1  LIG1       -0.2443
     16 C          -0.3500    0.7710    0.0000 C.2     1  LIG1        0.2554
     17 N           0.5170    0.2580    0.0000 N.am    1  LIG1       -0.2724
     18 C           0.5040   -0.7420    0.0000 C.3     1  LIG1        0.1152
     19 C           1.3670   -1.2500    0.0000 C.3     1  LIG1        0.1153
     20 N           2.2330   -0.7500    0.0000 N.am    1  LIG1       -0.2701
     21 C           3.0960   -1.2670    0.0000 C.2     1  LIG1        0.2839
     22 C           3.9580   -0.7670    0.0000 C.ar    1  LIG1        0.1987
     23 O           4.0790    0.2330    0.0000 O.2     1  LIG1       -0.4458
     24 C           5.0580    0.4330    0.0000 C.ar    1  LIG1        0.1798
     25 C           5.5460   -0.4420    0.0000 C.ar    1  LIG1        0.0440
     26 C           4.8710   -1.1750    0.0000 C.ar    1  LIG1        0.0455
     27 O           3.0920   -2.2670    0.0000 O.2     1  LIG1       -0.2666
     28 C           2.2460    0.2500    0.0000 C.3     1  LIG1        0.1153
     29 C           1.3830    0.7580    0.0000 C.3     1  LIG1        0.1152
     30 O          -0.3500    1.7710    0.0000 O.2     1  LIG1       -0.2697
@<TRIPOS>BOND
     1     1     2   ar
     2     1     6   ar
     3     1    16    1
     4     2     3   ar
     5     2    15    2
     6     3     4   ar
     7     4     5   ar
     8     4    10   ar
     9     5     6   ar
    10     5     7   ar
    11     7     8   ar
    12     7    14   ar
    13     8     9   ar
    14     8    11   ar
    15     9    10   ar
    16    11    12   ar
    17    12    13   ar
    18    13    14   ar
    19    16    17   am
    20    16    30    2
    21    17    18    1
    22    17    29    1
    23    18    19    1
    24    19    20    1
    25    20    21   am
    26    20    28    1
    27    21    22    1
    28    21    27    2
    29    22    23   ar
    30    22    26   ar
    31    23    24   ar
    32    24    25   ar
    33    25    26   ar
    34    28    29    1
