@<TRIPOS>MOLECULE
30737_ChemDiv_5436-0865
 18 20 0 0 0
SMALL
GASTEIGER
Energy = 0

@<TRIPOS>ATOM
      1 C           1.6920   -0.5040    0.0000 C.ar    1  LIG1       -0.0167
      2 C           0.8250    0.0080    0.0000 C.ar    1  LIG1        0.0308
      3 C           0.8250    1.0000    0.0000 C.ar    1  LIG1        0.1514
      4 O           1.6920    1.5000    0.0000 O.2     1  LIG1       -0.4212
      5 C           2.5670    1.0000    0.0000 C.ar    1  LIG1        0.3414
      6 C           2.5670    0.0080    0.0000 C.ar    1  LIG1        0.0503
      7 C           3.4210   -0.5040    0.0000 C.3     1  LIG1        0.0375
      8 O           3.4330    1.5000    0.0000 O.2     1  LIG1       -0.2448
      9 C          -0.0420    1.5000    0.0000 C.ar    1  LIG1        0.0750
     10 C          -0.9080    1.0000    0.0000 C.ar    1  LIG1        0.1476
     11 C          -0.9080    0.0080    0.0000 C.ar    1  LIG1        0.0334
     12 C          -1.8630   -0.3130    0.0000 C.ar    1  LIG1        0.0114
     13 C          -2.4540    0.4920    0.0000 C.ar    1  LIG1        0.1193
     14 O          -1.8630    1.3000    0.0000 O.2     1  LIG1       -0.4580
     15 C          -3.4380    0.4920    0.0000 C.3     1  LIG1        0.0721
     16 C          -2.1710   -1.2670    0.0000 C.3     1  LIG1        0.0340
     17 C          -0.0420   -0.5040    0.0000 C.ar    1  LIG1        0.0055
     18 C           1.6920   -1.4960    0.0000 C.3     1  LIG1        0.0310
@<TRIPOS>BOND
     1     1     2   ar
     2     1     6   ar
     3     1    18    1
     4     2     3   ar
     5     2    17   ar
     6     3     4   ar
     7     3     9   ar
     8     4     5   ar
     9     5     6   ar
    10     5     8    2
    11     6     7    1
    12     9    10   ar
    13    10    11   ar
    14    10    14   ar
    15    11    12   ar
    16    11    17   ar
    17    12    13   ar
    18    12    16    1
    19    13    14   ar
    20    13    15    1
