@<TRIPOS>MOLECULE
30735_ChemDiv_C270-0503
 25 27 0 0 0
SMALL
GASTEIGER
Energy = 0

@<TRIPOS>ATOM
      1 N          -0.4420    3.4880    0.0000 N.pl3   1  LIG1       -0.3077
      2 C          -1.3080    3.9750    0.0000 C.ar    1  LIG1        0.0438
      3 C          -1.3170    4.9790    0.0000 C.ar    1  LIG1       -0.0088
      4 C          -0.4540    5.4960    0.0000 C.3     1  LIG1        0.0294
      5 C           0.4210    4.9960    0.0000 C.3     1  LIG1        0.0261
      6 C           0.4330    3.9880    0.0000 C.3     1  LIG1        0.0911
      7 C          -2.1790    5.4790    0.0000 C.ar    1  LIG1       -0.0030
      8 C          -3.0420    4.9790    0.0000 C.ar    1  LIG1       -0.0002
      9 C          -3.0420    3.9880    0.0000 C.ar    1  LIG1        0.0012
     10 C          -2.1790    3.4880    0.0000 C.ar    1  LIG1        0.0142
     11 C          -0.4420    2.4880    0.0000 C.3     1  LIG1        0.0926
     12 C           0.4210    1.9880    0.0000 C.3     1  LIG1        0.0449
     13 C           0.4330    0.9920    0.0000 C.3     1  LIG1        0.1186
     14 N           1.3000    0.4920    0.0000 N.am    1  LIG1       -0.1869
     15 C           1.3000   -0.5080    0.0000 C.2     1  LIG1        0.3435
     16 N           2.1630   -1.0080    0.0000 N.am    1  LIG1       -0.1610
     17 C           2.1710   -2.0040    0.0000 C.ar    1  LIG1        0.0749
     18 C           1.3000   -2.5040    0.0000 C.ar    1  LIG1        0.0163
     19 C           1.3080   -3.5040    0.0000 C.ar    1  LIG1       -0.0029
     20 C           2.1710   -3.9960    0.0000 C.ar    1  LIG1       -0.0221
     21 C           3.0380   -3.4880    0.0000 C.ar    1  LIG1       -0.0029
     22 C           3.0330   -2.4880    0.0000 C.ar    1  LIG1        0.0163
     23 C           2.1750   -4.9960    0.0000 C.3     1  LIG1        0.0264
     24 C           3.0380   -5.4960    0.0000 C.3     1  LIG1        0.0050
     25 O           0.4380   -1.0080    0.0000 O.2     1  LIG1       -0.2488
@<TRIPOS>BOND
     1     1     2    1
     2     1     6    1
     3     1    11    1
     4     2     3   ar
     5     2    10   ar
     6     3     4    1
     7     3     7   ar
     8     4     5    1
     9     5     6    1
    10     7     8   ar
    11     8     9   ar
    12     9    10   ar
    13    11    12    1
    14    12    13    1
    15    13    14    1
    16    14    15   am
    17    15    16   am
    18    15    25    2
    19    16    17    1
    20    17    18   ar
    21    17    22   ar
    22    18    19   ar
    23    19    20   ar
    24    20    21   ar
    25    20    23    1
    26    21    22   ar
    27    23    24    1
