@<TRIPOS>MOLECULE
30730_ChemDiv_8014-1615
 26 29 0 0 0
SMALL
GASTEIGER
Energy = 0

@<TRIPOS>ATOM
      1 C           0.7630    0.4330    0.0000 C.ar    1  LIG1        0.1295
      2 C           0.2540   -0.4380    0.0000 C.ar    1  LIG1        0.3502
      3 O           0.7500   -1.3000    0.0000 O.2     1  LIG1       -0.4209
      4 C           1.7500   -1.3080    0.0000 C.ar    1  LIG1        0.1487
      5 C           2.2630   -0.4420    0.0000 C.ar    1  LIG1        0.0350
      6 C           1.7670    0.4330    0.0000 C.ar    1  LIG1        0.0141
      7 C           3.2540   -0.4420    0.0000 C.ar    1  LIG1        0.0029
      8 C           3.7500   -1.3080    0.0000 C.ar    1  LIG1        0.0002
      9 C           3.2540   -2.1790    0.0000 C.ar    1  LIG1        0.0031
     10 C           2.2500   -2.1710    0.0000 C.ar    1  LIG1        0.0376
     11 C           4.7380   -1.3080    0.0000 C.ar    1  LIG1        0.0000
     12 C           5.2460   -0.4460    0.0000 C.ar    1  LIG1        0.0000
     13 C           4.7380    0.4170    0.0000 C.ar    1  LIG1        0.0000
     14 C           3.7500    0.4080    0.0000 C.ar    1  LIG1        0.0001
     15 O          -0.7500   -0.4290    0.0000 O.2     1  LIG1       -0.2443
     16 C           0.2670    1.3040    0.0000 C.2     1  LIG1        0.2557
     17 N          -0.7380    1.3040    0.0000 N.am    1  LIG1       -0.2643
     18 C          -1.2420    0.4420    0.0000 C.3     1  LIG1        0.1567
     19 C          -2.2420    0.4460    0.0000 C.3     1  LIG1        0.1607
     20 N          -2.7460    1.3130    0.0000 N.4     1  LIG1        0.3821
     21 C          -2.2380    2.1750    0.0000 C.3     1  LIG1        0.1607
     22 C          -1.2330    2.1750    0.0000 C.3     1  LIG1        0.1567
     23 C          -3.7460    1.3130    0.0000 C.3     1  LIG1        0.1749
     24 C          -4.2540    2.1830    0.0000 C.3     1  LIG1        0.2442
     25 O          -5.2500    2.1830    0.0000 O.3     1  LIG1       -0.2137
     26 O           0.7710    2.1710    0.0000 O.2     1  LIG1       -0.2697
@<TRIPOS>BOND
     1     1     2   ar
     2     1     6   ar
     3     1    16    1
     4     2     3   ar
     5     2    15    2
     6     3     4   ar
     7     4     5   ar
     8     4    10   ar
     9     5     6   ar
    10     5     7   ar
    11     7     8   ar
    12     7    14   ar
    13     8     9   ar
    14     8    11   ar
    15     9    10   ar
    16    11    12   ar
    17    12    13   ar
    18    13    14   ar
    19    16    17   am
    20    16    26    2
    21    17    18    1
    22    17    22    1
    23    18    19    1
    24    19    20    1
    25    20    21    1
    26    20    23    1
    27    21    22    1
    28    23    24    1
    29    24    25    1
