@<TRIPOS>MOLECULE
30747_ChemDiv_5436-0995
 19 21 0 0 0
SMALL
GASTEIGER
Energy = 0

@<TRIPOS>ATOM
      1 C           0.3290    1.9960    0.0000 C.ar    1  LIG1        0.1514
      2 C           0.3290    1.0080    0.0000 C.ar    1  LIG1        0.0311
      3 C           1.1920    0.5080    0.0000 C.ar    1  LIG1       -0.0128
      4 C           2.0670    1.0080    0.0000 C.ar    1  LIG1        0.0781
      5 C           2.0670    1.9960    0.0000 C.ar    1  LIG1        0.3456
      6 O           1.1920    2.5040    0.0000 O.2     1  LIG1       -0.4209
      7 O           2.9330    2.5040    0.0000 O.2     1  LIG1       -0.2445
      8 C           1.1920   -0.5000    0.0000 C.3     1  LIG1        0.0267
      9 C           2.0670   -0.9880    0.0000 C.3     1  LIG1        0.0047
     10 C           2.0670   -2.0130    0.0000 C.3     1  LIG1        0.0003
     11 C           2.9290   -2.5000    0.0000 C.3     1  LIG1        0.0000
     12 C          -0.5210    0.5080    0.0000 C.ar    1  LIG1        0.0055
     13 C          -1.3960    1.0080    0.0000 C.ar    1  LIG1        0.0338
     14 C          -1.3960    1.9960    0.0000 C.ar    1  LIG1        0.1482
     15 C          -0.5210    2.5040    0.0000 C.ar    1  LIG1        0.0750
     16 O          -2.3380    2.3000    0.0000 O.2     1  LIG1       -0.4507
     17 C          -2.9380    1.4920    0.0000 C.ar    1  LIG1        0.1753
     18 C          -2.3380    0.6920    0.0000 C.ar    1  LIG1        0.0187
     19 C          -2.6420   -0.2630    0.0000 C.3     1  LIG1        0.0344
@<TRIPOS>BOND
     1     1     2   ar
     2     1     6   ar
     3     1    15   ar
     4     2     3   ar
     5     2    12   ar
     6     3     4   ar
     7     3     8    1
     8     4     5   ar
     9     5     6   ar
    10     5     7    2
    11     8     9    1
    12     9    10    1
    13    10    11    1
    14    12    13   ar
    15    13    14   ar
    16    13    18   ar
    17    14    15   ar
    18    14    16   ar
    19    16    17   ar
    20    17    18   ar
    21    18    19    1
