@<TRIPOS>MOLECULE
30745_ChemDiv_5436-0907
 20 22 0 0 0
SMALL
GASTEIGER
Energy = 0

@<TRIPOS>ATOM
      1 C           1.2630   -0.2420    0.0000 C.ar    1  LIG1       -0.0167
      2 C           0.3920    0.2580    0.0000 C.ar    1  LIG1        0.0308
      3 C           0.3920    1.2580    0.0000 C.ar    1  LIG1        0.1514
      4 O           1.2630    1.7580    0.0000 O.2     1  LIG1       -0.4212
      5 C           2.1250    1.2580    0.0000 C.ar    1  LIG1        0.3414
      6 C           2.1250    0.2580    0.0000 C.ar    1  LIG1        0.0499
      7 C           2.9920   -0.2420    0.0000 C.3     1  LIG1        0.0326
      8 C           2.9920   -1.2540    0.0000 C.3     1  LIG1        0.0049
      9 C           3.8540   -1.7540    0.0000 C.3     1  LIG1        0.0004
     10 O           2.9920    1.7580    0.0000 O.2     1  LIG1       -0.2448
     11 C          -0.4710    1.7580    0.0000 C.ar    1  LIG1        0.0750
     12 C          -1.3210    1.2580    0.0000 C.ar    1  LIG1        0.1476
     13 C          -1.3210    0.2580    0.0000 C.ar    1  LIG1        0.0334
     14 C          -2.2880   -0.0420    0.0000 C.ar    1  LIG1        0.0114
     15 C          -2.8750    0.7500    0.0000 C.ar    1  LIG1        0.1193
     16 O          -2.2880    1.5750    0.0000 O.2     1  LIG1       -0.4580
     17 C          -3.8580    0.7500    0.0000 C.3     1  LIG1        0.0721
     18 C          -2.5880   -1.0040    0.0000 C.3     1  LIG1        0.0340
     19 C          -0.4710   -0.2420    0.0000 C.ar    1  LIG1        0.0055
     20 C           1.2630   -1.2500    0.0000 C.3     1  LIG1        0.0310
@<TRIPOS>BOND
     1     1     2   ar
     2     1     6   ar
     3     1    20    1
     4     2     3   ar
     5     2    19   ar
     6     3     4   ar
     7     3    11   ar
     8     4     5   ar
     9     5     6   ar
    10     5    10    2
    11     6     7    1
    12     7     8    1
    13     8     9    1
    14    11    12   ar
    15    12    13   ar
    16    12    16   ar
    17    13    14   ar
    18    13    19   ar
    19    14    15   ar
    20    14    18    1
    21    15    16   ar
    22    15    17    1
