@<TRIPOS>MOLECULE
30743_ChemDiv_5436-0906
 19 21 0 0 0
SMALL
GASTEIGER
Energy = 0

@<TRIPOS>ATOM
      1 C           0.7710   -0.2420    0.0000 C.ar    1  LIG1       -0.0167
      2 C          -0.1000    0.2580    0.0000 C.ar    1  LIG1        0.0308
      3 C          -0.1000    1.2580    0.0000 C.ar    1  LIG1        0.1514
      4 O           0.7710    1.7540    0.0000 O.2     1  LIG1       -0.4212
      5 C           1.6330    1.2580    0.0000 C.ar    1  LIG1        0.3414
      6 C           1.6330    0.2580    0.0000 C.ar    1  LIG1        0.0499
      7 C           2.5000   -0.2420    0.0000 C.3     1  LIG1        0.0326
      8 C           2.5000   -1.2540    0.0000 C.3     1  LIG1        0.0049
      9 C           3.3580   -1.7500    0.0000 C.3     1  LIG1        0.0004
     10 O           2.5000    1.7540    0.0000 O.2     1  LIG1       -0.2448
     11 C          -0.9630    1.7540    0.0000 C.ar    1  LIG1        0.0750
     12 C          -1.8130    1.2580    0.0000 C.ar    1  LIG1        0.1482
     13 C          -1.8130    0.2580    0.0000 C.ar    1  LIG1        0.0338
     14 C          -0.9630   -0.2420    0.0000 C.ar    1  LIG1        0.0055
     15 C          -2.7750   -0.0420    0.0000 C.ar    1  LIG1        0.0187
     16 C          -3.3630    0.7460    0.0000 C.ar    1  LIG1        0.1753
     17 O          -2.7750    1.5750    0.0000 O.2     1  LIG1       -0.4507
     18 C          -3.0790   -1.0040    0.0000 C.3     1  LIG1        0.0344
     19 C           0.7710   -1.2460    0.0000 C.3     1  LIG1        0.0310
@<TRIPOS>BOND
     1     1     2   ar
     2     1     6   ar
     3     1    19    1
     4     2     3   ar
     5     2    14   ar
     6     3     4   ar
     7     3    11   ar
     8     4     5   ar
     9     5     6   ar
    10     5    10    2
    11     6     7    1
    12     7     8    1
    13     8     9    1
    14    11    12   ar
    15    12    13   ar
    16    12    17   ar
    17    13    14   ar
    18    13    15   ar
    19    15    16   ar
    20    15    18    1
    21    16    17   ar
