@<TRIPOS>MOLECULE
30741_ChemDiv_5436-0868
 19 21 0 0 0
SMALL
GASTEIGER
Energy = 0

@<TRIPOS>ATOM
      1 C           0.8250    0.5000    0.0000 C.ar    1  LIG1        0.1472
      2 C           0.8250   -0.4920    0.0000 C.ar    1  LIG1        0.0305
      3 C           1.6920   -1.0040    0.0000 C.ar    1  LIG1       -0.0167
      4 C           2.5670   -0.4920    0.0000 C.ar    1  LIG1        0.0503
      5 C           2.5670    0.5000    0.0000 C.ar    1  LIG1        0.3414
      6 O           1.6920    1.0000    0.0000 O.2     1  LIG1       -0.4215
      7 O           3.4380    1.0000    0.0000 O.2     1  LIG1       -0.2448
      8 C           3.4210   -1.0040    0.0000 C.3     1  LIG1        0.0375
      9 C           1.6920   -1.9960    0.0000 C.3     1  LIG1        0.0310
     10 C          -0.0420   -1.0040    0.0000 C.ar    1  LIG1        0.0055
     11 C          -0.9130   -0.4920    0.0000 C.ar    1  LIG1        0.0331
     12 C          -0.9130    0.5000    0.0000 C.ar    1  LIG1        0.1434
     13 O          -1.8630    0.8040    0.0000 O.2     1  LIG1       -0.4583
     14 C          -2.4540   -0.0040    0.0000 C.ar    1  LIG1        0.1193
     15 C          -1.8630   -0.8130    0.0000 C.ar    1  LIG1        0.0114
     16 C          -2.1710   -1.7500    0.0000 C.3     1  LIG1        0.0340
     17 C          -3.4420   -0.0040    0.0000 C.3     1  LIG1        0.0721
     18 C          -0.0420    1.0000    0.0000 C.ar    1  LIG1        0.0472
     19 C          -0.0420    2.0000    0.0000 C.3     1  LIG1        0.0375
@<TRIPOS>BOND
     1     1     2   ar
     2     1     6   ar
     3     1    18   ar
     4     2     3   ar
     5     2    10   ar
     6     3     4   ar
     7     3     9    1
     8     4     5   ar
     9     4     8    1
    10     5     6   ar
    11     5     7    2
    12    10    11   ar
    13    11    12   ar
    14    11    15   ar
    15    12    13   ar
    16    12    18   ar
    17    13    14   ar
    18    14    15   ar
    19    14    17    1
    20    15    16    1
    21    18    19    1
