@<TRIPOS>MOLECULE
30758_ChemDiv_D103-0203
 21 23 0 0 0
SMALL
GASTEIGER
Energy = 0

@<TRIPOS>ATOM
      1 C           0.7460   -0.8540    0.0000 C.ar    1  LIG1        0.2017
      2 C           0.2500    0.0080    0.0000 C.ar    1  LIG1        0.0843
      3 C           0.7580    0.8790    0.0000 C.ar    1  LIG1        0.2018
      4 C           1.7580    0.8750    0.0000 C.ar    1  LIG1        0.0744
      5 C           2.2460   -0.0040    0.0000 C.ar    1  LIG1        0.1486
      6 O           1.7460   -0.8540    0.0000 O.2     1  LIG1       -0.4487
      7 C           3.2460   -0.0040    0.0000 C.ar    1  LIG1        0.0385
      8 C           3.7580    0.8460    0.0000 C.ar    1  LIG1        0.0145
      9 C           3.2580    1.7210    0.0000 C.ar    1  LIG1        0.0580
     10 C           2.2580    1.7380    0.0000 C.ar    1  LIG1        0.0176
     11 CL          3.7630    2.5830    0.0000 Cl      1  LIG1       -0.0822
     12 O           0.2630    1.7500    0.0000 O.2     1  LIG1       -0.2864
     13 C           0.2420   -1.7170    0.0000 C.2     1  LIG1        0.2842
     14 N          -0.7670   -1.7170    0.0000 N.am    1  LIG1       -0.2620
     15 C          -1.2670   -2.5790    0.0000 C.3     1  LIG1        0.1568
     16 C          -2.2670   -2.5790    0.0000 C.3     1  LIG1        0.1608
     17 N          -2.7670   -1.7170    0.0000 N.4     1  LIG1        0.3847
     18 C          -2.2670   -0.8540    0.0000 C.3     1  LIG1        0.1608
     19 C          -1.2670   -0.8540    0.0000 C.3     1  LIG1        0.1568
     20 C          -3.7670   -1.7170    0.0000 C.3     1  LIG1        0.2024
     21 O           0.7460   -2.5790    0.0000 O.2     1  LIG1       -0.2666
@<TRIPOS>BOND
     1     1     2   ar
     2     1     6   ar
     3     1    13    1
     4     2     3   ar
     5     3     4   ar
     6     3    12    2
     7     4     5   ar
     8     4    10   ar
     9     5     6   ar
    10     5     7   ar
    11     7     8   ar
    12     8     9   ar
    13     9    10   ar
    14     9    11    1
    15    13    14   am
    16    13    21    2
    17    14    15    1
    18    14    19    1
    19    15    16    1
    20    16    17    1
    21    17    18    1
    22    17    20    1
    23    18    19    1
