@<TRIPOS>MOLECULE
30755_ChemDiv_C444-0789
 30 32 0 0 0
SMALL
GASTEIGER
Energy = 0

@<TRIPOS>ATOM
      1 S           1.2380   -0.4460    0.0000 S.O2    1  LIG1        0.0091
      2 C           1.7500    0.4290    0.0000 C.ar    1  LIG1        0.1054
      3 C           2.7460    0.4290    0.0000 C.ar    1  LIG1        0.0153
      4 C           3.2500    1.2920    0.0000 C.ar    1  LIG1       -0.0072
      5 C           2.7460    2.1540    0.0000 C.ar    1  LIG1        0.0499
      6 N           3.2500    3.0170    0.0000 N.am    1  LIG1       -0.2589
      7 C           2.7460    3.8920    0.0000 C.2     1  LIG1        0.2298
      8 O           3.2380    4.7500    0.0000 O.2     1  LIG1       -0.2745
      9 C           1.7420    3.8920    0.0000 C.3     1  LIG1        0.0952
     10 C           4.2540    3.0290    0.0000 C.3     1  LIG1        0.0985
     11 C           4.7580    2.1540    0.0000 C.3     1  LIG1        0.0266
     12 C           4.2420    1.2920    0.0000 C.3     1  LIG1        0.0294
     13 C           1.7420    2.1540    0.0000 C.ar    1  LIG1        0.0159
     14 C           1.2380    1.2920    0.0000 C.ar    1  LIG1        0.0196
     15 C           0.7380   -1.3210    0.0000 C.3     1  LIG1        0.1655
     16 C          -0.2710   -1.3080    0.0000 C.3     1  LIG1        0.1129
     17 C          -0.7830   -2.1710    0.0000 C.2     1  LIG1        0.2474
     18 N          -1.7790   -2.1710    0.0000 N.am    1  LIG1       -0.1791
     19 C          -2.2790   -3.0380    0.0000 C.ar    1  LIG1        0.0744
     20 C          -3.2630   -3.0250    0.0000 C.ar    1  LIG1        0.0293
     21 C          -3.7670   -2.1500    0.0000 C.2     1  LIG1        0.0741
     22 O          -4.7630   -2.1380    0.0000 O.co2   1  LIG1       -0.5446
     23 O          -3.2540   -1.3000    0.0000 O.co2   1  LIG1       -0.5446
     24 C          -3.7750   -3.8750    0.0000 C.ar    1  LIG1        0.0024
     25 C          -3.2830   -4.7500    0.0000 C.ar    1  LIG1        0.0001
     26 C          -2.3000   -4.7500    0.0000 C.ar    1  LIG1        0.0013
     27 C          -1.7880   -3.9000    0.0000 C.ar    1  LIG1        0.0166
     28 O          -0.2920   -3.0380    0.0000 O.2     1  LIG1       -0.2729
     29 O           2.1130   -0.9580    0.0000 O.2     1  LIG1       -0.1686
     30 O           0.3750    0.0580    0.0000 O.2     1  LIG1       -0.1686
@<TRIPOS>BOND
     1     1     2    1
     2     1    15    1
     3     1    29    2
     4     1    30    2
     5     2     3   ar
     6     2    14   ar
     7     3     4   ar
     8     4     5   ar
     9     4    12    1
    10     5     6    1
    11     5    13   ar
    12     6     7   am
    13     6    10    1
    14     7     8    2
    15     7     9    1
    16    10    11    1
    17    11    12    1
    18    13    14   ar
    19    15    16    1
    20    16    17    1
    21    17    18   am
    22    17    28    2
    23    18    19    1
    24    19    20   ar
    25    19    27   ar
    26    20    21    1
    27    20    24   ar
    28    21    22   ar
    29    21    23   ar
    30    24    25   ar
    31    25    26   ar
    32    26    27   ar
