@<TRIPOS>MOLECULE
30751_ChemDiv_5436-1010
 19 21 0 0 0
SMALL
GASTEIGER
Energy = 0

@<TRIPOS>ATOM
      1 C           0.3250    1.2420    0.0000 C.ar    1  LIG1        0.1473
      2 C           0.3250    0.2670    0.0000 C.ar    1  LIG1        0.0308
      3 C           1.1920   -0.2380    0.0000 C.ar    1  LIG1       -0.0128
      4 C           2.0670    0.2670    0.0000 C.ar    1  LIG1        0.0781
      5 C           2.0670    1.2420    0.0000 C.ar    1  LIG1        0.3456
      6 O           1.1920    1.7540    0.0000 O.2     1  LIG1       -0.4213
      7 O           2.9380    1.7540    0.0000 O.2     1  LIG1       -0.2445
      8 C           1.1920   -1.2500    0.0000 C.3     1  LIG1        0.0267
      9 C           2.0670   -1.7420    0.0000 C.3     1  LIG1        0.0047
     10 C           2.0670   -2.7540    0.0000 C.3     1  LIG1        0.0004
     11 C          -0.5330   -0.2380    0.0000 C.ar    1  LIG1        0.0055
     12 C          -1.4080    0.2670    0.0000 C.ar    1  LIG1        0.0335
     13 C          -1.4080    1.2420    0.0000 C.ar    1  LIG1        0.1440
     14 C          -0.5330    1.7540    0.0000 C.ar    1  LIG1        0.0472
     15 C          -0.5330    2.7580    0.0000 C.3     1  LIG1        0.0375
     16 O          -2.3540    1.5460    0.0000 O.2     1  LIG1       -0.4510
     17 C          -2.9420    0.7580    0.0000 C.ar    1  LIG1        0.1752
     18 C          -2.3540   -0.0380    0.0000 C.ar    1  LIG1        0.0187
     19 C          -2.6580   -1.0040    0.0000 C.3     1  LIG1        0.0344
@<TRIPOS>BOND
     1     1     2   ar
     2     1     6   ar
     3     1    14   ar
     4     2     3   ar
     5     2    11   ar
     6     3     4   ar
     7     3     8    1
     8     4     5   ar
     9     5     6   ar
    10     5     7    2
    11     8     9    1
    12     9    10    1
    13    11    12   ar
    14    12    13   ar
    15    12    18   ar
    16    13    14   ar
    17    13    16   ar
    18    14    15    1
    19    16    17   ar
    20    17    18   ar
    21    18    19    1
