@<TRIPOS>MOLECULE
30752_ChemDiv_4244-1856
 16 19 0 0 0
SMALL
GASTEIGER
Energy = 0

@<TRIPOS>ATOM
      1 C           0.1710    0.0750    0.0000 C.ar    1  LIG1        0.1868
      2 N          -0.6920    0.5670    0.0000 N.ar    1  LIG1       -0.2002
      3 C          -1.5670    0.0460    0.0000 C.ar    1  LIG1        0.2442
      4 C          -1.5500   -0.9380    0.0000 C.ar    1  LIG1        0.2442
      5 N          -0.6710   -1.4420    0.0000 N.ar    1  LIG1       -0.1991
      6 C           0.1880   -0.9210    0.0000 C.ar    1  LIG1        0.2004
      7 N           1.1380   -1.2080    0.0000 N.ar    1  LIG1       -0.2062
      8 C           1.7250   -0.3960    0.0000 C.ar    1  LIG1        0.1506
      9 N           1.1330    0.3960    0.0000 N.ar    1  LIG1       -0.2727
     10 C           1.5210    1.3130    0.0000 C.ar    1  LIG1        0.0829
     11 C           2.5080    1.4460    0.0000 C.ar    1  LIG1        0.0192
     12 C           3.1000    0.6380    0.0000 C.ar    1  LIG1        0.0046
     13 C           2.7080   -0.2790    0.0000 C.ar    1  LIG1        0.0375
     14 N          -2.4960   -1.2750    0.0000 N.ar    1  LIG1       -0.0269
     15 O          -3.1040   -0.4830    0.0000 O.2     1  LIG1       -0.2385
     16 N          -2.5170    0.3460    0.0000 N.ar    1  LIG1       -0.0269
@<TRIPOS>BOND
     1     1     2   ar
     2     1     6   ar
     3     1     9   ar
     4     2     3   ar
     5     3     4   ar
     6     3    16   ar
     7     4     5   ar
     8     4    14   ar
     9     5     6   ar
    10     6     7   ar
    11     7     8   ar
    12     8     9   ar
    13     8    13   ar
    14     9    10   ar
    15    10    11   ar
    16    11    12   ar
    17    12    13   ar
    18    14    15   ar
    19    15    16   ar
