@<TRIPOS>MOLECULE
30759_ChemDiv_K781-0002
 23 25 0 0 0
SMALL
GASTEIGER
Energy = 0

@<TRIPOS>ATOM
      1 N           1.3000   -0.2580    0.0000 N.am    1  LIG1       -0.2582
      2 C           0.4420   -0.7670    0.0000 C.2     1  LIG1        0.2407
      3 C          -0.4290   -0.2750    0.0000 C.3     1  LIG1        0.1489
      4 S          -1.2960   -0.7790    0.0000 S.3     1  LIG1       -0.0851
      5 C          -2.1710   -0.2790    0.0000 C.ar    1  LIG1        0.1082
      6 C          -2.1710    0.7290    0.0000 C.ar    1  LIG1        0.0375
      7 C          -1.3040    1.2380    0.0000 C.2     1  LIG1        0.0748
      8 O          -1.3040    2.2420    0.0000 O.co2   1  LIG1       -0.5445
      9 O          -0.4290    0.7380    0.0000 O.co2   1  LIG1       -0.5445
     10 C          -3.0380    1.2290    0.0000 C.ar    1  LIG1        0.0047
     11 C          -3.9000    0.7290    0.0000 C.ar    1  LIG1        0.0208
     12 C          -3.9000   -0.2790    0.0000 C.ar    1  LIG1        0.0994
     13 N          -3.0380   -0.7790    0.0000 N.ar    1  LIG1       -0.2376
     14 O           0.4420   -1.7670    0.0000 O.2     1  LIG1       -0.2736
     15 C           2.1710   -0.7500    0.0000 C.ar    1  LIG1        0.0498
     16 C           3.0330   -0.2500    0.0000 C.ar    1  LIG1       -0.0084
     17 C           3.0210    0.7540    0.0000 C.3     1  LIG1        0.0294
     18 C           2.1540    1.2460    0.0000 C.3     1  LIG1        0.0266
     19 C           1.2920    0.7380    0.0000 C.3     1  LIG1        0.0986
     20 C           3.8880   -0.7460    0.0000 C.ar    1  LIG1       -0.0030
     21 C           3.8960   -1.7380    0.0000 C.ar    1  LIG1       -0.0002
     22 C           3.0380   -2.2380    0.0000 C.ar    1  LIG1        0.0013
     23 C           2.1710   -1.7460    0.0000 C.ar    1  LIG1        0.0146
@<TRIPOS>BOND
     1     1     2   am
     2     1    15    1
     3     1    19    1
     4     2     3    1
     5     2    14    2
     6     3     4    1
     7     4     5    1
     8     5     6   ar
     9     5    13   ar
    10     6     7    1
    11     6    10   ar
    12     7     8   ar
    13     7     9   ar
    14    10    11   ar
    15    11    12   ar
    16    12    13   ar
    17    15    16   ar
    18    15    23   ar
    19    16    17    1
    20    16    20   ar
    21    17    18    1
    22    18    19    1
    23    20    21   ar
    24    21    22   ar
    25    22    23   ar
