@<TRIPOS>MOLECULE
30756_ChemDiv_D103-0138
 33 37 0 0 0
SMALL
GASTEIGER
Energy = 0

@<TRIPOS>ATOM
      1 C           1.2500    0.4250    0.0000 C.ar    1  LIG1        0.2017
      2 C           0.7500    1.2920    0.0000 C.ar    1  LIG1        0.0843
      3 C           1.2540    2.1630    0.0000 C.ar    1  LIG1        0.2018
      4 C           2.2540    2.1500    0.0000 C.ar    1  LIG1        0.0735
      5 C           2.7540    1.2750    0.0000 C.ar    1  LIG1        0.1482
      6 O           2.2540    0.4250    0.0000 O.2     1  LIG1       -0.4487
      7 C           3.7540    1.2710    0.0000 C.ar    1  LIG1        0.0333
      8 C           4.2630    2.1330    0.0000 C.ar    1  LIG1       -0.0188
      9 C           3.7630    3.0080    0.0000 C.ar    1  LIG1       -0.0040
     10 C           2.7630    3.0080    0.0000 C.ar    1  LIG1        0.0059
     11 C           5.2630    2.1210    0.0000 C.3     1  LIG1        0.0311
     12 O           0.7580    3.0290    0.0000 O.2     1  LIG1       -0.2864
     13 C           0.7420   -0.4380    0.0000 C.2     1  LIG1        0.2842
     14 N          -0.2580   -0.4380    0.0000 N.am    1  LIG1       -0.2620
     15 C          -0.7540   -1.3130    0.0000 C.3     1  LIG1        0.1568
     16 C          -1.7580   -1.3130    0.0000 C.3     1  LIG1        0.1612
     17 N          -2.2580   -0.4380    0.0000 N.4     1  LIG1        0.3820
     18 C          -3.2580   -0.4380    0.0000 C.3     1  LIG1        0.1331
     19 C          -3.7670   -1.3000    0.0000 C.ar    1  LIG1        0.0328
     20 C          -4.7670   -1.3000    0.0000 C.ar    1  LIG1        0.0016
     21 C          -5.2670   -2.1630    0.0000 C.ar    1  LIG1       -0.0001
     22 C          -4.7670   -3.0250    0.0000 C.ar    1  LIG1       -0.0000
     23 C          -3.7580   -3.0250    0.0000 C.ar    1  LIG1       -0.0001
     24 C          -3.2670   -2.1630    0.0000 C.ar    1  LIG1        0.0016
     25 C          -3.7580    0.4250    0.0000 C.ar    1  LIG1        0.0328
     26 C          -4.7500    0.4250    0.0000 C.ar    1  LIG1        0.0016
     27 C          -5.2500    1.2880    0.0000 C.ar    1  LIG1       -0.0001
     28 C          -4.7500    2.1540    0.0000 C.ar    1  LIG1       -0.0000
     29 C          -3.7500    2.1540    0.0000 C.ar    1  LIG1       -0.0001
     30 C          -3.2540    1.2880    0.0000 C.ar    1  LIG1        0.0016
     31 C          -1.7580    0.4250    0.0000 C.3     1  LIG1        0.1612
     32 C          -0.7540    0.4250    0.0000 C.3     1  LIG1        0.1568
     33 O           1.2500   -1.3000    0.0000 O.2     1  LIG1       -0.2666
@<TRIPOS>BOND
     1     1     2   ar
     2     1     6   ar
     3     1    13    1
     4     2     3   ar
     5     3     4   ar
     6     3    12    2
     7     4     5   ar
     8     4    10   ar
     9     5     6   ar
    10     5     7   ar
    11     7     8   ar
    12     8     9   ar
    13     8    11    1
    14     9    10   ar
    15    13    14   am
    16    13    33    2
    17    14    15    1
    18    14    32    1
    19    15    16    1
    20    16    17    1
    21    17    18    1
    22    17    31    1
    23    18    19    1
    24    18    25    1
    25    19    20   ar
    26    19    24   ar
    27    20    21   ar
    28    21    22   ar
    29    22    23   ar
    30    23    24   ar
    31    25    26   ar
    32    25    30   ar
    33    26    27   ar
    34    27    28   ar
    35    28    29   ar
    36    29    30   ar
    37    31    32    1
