@<TRIPOS>MOLECULE
30757_ChemDiv_C444-0950
 30 32 0 0 0
SMALL
GASTEIGER
Energy = 0

@<TRIPOS>ATOM
      1 S           1.2500   -1.3130    0.0000 S.O2    1  LIG1        0.0091
      2 C           1.7630   -0.4380    0.0000 C.ar    1  LIG1        0.1054
      3 C           2.7540   -0.4380    0.0000 C.ar    1  LIG1        0.0153
      4 C           3.2580    0.4210    0.0000 C.ar    1  LIG1       -0.0072
      5 C           2.7540    1.2960    0.0000 C.ar    1  LIG1        0.0499
      6 N           3.2580    2.1540    0.0000 N.am    1  LIG1       -0.2589
      7 C           2.7540    3.0170    0.0000 C.2     1  LIG1        0.2293
      8 O           3.2460    3.8880    0.0000 O.2     1  LIG1       -0.2745
      9 C           1.7540    3.0170    0.0000 C.3     1  LIG1        0.0856
     10 C           1.2630    3.8880    0.0000 C.3     1  LIG1        0.0101
     11 C           4.2580    2.1540    0.0000 C.3     1  LIG1        0.0985
     12 C           4.7630    1.2960    0.0000 C.3     1  LIG1        0.0266
     13 C           4.2500    0.4210    0.0000 C.3     1  LIG1        0.0294
     14 C           1.7540    1.2960    0.0000 C.ar    1  LIG1        0.0159
     15 C           1.2500    0.4210    0.0000 C.ar    1  LIG1        0.0196
     16 C           0.7380   -2.1710    0.0000 C.3     1  LIG1        0.1655
     17 C          -0.2540   -2.1630    0.0000 C.3     1  LIG1        0.1129
     18 C          -0.7670   -3.0250    0.0000 C.2     1  LIG1        0.2474
     19 N          -1.7580   -3.0250    0.0000 N.am    1  LIG1       -0.1792
     20 C          -2.2580   -2.1630    0.0000 C.ar    1  LIG1        0.0730
     21 C          -3.2630   -2.1630    0.0000 C.ar    1  LIG1        0.0120
     22 C          -3.7630   -1.2920    0.0000 C.ar    1  LIG1       -0.0245
     23 C          -3.2630   -0.4290    0.0000 C.ar    1  LIG1       -0.0257
     24 C          -2.2710   -0.4290    0.0000 C.ar    1  LIG1       -0.0032
     25 C          -1.7670   -1.2920    0.0000 C.ar    1  LIG1        0.0163
     26 C          -3.7630    0.4330    0.0000 C.3     1  LIG1        0.0307
     27 C          -4.7670   -1.3000    0.0000 C.3     1  LIG1        0.0307
     28 O          -0.2630   -3.8830    0.0000 O.2     1  LIG1       -0.2729
     29 O           0.3790   -0.8000    0.0000 O.2     1  LIG1       -0.1686
     30 O           2.1130   -1.8130    0.0000 O.2     1  LIG1       -0.1686
@<TRIPOS>BOND
     1     1     2    1
     2     1    16    1
     3     1    29    2
     4     1    30    2
     5     2     3   ar
     6     2    15   ar
     7     3     4   ar
     8     4     5   ar
     9     4    13    1
    10     5     6    1
    11     5    14   ar
    12     6     7   am
    13     6    11    1
    14     7     8    2
    15     7     9    1
    16     9    10    1
    17    11    12    1
    18    12    13    1
    19    14    15   ar
    20    16    17    1
    21    17    18    1
    22    18    19   am
    23    18    28    2
    24    19    20    1
    25    20    21   ar
    26    20    25   ar
    27    21    22   ar
    28    22    23   ar
    29    22    27    1
    30    23    24   ar
    31    23    26    1
    32    24    25   ar
