@<TRIPOS>MOLECULE
30765_ChemDiv_4155-0136
 28 32 0 0 0
SMALL
GASTEIGER
Energy = 0

@<TRIPOS>ATOM
      1 N          -0.2500    0.0000    0.0000 N.am    1  LIG1       -0.2081
      2 C          -0.8130   -0.8040    0.0000 C.2     1  LIG1        0.2355
      3 C          -1.8040   -0.5040    0.0000 C.3     1  LIG1        0.0912
      4 C          -1.8040    0.5130    0.0000 C.3     1  LIG1        0.0973
      5 C          -0.8130    0.8080    0.0000 C.2     1  LIG1        0.2359
      6 O          -0.4580    1.7500    0.0000 O.2     1  LIG1       -0.2741
      7 C          -2.6670    1.0210    0.0000 C.3     1  LIG1        0.0886
      8 C          -3.5540    0.5130    0.0000 C.ar    1  LIG1       -0.0190
      9 C          -3.5540   -0.5040    0.0000 C.ar    1  LIG1       -0.0251
     10 C          -2.6670   -1.0170    0.0000 C.3     1  LIG1        0.0385
     11 C          -3.0540   -0.2830    0.0000 C.3     1  LIG1        0.0697
     12 C          -2.1290    0.0460    0.0000 C.2     1  LIG1        0.1551
     13 O          -1.4170    0.0460    0.0000 O.2     1  LIG1       -0.2957
     14 C          -4.4250   -1.0170    0.0000 C.ar    1  LIG1       -0.0046
     15 C          -5.3080   -0.5040    0.0000 C.ar    1  LIG1       -0.0003
     16 C          -5.3080    0.5130    0.0000 C.ar    1  LIG1       -0.0003
     17 C          -4.4250    1.0210    0.0000 C.ar    1  LIG1       -0.0042
     18 O          -0.4580   -1.7460    0.0000 O.2     1  LIG1       -0.2741
     19 C           0.7540    0.0000    0.0000 C.ar    1  LIG1        0.0607
     20 C           1.2540    0.8750    0.0000 C.ar    1  LIG1        0.0167
     21 C           2.2880    0.8750    0.0000 C.ar    1  LIG1        0.0179
     22 C           2.7960    0.0000    0.0000 C.ar    1  LIG1        0.0734
     23 N           3.7920    0.0000    0.0000 N.am    1  LIG1       -0.1792
     24 C           4.2960   -0.8460    0.0000 C.2     1  LIG1        0.2461
     25 O           3.7130   -1.7380    0.0000 O.2     1  LIG1       -0.2730
     26 C           5.3040   -0.8460    0.0000 C.3     1  LIG1        0.0968
     27 C           2.2880   -0.8670    0.0000 C.ar    1  LIG1        0.0179
     28 C           1.2670   -0.8670    0.0000 C.ar    1  LIG1        0.0167
@<TRIPOS>BOND
     1     1     2   am
     2     1     5   am
     3     1    19    1
     4     2     3    1
     5     2    18    2
     6     3     4    1
     7     3    10    1
     8     4     5    1
     9     4     7    1
    10     5     6    2
    11     7     8    1
    12     7    12    1
    13     8     9   ar
    14     8    17   ar
    15     9    10    1
    16     9    14   ar
    17    10    11    1
    18    11    12    1
    19    12    13    2
    20    14    15   ar
    21    15    16   ar
    22    16    17   ar
    23    19    20   ar
    24    19    28   ar
    25    20    21   ar
    26    21    22   ar
    27    22    23    1
    28    22    27   ar
    29    23    24   am
    30    24    25    2
    31    24    26    1
    32    27    28   ar
