@<TRIPOS>MOLECULE
30761_ChemDiv_4152-0169
 18 19 0 0 0
SMALL
GASTEIGER
Energy = 0

@<TRIPOS>ATOM
      1 C          -1.3080    0.2580    0.0000 C.2     1  LIG1        0.1114
      2 N          -2.1750   -0.2500    0.0000 N.am    1  LIG1       -0.2958
      3 C          -2.1880   -1.2500    0.0000 C.3     1  LIG1        0.1034
      4 C          -3.0420   -1.7500    0.0000 C.3     1  LIG1        0.0790
      5 S          -3.9000   -1.2500    0.0000 S.3     1  LIG1       -0.1367
      6 C          -3.9000   -0.2500    0.0000 C.3     1  LIG1        0.0790
      7 C          -3.0330    0.2500    0.0000 C.3     1  LIG1        0.1034
      8 S          -0.4500   -0.2420    0.0000 S.3     1  LIG1       -0.0839
      9 C           0.4170    0.2580    0.0000 C.3     1  LIG1        0.1327
     10 C           1.2880   -0.2420    0.0000 C.2     1  LIG1        0.1843
     11 O           1.2880   -1.2420    0.0000 O.2     1  LIG1       -0.2904
     12 C           2.1540    0.2580    0.0000 C.ar    1  LIG1        0.0356
     13 C           2.1420    1.2540    0.0000 C.ar    1  LIG1        0.0029
     14 C           3.0040    1.7540    0.0000 C.ar    1  LIG1        0.0001
     15 C           3.8960    1.2540    0.0000 C.ar    1  LIG1        0.0000
     16 C           3.8960    0.2580    0.0000 C.ar    1  LIG1        0.0001
     17 C           3.0290   -0.2420    0.0000 C.ar    1  LIG1        0.0029
     18 S          -1.3170    1.2540    0.0000 S.2     1  LIG1       -0.0279
@<TRIPOS>BOND
     1     1     2    1
     2     1     8    1
     3     1    18    2
     4     2     3    1
     5     2     7    1
     6     3     4    1
     7     4     5    1
     8     5     6    1
     9     6     7    1
    10     8     9    1
    11     9    10    1
    12    10    11    2
    13    10    12    1
    14    12    13   ar
    15    12    17   ar
    16    13    14   ar
    17    14    15   ar
    18    15    16   ar
    19    16    17   ar
