@<TRIPOS>MOLECULE
30760_ChemDiv_D103-0808
 34 38 0 0 0
SMALL
GASTEIGER
Energy = 0

@<TRIPOS>ATOM
      1 C           1.2500    0.0000    0.0000 C.ar    1  LIG1        0.2017
      2 C           0.7500    0.8710    0.0000 C.ar    1  LIG1        0.0843
      3 C           1.2540    1.7420    0.0000 C.ar    1  LIG1        0.2018
      4 C           2.2540    1.7250    0.0000 C.ar    1  LIG1        0.0732
      5 C           2.7540    0.8540    0.0000 C.ar    1  LIG1        0.1482
      6 O           2.2540    0.0000    0.0000 O.2     1  LIG1       -0.4487
      7 C           3.7540    0.8500    0.0000 C.ar    1  LIG1        0.0330
      8 C           4.2630    1.7130    0.0000 C.ar    1  LIG1       -0.0228
      9 C           3.7630    2.5880    0.0000 C.ar    1  LIG1       -0.0255
     10 C           2.7630    2.5880    0.0000 C.ar    1  LIG1        0.0017
     11 C           4.2670    3.4500    0.0000 C.3     1  LIG1        0.0307
     12 C           5.2630    1.7000    0.0000 C.3     1  LIG1        0.0308
     13 O           0.7580    2.6080    0.0000 O.2     1  LIG1       -0.2864
     14 C           0.7420   -0.8580    0.0000 C.2     1  LIG1        0.2842
     15 N          -0.2580   -0.8580    0.0000 N.am    1  LIG1       -0.2620
     16 C          -0.7540   -1.7330    0.0000 C.3     1  LIG1        0.1568
     17 C          -1.7580   -1.7330    0.0000 C.3     1  LIG1        0.1612
     18 N          -2.2580   -0.8580    0.0000 N.4     1  LIG1        0.3820
     19 C          -3.2580   -0.8580    0.0000 C.3     1  LIG1        0.1331
     20 C          -3.7670   -1.7210    0.0000 C.ar    1  LIG1        0.0328
     21 C          -3.2670   -2.5830    0.0000 C.ar    1  LIG1        0.0016
     22 C          -3.7580   -3.4460    0.0000 C.ar    1  LIG1       -0.0001
     23 C          -4.7670   -3.4460    0.0000 C.ar    1  LIG1       -0.0000
     24 C          -5.2670   -2.5830    0.0000 C.ar    1  LIG1       -0.0001
     25 C          -4.7670   -1.7210    0.0000 C.ar    1  LIG1        0.0016
     26 C          -3.7580    0.0000    0.0000 C.ar    1  LIG1        0.0328
     27 C          -3.2540    0.8630    0.0000 C.ar    1  LIG1        0.0016
     28 C          -3.7500    1.7330    0.0000 C.ar    1  LIG1       -0.0001
     29 C          -4.7500    1.7330    0.0000 C.ar    1  LIG1       -0.0000
     30 C          -5.2500    0.8630    0.0000 C.ar    1  LIG1       -0.0001
     31 C          -4.7500    0.0000    0.0000 C.ar    1  LIG1        0.0016
     32 C          -1.7580    0.0000    0.0000 C.3     1  LIG1        0.1612
     33 C          -0.7540    0.0000    0.0000 C.3     1  LIG1        0.1568
     34 O           1.2500   -1.7210    0.0000 O.2     1  LIG1       -0.2666
@<TRIPOS>BOND
     1     1     2   ar
     2     1     6   ar
     3     1    14    1
     4     2     3   ar
     5     3     4   ar
     6     3    13    2
     7     4     5   ar
     8     4    10   ar
     9     5     6   ar
    10     5     7   ar
    11     7     8   ar
    12     8     9   ar
    13     8    12    1
    14     9    10   ar
    15     9    11    1
    16    14    15   am
    17    14    34    2
    18    15    16    1
    19    15    33    1
    20    16    17    1
    21    17    18    1
    22    18    19    1
    23    18    32    1
    24    19    20    1
    25    19    26    1
    26    20    21   ar
    27    20    25   ar
    28    21    22   ar
    29    22    23   ar
    30    23    24   ar
    31    24    25   ar
    32    26    27   ar
    33    26    31   ar
    34    27    28   ar
    35    28    29   ar
    36    29    30   ar
    37    30    31   ar
    38    32    33    1
