@<TRIPOS>MOLECULE
30769_ChemDiv_6486-0002
 16 18 0 0 0
SMALL
GASTEIGER
Energy = 0

@<TRIPOS>ATOM
      1 C           0.3250   -1.0040    0.0000 C.ar    1  LIG1        0.1514
      2 C           0.3290    0.0040    0.0000 C.ar    1  LIG1        0.0311
      3 C           1.1920    0.5130    0.0000 C.ar    1  LIG1       -0.0125
      4 C           2.0670    0.0040    0.0000 C.ar    1  LIG1        0.0781
      5 C           2.0670   -1.0040    0.0000 C.ar    1  LIG1        0.3456
      6 O           1.1920   -1.5000    0.0000 O.2     1  LIG1       -0.4209
      7 O           2.9290   -1.5080    0.0000 O.2     1  LIG1       -0.2445
      8 C           1.1920    1.5130    0.0000 C.3     1  LIG1        0.0313
      9 C          -0.5420    0.5040    0.0000 C.ar    1  LIG1        0.0055
     10 C          -1.4040    0.0000    0.0000 C.ar    1  LIG1        0.0338
     11 C          -1.4040   -1.0000    0.0000 C.ar    1  LIG1        0.1482
     12 C          -0.5420   -1.4960    0.0000 C.ar    1  LIG1        0.0750
     13 O          -2.3460   -1.3040    0.0000 O.2     1  LIG1       -0.4507
     14 C          -2.9330   -0.4960    0.0000 C.ar    1  LIG1        0.1753
     15 C          -2.3460    0.3080    0.0000 C.ar    1  LIG1        0.0187
     16 C          -2.6580    1.2580    0.0000 C.3     1  LIG1        0.0344
@<TRIPOS>BOND
     1     1     2   ar
     2     1     6   ar
     3     1    12   ar
     4     2     3   ar
     5     2     9   ar
     6     3     4   ar
     7     3     8    1
     8     4     5   ar
     9     5     6   ar
    10     5     7    2
    11     9    10   ar
    12    10    11   ar
    13    10    15   ar
    14    11    12   ar
    15    11    13   ar
    16    13    14   ar
    17    14    15   ar
    18    15    16    1
