@<TRIPOS>MOLECULE
30771_ChemDiv_6486-0094
 20 22 0 0 0
SMALL
GASTEIGER
Energy = 0

@<TRIPOS>ATOM
      1 C           1.2080    0.0000    0.0000 C.ar    1  LIG1        0.0499
      2 C           0.3420    0.5080    0.0000 C.ar    1  LIG1       -0.0167
      3 C          -0.5250    0.0000    0.0000 C.ar    1  LIG1        0.0308
      4 C          -0.5250   -1.0040    0.0000 C.ar    1  LIG1        0.1514
      5 O           0.3380   -1.5000    0.0000 O.2     1  LIG1       -0.4212
      6 C           1.2080   -1.0040    0.0000 C.ar    1  LIG1        0.3414
      7 O           2.0710   -1.5040    0.0000 O.2     1  LIG1       -0.2448
      8 C          -1.3920   -1.5040    0.0000 C.ar    1  LIG1        0.0750
      9 C          -2.2580   -1.0040    0.0000 C.ar    1  LIG1        0.1482
     10 C          -2.2630   -0.0040    0.0000 C.ar    1  LIG1        0.0338
     11 C          -1.3920    0.5040    0.0000 C.ar    1  LIG1        0.0055
     12 C          -3.2210    0.3000    0.0000 C.ar    1  LIG1        0.0187
     13 C          -3.8040   -0.5170    0.0000 C.ar    1  LIG1        0.1753
     14 O          -3.2130   -1.3170    0.0000 O.2     1  LIG1       -0.4507
     15 C          -3.5330    1.2420    0.0000 C.3     1  LIG1        0.0344
     16 C           0.3420    1.5080    0.0000 C.3     1  LIG1        0.0310
     17 C           2.0710    0.4960    0.0000 C.3     1  LIG1        0.0326
     18 C           2.9330   -0.0040    0.0000 C.3     1  LIG1        0.0046
     19 C           3.8000    0.4880    0.0000 C.3     1  LIG1        0.0003
     20 C           2.9290   -0.9960    0.0000 C.3     1  LIG1        0.0003
@<TRIPOS>BOND
     1     1     2   ar
     2     1     6   ar
     3     1    17    1
     4     2     3   ar
     5     2    16    1
     6     3     4   ar
     7     3    11   ar
     8     4     5   ar
     9     4     8   ar
    10     5     6   ar
    11     6     7    2
    12     8     9   ar
    13     9    10   ar
    14     9    14   ar
    15    10    11   ar
    16    10    12   ar
    17    12    13   ar
    18    12    15    1
    19    13    14   ar
    20    17    18    1
    21    18    19    1
    22    18    20    1
