@<TRIPOS>MOLECULE
30773_ChemDiv_8008-8625
 17 19 0 0 0
SMALL
GASTEIGER
Energy = 0

@<TRIPOS>ATOM
      1 C           0.3580   -0.4830    0.0000 C.ar    1  LIG1        0.1473
      2 C           0.3580    0.4920    0.0000 C.ar    1  LIG1        0.0308
      3 C           1.2210    1.0210    0.0000 C.ar    1  LIG1       -0.0125
      4 C           2.0710    0.4920    0.0000 C.ar    1  LIG1        0.0781
      5 C           2.0710   -0.4830    0.0000 C.ar    1  LIG1        0.3456
      6 O           1.2210   -1.0130    0.0000 O.2     1  LIG1       -0.4213
      7 O           2.9170   -1.0130    0.0000 O.2     1  LIG1       -0.2445
      8 C           1.2210    2.0080    0.0000 C.3     1  LIG1        0.0313
      9 C          -0.4710    1.0210    0.0000 C.ar    1  LIG1        0.0055
     10 C          -1.3830    0.4920    0.0000 C.ar    1  LIG1        0.0335
     11 C          -1.3830   -0.4830    0.0000 C.ar    1  LIG1        0.1440
     12 C          -0.4710   -1.0130    0.0000 C.ar    1  LIG1        0.0472
     13 C          -0.4080   -2.0040    0.0000 C.3     1  LIG1        0.0375
     14 O          -2.3580   -0.7750    0.0000 O.2     1  LIG1       -0.4510
     15 C          -2.9210    0.0130    0.0000 C.ar    1  LIG1        0.1752
     16 C          -2.3580    0.8250    0.0000 C.ar    1  LIG1        0.0187
     17 C          -2.6960    1.7500    0.0000 C.3     1  LIG1        0.0344
@<TRIPOS>BOND
     1     1     2   ar
     2     1     6   ar
     3     1    12   ar
     4     2     3   ar
     5     2     9   ar
     6     3     4   ar
     7     3     8    1
     8     4     5   ar
     9     5     6   ar
    10     5     7    2
    11     9    10   ar
    12    10    11   ar
    13    10    16   ar
    14    11    12   ar
    15    11    14   ar
    16    12    13    1
    17    14    15   ar
    18    15    16   ar
    19    16    17    1
