@<TRIPOS>MOLECULE
30770_ChemDiv_4244-2148
 27 31 0 0 0
SMALL
GASTEIGER
Energy = 0

@<TRIPOS>ATOM
      1 C          -1.6540    0.5040    0.0000 C.ar    1  LIG1        0.0169
      2 C          -1.6540   -0.5040    0.0000 C.ar    1  LIG1        0.0188
      3 C          -0.7750   -1.0040    0.0000 C.ar    1  LIG1        0.0813
      4 N           0.1000   -0.5040    0.0000 N.ar    1  LIG1       -0.2453
      5 C           0.1000    0.5040    0.0000 C.ar    1  LIG1        0.0819
      6 C           0.9540    1.0080    0.0000 C.ar    1  LIG1        0.0271
      7 C           0.9540    2.0210    0.0000 C.ar    1  LIG1        0.0392
      8 C           1.8170    2.5080    0.0000 C.ar    1  LIG1        0.0469
      9 C           2.6920    2.0210    0.0000 C.ar    1  LIG1        0.1769
     10 C           2.7040    1.0080    0.0000 C.ar    1  LIG1        0.1765
     11 C           1.8170    0.5080    0.0000 C.ar    1  LIG1        0.0422
     12 O           3.6330    0.7080    0.0000 O.3     1  LIG1       -0.4346
     13 C           4.2250    1.5210    0.0000 C.3     1  LIG1        0.4294
     14 O           3.6330    2.3210    0.0000 O.3     1  LIG1       -0.4346
     15 BR          0.1000    2.5080    0.0000 Br      1  LIG1       -0.0488
     16 C          -0.7920    0.9960    0.0000 C.ar    1  LIG1        0.0203
     17 C          -0.7750   -1.9960    0.0000 C.ar    1  LIG1        0.0191
     18 C          -1.6540   -2.5040    0.0000 C.ar    1  LIG1        0.0015
     19 C          -2.5080   -1.9960    0.0000 C.ar    1  LIG1        0.0001
     20 C          -2.5080   -1.0040    0.0000 C.ar    1  LIG1        0.0015
     21 C          -3.3540   -0.5040    0.0000 C.ar    1  LIG1        0.0000
     22 C          -4.2290   -1.0040    0.0000 C.ar    1  LIG1        0.0000
     23 C          -4.2290   -1.9960    0.0000 C.ar    1  LIG1        0.0000
     24 C          -3.3540   -2.5040    0.0000 C.ar    1  LIG1        0.0000
     25 C          -2.5080    0.9960    0.0000 C.2     1  LIG1        0.0730
     26 O          -3.3790    0.5040    0.0000 O.co2   1  LIG1       -0.5446
     27 O          -2.5210    2.0210    0.0000 O.co2   1  LIG1       -0.5446
@<TRIPOS>BOND
     1     1     2   ar
     2     1    16   ar
     3     1    25    1
     4     2     3   ar
     5     2    20   ar
     6     3     4   ar
     7     3    17   ar
     8     4     5   ar
     9     5     6    1
    10     5    16   ar
    11     6     7   ar
    12     6    11   ar
    13     7     8   ar
    14     7    15    1
    15     8     9   ar
    16     9    10   ar
    17     9    14    1
    18    10    11   ar
    19    10    12    1
    20    12    13    1
    21    13    14    1
    22    17    18   ar
    23    18    19   ar
    24    19    20   ar
    25    19    24   ar
    26    20    21   ar
    27    21    22   ar
    28    22    23   ar
    29    23    24   ar
    30    25    26   ar
    31    25    27   ar
