@<TRIPOS>MOLECULE
30776_ChemDiv_7119-0162
 25 27 0 0 0
SMALL
GASTEIGER
Energy = 0

@<TRIPOS>ATOM
      1 C          -0.8670    0.7500    0.0000 C.ar    1  LIG1        0.1317
      2 C          -1.7290    1.2500    0.0000 C.ar    1  LIG1        0.2062
      3 C          -2.5960    0.7540    0.0000 C.ar    1  LIG1        0.0733
      4 C          -2.6040   -0.2460    0.0000 C.ar    1  LIG1        0.1465
      5 N          -1.7380   -0.7500    0.0000 N.ar    1  LIG1       -0.3112
      6 C          -0.8710   -0.2500    0.0000 C.ar    1  LIG1        0.0867
      7 C          -1.7380   -1.7500    0.0000 C.3     1  LIG1        0.1076
      8 C          -2.6040   -2.2500    0.0000 C.3     1  LIG1        0.0265
      9 N          -3.4710   -0.7330    0.0000 N.ar    1  LIG1       -0.2325
     10 C          -4.3330   -0.2330    0.0000 C.ar    1  LIG1        0.0610
     11 C          -4.3250    0.7710    0.0000 C.ar    1  LIG1        0.0150
     12 C          -3.4540    1.2670    0.0000 C.ar    1  LIG1        0.0074
     13 C          -5.1960   -0.7250    0.0000 C.3     1  LIG1        0.0521
     14 O          -1.7250    2.2540    0.0000 O.2     1  LIG1       -0.2862
     15 C           0.0000    1.2420    0.0000 C.2     1  LIG1        0.3462
     16 O           0.8670    0.7380    0.0000 O.3     1  LIG1       -0.4403
     17 C           1.7380    1.2330    0.0000 C.3     1  LIG1        0.2354
     18 C           2.6000    0.7290    0.0000 C.ar    1  LIG1        0.0214
     19 C           2.5920   -0.2750    0.0000 C.ar    1  LIG1        0.0016
     20 C           3.4540   -0.7790    0.0000 C.ar    1  LIG1        0.0294
     21 C           4.3250   -0.2880    0.0000 C.ar    1  LIG1        0.1401
     22 F           5.1920   -0.7880    0.0000 F       1  LIG1       -0.2042
     23 C           4.3290    0.7210    0.0000 C.ar    1  LIG1        0.0294
     24 C           3.4630    1.2210    0.0000 C.ar    1  LIG1        0.0016
     25 O           0.0080    2.2420    0.0000 O.2     1  LIG1       -0.2447
@<TRIPOS>BOND
     1     1     2   ar
     2     1     6   ar
     3     1    15    1
     4     2     3   ar
     5     2    14    2
     6     3     4   ar
     7     3    12   ar
     8     4     5   ar
     9     4     9   ar
    10     5     6   ar
    11     5     7    1
    12     7     8    1
    13     9    10   ar
    14    10    11   ar
    15    10    13    1
    16    11    12   ar
    17    15    16    1
    18    15    25    2
    19    16    17    1
    20    17    18    1
    21    18    19   ar
    22    18    24   ar
    23    19    20   ar
    24    20    21   ar
    25    21    22    1
    26    21    23   ar
    27    23    24   ar
