@<TRIPOS>MOLECULE
30778_ChemDiv_8013-1500
 27 30 0 0 0
SMALL
GASTEIGER
Energy = 0

@<TRIPOS>ATOM
      1 C          -0.7040   -0.4170    0.0000 C.ar    1  LIG1        0.1317
      2 C          -1.1750    0.4250    0.0000 C.ar    1  LIG1        0.2062
      3 C          -2.1290    0.4250    0.0000 C.ar    1  LIG1        0.0733
      4 C          -2.6130   -0.4080    0.0000 C.ar    1  LIG1        0.1465
      5 N          -2.1290   -1.2420    0.0000 N.ar    1  LIG1       -0.3112
      6 C          -1.1750   -1.2420    0.0000 C.ar    1  LIG1        0.0867
      7 C          -2.6130   -2.0920    0.0000 C.3     1  LIG1        0.1076
      8 C          -3.6170   -2.0920    0.0000 C.3     1  LIG1        0.0265
      9 N          -3.6170   -0.4080    0.0000 N.ar    1  LIG1       -0.2325
     10 C          -4.1330    0.4540    0.0000 C.ar    1  LIG1        0.0610
     11 C          -3.6170    1.3170    0.0000 C.ar    1  LIG1        0.0150
     12 C          -2.6170    1.3170    0.0000 C.ar    1  LIG1        0.0074
     13 C          -5.1290    0.4670    0.0000 C.3     1  LIG1        0.0521
     14 O          -0.6710    1.2830    0.0000 O.2     1  LIG1       -0.2862
     15 C           0.2540   -0.4170    0.0000 C.2     1  LIG1        0.3462
     16 O           0.6540   -1.2500    0.0000 O.3     1  LIG1       -0.4403
     17 C           1.7210   -1.2500    0.0000 C.3     1  LIG1        0.2354
     18 C           2.2040   -0.4170    0.0000 C.ar    1  LIG1        0.0230
     19 C           3.1500   -0.4170    0.0000 C.ar    1  LIG1        0.0234
     20 C           3.6630    0.4130    0.0000 C.ar    1  LIG1        0.1430
     21 C           3.1920    1.2540    0.0000 C.ar    1  LIG1        0.1431
     22 N           3.6750    2.0960    0.0000 N.ar    1  LIG1       -0.0483
     23 O           5.1250    1.2460    0.0000 O.2     1  LIG1       -0.2415
     24 N           4.6000    0.4130    0.0000 N.ar    1  LIG1       -0.0483
     25 C           2.2250    1.2540    0.0000 C.ar    1  LIG1        0.0239
     26 C           1.7420    0.4130    0.0000 C.ar    1  LIG1        0.0011
     27 O           0.7460    0.4460    0.0000 O.2     1  LIG1       -0.2447
@<TRIPOS>BOND
     1     1     2   ar
     2     1     6   ar
     3     1    15    1
     4     2     3   ar
     5     2    14    2
     6     3     4   ar
     7     3    12   ar
     8     4     5   ar
     9     4     9   ar
    10     5     6   ar
    11     5     7    1
    12     7     8    1
    13     9    10   ar
    14    10    11   ar
    15    10    13    1
    16    11    12   ar
    17    15    16    1
    18    15    27    2
    19    16    17    1
    20    17    18    1
    21    18    19   ar
    22    18    26   ar
    23    19    20   ar
    24    20    21   ar
    25    20    24   ar
    26    21    22   ar
    27    21    25   ar
    28    22    23   ar
    29    23    24   ar
    30    25    26   ar
