@<TRIPOS>MOLECULE
30772_ChemDiv_4245-1526
 27 30 0 0 0
SMALL
GASTEIGER
Energy = 0

@<TRIPOS>ATOM
      1 C          -0.8380    2.1420    0.0000 C.ar    1  LIG1        0.0386
      2 C          -1.5040    2.8920    0.0000 C.2     1  LIG1        0.0860
      3 N          -2.4920    2.6880    0.0000 N.am    1  LIG1       -0.2973
      4 C          -3.1420    3.4210    0.0000 C.3     1  LIG1        0.1234
      5 C          -4.1170    3.2330    0.0000 C.3     1  LIG1        0.1636
      6 O          -4.4330    2.2670    0.0000 O.3     1  LIG1       -0.3501
      7 C          -3.7670    1.5330    0.0000 C.3     1  LIG1        0.1636
      8 C          -2.7790    1.7210    0.0000 C.3     1  LIG1        0.1234
      9 S          -1.1880    3.8420    0.0000 S.2     1  LIG1       -0.0347
     10 C           0.1580    2.2500    0.0000 C.ar    1  LIG1        0.0778
     11 N           0.5580    1.3380    0.0000 N.ar    1  LIG1       -0.3222
     12 C          -0.1830    0.6710    0.0000 C.ar    1  LIG1        0.0601
     13 C          -1.0380    1.1710    0.0000 C.ar    1  LIG1        0.0189
     14 C          -1.9040    0.6710    0.0000 C.ar    1  LIG1        0.0015
     15 C          -1.9040   -0.3420    0.0000 C.ar    1  LIG1        0.0001
     16 C          -1.0380   -0.8330    0.0000 C.ar    1  LIG1        0.0015
     17 C          -0.1710   -0.3420    0.0000 C.ar    1  LIG1        0.0172
     18 C           1.5460    1.1170    0.0000 C.3     1  LIG1        0.1533
     19 C           1.8580    0.1710    0.0000 C.3     1  LIG1        0.2297
     20 O           2.8290   -0.0380    0.0000 O.3     1  LIG1       -0.4734
     21 C           3.1500   -0.9960    0.0000 C.ar    1  LIG1        0.1388
     22 C           4.1210   -1.1960    0.0000 C.ar    1  LIG1        0.0392
     23 C           4.4290   -2.1380    0.0000 C.ar    1  LIG1        0.0327
     24 C           3.7790   -2.8920    0.0000 C.ar    1  LIG1        0.1403
     25 F           4.0960   -3.8380    0.0000 F       1  LIG1       -0.2042
     26 C           2.7920   -2.6960    0.0000 C.ar    1  LIG1        0.0327
     27 C           2.4830   -1.7380    0.0000 C.ar    1  LIG1        0.0392
@<TRIPOS>BOND
     1     1     2    1
     2     1    10   ar
     3     1    13   ar
     4     2     3    1
     5     2     9    2
     6     3     4    1
     7     3     8    1
     8     4     5    1
     9     5     6    1
    10     6     7    1
    11     7     8    1
    12    10    11   ar
    13    11    12   ar
    14    11    18    1
    15    12    13   ar
    16    12    17   ar
    17    13    14   ar
    18    14    15   ar
    19    15    16   ar
    20    16    17   ar
    21    18    19    1
    22    19    20    1
    23    20    21    1
    24    21    22   ar
    25    21    27   ar
    26    22    23   ar
    27    23    24   ar
    28    24    25    1
    29    24    26   ar
    30    26    27   ar
