@<TRIPOS>MOLECULE
30775_ChemDiv_K677-0005
 16 18 0 0 0
SMALL
GASTEIGER
Energy = 0

@<TRIPOS>ATOM
      1 C           0.3330   -0.5250    0.0000 C.ar    1  LIG1        0.1473
      2 C           0.3330    0.4830    0.0000 C.ar    1  LIG1        0.0308
      3 C           1.1960    0.9880    0.0000 C.ar    1  LIG1       -0.0125
      4 C           2.0710    0.4830    0.0000 C.ar    1  LIG1        0.0781
      5 C           2.0710   -0.5250    0.0000 C.ar    1  LIG1        0.3456
      6 O           1.1960   -1.0170    0.0000 O.2     1  LIG1       -0.4213
      7 O           2.9380   -1.0250    0.0000 O.2     1  LIG1       -0.2445
      8 C           1.1960    1.9880    0.0000 C.3     1  LIG1        0.0313
      9 C          -0.5290    0.9830    0.0000 C.ar    1  LIG1        0.0058
     10 C          -1.3920    0.4830    0.0000 C.ar    1  LIG1        0.0376
     11 C          -1.3920   -0.5170    0.0000 C.ar    1  LIG1        0.1443
     12 C          -0.5040   -0.9830    0.0000 C.ar    1  LIG1        0.0473
     13 C          -0.4880   -1.9830    0.0000 C.3     1  LIG1        0.0375
     14 O          -2.3500   -0.8330    0.0000 O.2     1  LIG1       -0.4506
     15 C          -2.9420   -0.0170    0.0000 C.ar    1  LIG1        0.1796
     16 C          -2.3500    0.7920    0.0000 C.ar    1  LIG1        0.0437
@<TRIPOS>BOND
     1     1     2   ar
     2     1     6   ar
     3     1    12   ar
     4     2     3   ar
     5     2     9   ar
     6     3     4   ar
     7     3     8    1
     8     4     5   ar
     9     5     6   ar
    10     5     7    2
    11     9    10   ar
    12    10    11   ar
    13    10    16   ar
    14    11    12   ar
    15    11    14   ar
    16    12    13    1
    17    14    15   ar
    18    15    16   ar
