@<TRIPOS>MOLECULE
30774_ChemDiv_4249-0059
 25 27 0 0 0
SMALL
GASTEIGER
Energy = 0

@<TRIPOS>ATOM
      1 C          -0.4420    0.7630    0.0000 C.ar    1  LIG1        0.1317
      2 C          -1.3040    1.2630    0.0000 C.ar    1  LIG1        0.2062
      3 C          -2.1670    0.7630    0.0000 C.ar    1  LIG1        0.0733
      4 C          -2.1670   -0.2580    0.0000 C.ar    1  LIG1        0.1465
      5 N          -1.3040   -0.7540    0.0000 N.ar    1  LIG1       -0.3112
      6 C          -0.4420   -0.2580    0.0000 C.ar    1  LIG1        0.0867
      7 C          -1.3040   -1.7500    0.0000 C.3     1  LIG1        0.1076
      8 C          -2.1670   -2.2540    0.0000 C.3     1  LIG1        0.0265
      9 N          -3.0290   -0.7540    0.0000 N.ar    1  LIG1       -0.2325
     10 C          -3.8920   -0.2580    0.0000 C.ar    1  LIG1        0.0610
     11 C          -3.8920    0.7630    0.0000 C.ar    1  LIG1        0.0150
     12 C          -3.0290    1.2630    0.0000 C.ar    1  LIG1        0.0074
     13 C          -4.7580   -0.7540    0.0000 C.3     1  LIG1        0.0521
     14 O          -1.3040    2.2580    0.0000 O.2     1  LIG1       -0.2862
     15 C           0.4380    1.2630    0.0000 C.2     1  LIG1        0.3462
     16 O           1.3040    0.7630    0.0000 O.3     1  LIG1       -0.4403
     17 C           2.1670    1.2630    0.0000 C.3     1  LIG1        0.2362
     18 C           3.0290    0.7630    0.0000 C.ar    1  LIG1        0.0319
     19 C           3.8920    1.2630    0.0000 C.ar    1  LIG1        0.0572
     20 CL          3.8920    2.2580    0.0000 Cl      1  LIG1       -0.0825
     21 C           4.7540    0.7630    0.0000 C.ar    1  LIG1        0.0112
     22 C           4.7540   -0.2380    0.0000 C.ar    1  LIG1        0.0008
     23 C           3.8920   -0.7380    0.0000 C.ar    1  LIG1       -0.0002
     24 C           3.0290   -0.2380    0.0000 C.ar    1  LIG1        0.0002
     25 O           0.4380    2.2580    0.0000 O.2     1  LIG1       -0.2447
@<TRIPOS>BOND
     1     1     2   ar
     2     1     6   ar
     3     1    15    1
     4     2     3   ar
     5     2    14    2
     6     3     4   ar
     7     3    12   ar
     8     4     5   ar
     9     4     9   ar
    10     5     6   ar
    11     5     7    1
    12     7     8    1
    13     9    10   ar
    14    10    11   ar
    15    10    13    1
    16    11    12   ar
    17    15    16    1
    18    15    25    2
    19    16    17    1
    20    17    18    1
    21    18    19   ar
    22    18    24   ar
    23    19    20    1
    24    19    21   ar
    25    21    22   ar
    26    22    23   ar
    27    23    24   ar
