@<TRIPOS>MOLECULE
30780_ChemDiv_4249-0076
 31 35 0 0 0
SMALL
GASTEIGER
Energy = 0

@<TRIPOS>ATOM
      1 N           1.7250   -0.4830    0.0000 N.am    1  LIG1       -0.2333
      2 C           2.5960   -0.9790    0.0000 C.ar    1  LIG1        0.0642
      3 C           3.4460   -0.4830    0.0000 C.ar    1  LIG1        0.0435
      4 S           3.4460    0.5130    0.0000 S.3     1  LIG1       -0.0844
      5 C           2.5960    1.0080    0.0000 C.ar    1  LIG1        0.0435
      6 C           1.7040    0.5130    0.0000 C.ar    1  LIG1        0.0642
      7 C           0.8540    1.0080    0.0000 C.ar    1  LIG1        0.0157
      8 C           0.8540    2.0040    0.0000 C.ar    1  LIG1        0.0013
      9 C           1.7540    2.5040    0.0000 C.ar    1  LIG1        0.0006
     10 C           2.5960    2.0040    0.0000 C.ar    1  LIG1        0.0077
     11 C           4.3130   -0.9790    0.0000 C.ar    1  LIG1        0.0077
     12 C           4.3330   -2.0000    0.0000 C.ar    1  LIG1        0.0006
     13 C           3.4460   -2.5000    0.0000 C.ar    1  LIG1        0.0013
     14 C           2.5960   -2.0000    0.0000 C.ar    1  LIG1        0.0157
     15 C           0.8330   -1.0040    0.0000 C.2     1  LIG1        0.2778
     16 C          -0.0170   -0.5080    0.0000 C.3     1  LIG1        0.2936
     17 O          -0.0170    0.4880    0.0000 O.3     1  LIG1       -0.4353
     18 C          -0.8880    0.9830    0.0000 C.2     1  LIG1        0.3418
     19 C          -1.7580    0.4880    0.0000 C.ar    1  LIG1        0.0783
     20 C          -2.6290    0.9830    0.0000 C.ar    1  LIG1        0.0239
     21 C          -3.5000    0.4880    0.0000 C.ar    1  LIG1        0.0811
     22 N          -3.5000   -0.5080    0.0000 N.ar    1  LIG1       -0.2497
     23 C          -2.6290   -1.0040    0.0000 C.ar    1  LIG1        0.0595
     24 C          -1.7580   -0.5080    0.0000 C.ar    1  LIG1        0.0212
     25 C          -2.6000   -2.0000    0.0000 C.3     1  LIG1        0.0521
     26 C          -4.3380    0.9830    0.0000 C.ar    1  LIG1        0.0191
     27 C          -4.3380    1.9830    0.0000 C.ar    1  LIG1        0.0015
     28 C          -3.4710    2.4750    0.0000 C.ar    1  LIG1        0.0001
     29 C          -2.6000    1.9830    0.0000 C.ar    1  LIG1        0.0017
     30 O          -0.8880    1.9830    0.0000 O.2     1  LIG1       -0.2449
     31 O           0.8330   -2.0000    0.0000 O.2     1  LIG1       -0.2701
@<TRIPOS>BOND
     1     1     2    1
     2     1     6    1
     3     1    15   am
     4     2     3   ar
     5     2    14   ar
     6     3     4    1
     7     3    11   ar
     8     4     5    1
     9     5     6   ar
    10     5    10   ar
    11     6     7   ar
    12     7     8   ar
    13     8     9   ar
    14     9    10   ar
    15    11    12   ar
    16    12    13   ar
    17    13    14   ar
    18    15    16    1
    19    15    31    2
    20    16    17    1
    21    17    18    1
    22    18    19    1
    23    18    30    2
    24    19    20   ar
    25    19    24   ar
    26    20    21   ar
    27    20    29   ar
    28    21    22   ar
    29    21    26   ar
    30    22    23   ar
    31    23    24   ar
    32    23    25    1
    33    26    27   ar
    34    27    28   ar
    35    28    29   ar
