@<TRIPOS>MOLECULE
30782_ChemDiv_4260-1316
 25 28 0 0 0
SMALL
GASTEIGER
Energy = 0

@<TRIPOS>ATOM
      1 C          -0.5710    0.3290    0.0000 C.ar    1  LIG1        0.0943
      2 C          -1.4460    0.8210    0.0000 C.ar    1  LIG1        0.1500
      3 C          -2.3170    0.3290    0.0000 C.ar    1  LIG1        0.0407
      4 C          -3.0540    1.0000    0.0000 C.ar    1  LIG1        0.0376
      5 C          -2.6540    1.8960    0.0000 C.ar    1  LIG1        0.1453
      6 O          -1.6630    1.7880    0.0000 O.2     1  LIG1       -0.4533
      7 C          -3.2540    2.6960    0.0000 C.ar    1  LIG1        0.0375
      8 C          -4.2460    2.5670    0.0000 C.ar    1  LIG1        0.0031
      9 C          -4.6500    1.6540    0.0000 C.ar    1  LIG1        0.0002
     10 C          -4.0460    0.8830    0.0000 C.ar    1  LIG1        0.0031
     11 C          -2.3170   -0.6790    0.0000 C.ar    1  LIG1        0.0416
     12 C          -1.4460   -1.1920    0.0000 C.ar    1  LIG1        0.1565
     13 C          -0.5710   -0.6790    0.0000 C.ar    1  LIG1        0.1211
     14 N           0.2830   -1.1920    0.0000 N.ar    1  LIG1       -0.2403
     15 C           1.1540   -0.6790    0.0000 C.ar    1  LIG1        0.1086
     16 C           1.1540    0.3290    0.0000 C.ar    1  LIG1        0.1336
     17 C           0.2830    0.8210    0.0000 C.ar    1  LIG1        0.2078
     18 O           0.2830    1.8210    0.0000 O.3     1  LIG1       -0.2861
     19 C           2.0290    0.8210    0.0000 C.2     1  LIG1        0.3459
     20 O           2.0290    1.8210    0.0000 O.2     1  LIG1       -0.2447
     21 O           2.9000    0.3290    0.0000 O.3     1  LIG1       -0.4453
     22 C           3.7710    0.8210    0.0000 C.3     1  LIG1        0.2089
     23 C           4.6460    0.3290    0.0000 C.3     1  LIG1        0.0513
     24 O          -1.4460   -2.2000    0.0000 O.3     1  LIG1       -0.4699
     25 C          -0.5710   -2.6920    0.0000 C.3     1  LIG1        0.2525
@<TRIPOS>BOND
     1     1     2   ar
     2     1    13   ar
     3     1    17   ar
     4     2     3   ar
     5     2     6   ar
     6     3     4   ar
     7     3    11   ar
     8     4     5   ar
     9     4    10   ar
    10     5     6   ar
    11     5     7   ar
    12     7     8   ar
    13     8     9   ar
    14     9    10   ar
    15    11    12   ar
    16    12    13   ar
    17    12    24    1
    18    13    14   ar
    19    14    15   ar
    20    15    16   ar
    21    16    17   ar
    22    16    19    1
    23    17    18    1
    24    19    20    2
    25    19    21    1
    26    21    22    1
    27    22    23    1
    28    24    25    1
