@<TRIPOS>MOLECULE
30790_ChemDiv_4333-1690
 18 20 0 0 0
SMALL
GASTEIGER
Energy = 0

@<TRIPOS>ATOM
      1 N           0.3210   -0.7210    0.0000 N.4     1  LIG1        0.4378
      2 C          -0.5330   -0.2420    0.0000 C.3     1  LIG1        0.1684
      3 C          -0.5330    0.7670    0.0000 C.3     1  LIG1        0.1004
      4 C           0.3210    1.2460    0.0000 C.3     1  LIG1        0.1640
      5 C           1.1920    0.7670    0.0000 C.3     1  LIG1        0.0898
      6 C           1.1920   -0.2170    0.0000 C.3     1  LIG1        0.0999
      7 C           1.8830    0.4880    0.0000 C.3     1  LIG1        0.0569
      8 C           2.8580    0.2290    0.0000 C.3     1  LIG1        0.0059
      9 C           3.1330   -0.7040    0.0000 C.3     1  LIG1        0.0004
     10 C           2.4210   -1.4330    0.0000 C.3     1  LIG1        0.0059
     11 C           1.4420   -1.1670    0.0000 C.3     1  LIG1        0.0569
     12 O           0.3210    2.2670    0.0000 O.3     1  LIG1       -0.2227
     13 C          -1.3880   -0.7500    0.0000 C.ar    1  LIG1        0.0339
     14 C          -2.2630   -0.2630    0.0000 C.ar    1  LIG1        0.0014
     15 C          -3.1290   -0.7500    0.0000 C.ar    1  LIG1       -0.0001
     16 C          -3.1380   -1.7880    0.0000 C.ar    1  LIG1       -0.0000
     17 C          -2.2630   -2.2630    0.0000 C.ar    1  LIG1       -0.0001
     18 C          -1.3880   -1.7500    0.0000 C.ar    1  LIG1        0.0014
@<TRIPOS>BOND
     1     1     2    1
     2     1     6    1
     3     2     3    1
     4     2    13    1
     5     3     4    1
     6     4     5    1
     7     4    12    1
     8     5     6    1
     9     6     7    1
    10     6    11    1
    11     7     8    1
    12     8     9    1
    13     9    10    1
    14    10    11    1
    15    13    14   ar
    16    13    18   ar
    17    14    15   ar
    18    15    16   ar
    19    16    17   ar
    20    17    18   ar
