@<TRIPOS>MOLECULE
30799_ChemDiv_4158-0295
 32 35 0 0 0
SMALL
GASTEIGER
Energy = 0

@<TRIPOS>ATOM
      1 N           1.3210    0.1670    0.0000 N.am    1  LIG1       -0.2640
      2 C           2.1920    0.6710    0.0000 C.2     1  LIG1        0.2527
      3 C           3.0630    0.1670    0.0000 C.ar    1  LIG1        0.0924
      4 C           3.9250    0.6710    0.0000 C.ar    1  LIG1        0.2000
      5 O           3.9250    1.6540    0.0000 O.3     1  LIG1       -0.2864
      6 C           4.8040    0.1670    0.0000 C.ar    1  LIG1        0.0422
      7 C           4.8040   -0.8380    0.0000 C.ar    1  LIG1        0.0033
      8 C           3.9710   -1.2960    0.0000 C.ar    1  LIG1        0.0004
      9 C           3.0630   -0.8380    0.0000 C.ar    1  LIG1        0.0077
     10 O           2.1920    1.6750    0.0000 O.2     1  LIG1       -0.2698
     11 C           0.4460    0.6710    0.0000 C.3     1  LIG1        0.1314
     12 C          -0.4040    0.1670    0.0000 C.2     1  LIG1        0.2616
     13 N          -1.2880    0.6710    0.0000 N.am    1  LIG1       -0.1779
     14 C          -2.1790    0.1670    0.0000 C.ar    1  LIG1        0.0734
     15 C          -2.1790   -0.8380    0.0000 C.ar    1  LIG1        0.0171
     16 C          -3.0330   -1.3170    0.0000 C.ar    1  LIG1        0.0080
     17 C          -3.9380   -0.8170    0.0000 C.ar    1  LIG1        0.0347
     18 BR         -4.8080   -1.2710    0.0000 Br      1  LIG1       -0.0490
     19 C          -3.9000    0.1670    0.0000 C.ar    1  LIG1        0.0080
     20 C          -3.0330    0.6500    0.0000 C.ar    1  LIG1        0.0171
     21 O          -0.3880   -0.8170    0.0000 O.2     1  LIG1       -0.2713
     22 C           1.3040    1.1830    0.0000 C.3     1  LIG1        0.0272
     23 C           1.3040    2.2080    0.0000 C.3     1  LIG1        0.0021
     24 C           0.4250    2.7130    0.0000 C.3     1  LIG1        0.0001
     25 C          -0.4170    2.2080    0.0000 C.3     1  LIG1        0.0021
     26 C          -0.4170    1.1830    0.0000 C.3     1  LIG1        0.0272
     27 C           1.3210   -0.8170    0.0000 C.3     1  LIG1        0.1587
     28 C           2.1080   -1.3710    0.0000 C.ar    1  LIG1        0.1431
     29 O           3.0630   -1.0630    0.0000 O.2     1  LIG1       -0.4530
     30 C           3.6250   -1.8630    0.0000 C.ar    1  LIG1        0.1792
     31 C           3.0630   -2.7080    0.0000 C.ar    1  LIG1        0.0435
     32 C           2.0790   -2.3750    0.0000 C.ar    1  LIG1        0.0379
@<TRIPOS>BOND
     1     1     2   am
     2     1    11    1
     3     1    27    1
     4     2     3    1
     5     2    10    2
     6     3     4   ar
     7     3     9   ar
     8     4     5    1
     9     4     6   ar
    10     6     7   ar
    11     7     8   ar
    12     8     9   ar
    13    11    12    1
    14    11    22    1
    15    11    26    1
    16    12    13   am
    17    12    21    2
    18    13    14    1
    19    14    15   ar
    20    14    20   ar
    21    15    16   ar
    22    16    17   ar
    23    17    18    1
    24    17    19   ar
    25    19    20   ar
    26    22    23    1
    27    23    24    1
    28    24    25    1
    29    25    26    1
    30    27    28    1
    31    28    29   ar
    32    28    32   ar
    33    29    30   ar
    34    30    31   ar
    35    31    32   ar
