@<TRIPOS>MOLECULE
30798_ChemDiv_4333-7585
 21 22 0 0 0
SMALL
GASTEIGER
Energy = 0

@<TRIPOS>ATOM
      1 C          -1.2960    1.2250    0.0000 C.2     1  LIG1        0.2503
      2 C          -1.7670    0.3920    0.0000 C.ar    1  LIG1        0.0689
      3 C          -1.2750   -0.4380    0.0000 C.ar    1  LIG1        0.0777
      4 N          -0.3000   -0.4380    0.0000 N.am    1  LIG1       -0.1791
      5 C           0.1880   -1.2540    0.0000 C.2     1  LIG1        0.2459
      6 O          -0.3330   -2.0630    0.0000 O.2     1  LIG1       -0.2730
      7 C           1.1790   -1.3250    0.0000 C.3     1  LIG1        0.0931
      8 C           1.7080   -0.4920    0.0000 C.3     1  LIG1        0.0513
      9 C           2.6580   -0.5420    0.0000 C.2     1  LIG1        0.0508
     10 O           3.1380   -1.4250    0.0000 O.co2   1  LIG1       -0.5492
     11 O           3.2080    0.2790    0.0000 O.co2   1  LIG1       -0.5492
     12 C          -1.7630   -1.2630    0.0000 C.ar    1  LIG1        0.0167
     13 C          -2.7380   -1.2630    0.0000 C.ar    1  LIG1        0.0013
     14 C          -3.2130   -0.4380    0.0000 C.ar    1  LIG1        0.0002
     15 C          -2.7380    0.3920    0.0000 C.ar    1  LIG1        0.0058
     16 N          -0.3130    1.2250    0.0000 N.am    1  LIG1       -0.2760
     17 C           0.1670    0.3750    0.0000 C.3     1  LIG1        0.0938
     18 C           1.1170    0.3920    0.0000 C.3     1  LIG1        0.0233
     19 C           1.1170    2.0670    0.0000 C.3     1  LIG1        0.0233
     20 C           0.1790    2.0670    0.0000 C.3     1  LIG1        0.0938
     21 O          -1.7750    2.0460    0.0000 O.2     1  LIG1       -0.2699
@<TRIPOS>BOND
     1     1     2    1
     2     1    16   am
     3     1    21    2
     4     2     3   ar
     5     2    15   ar
     6     3     4    1
     7     3    12   ar
     8     4     5   am
     9     5     6    2
    10     5     7    1
    11     7     8    1
    12     8     9    1
    13     9    10   ar
    14     9    11   ar
    15    12    13   ar
    16    13    14   ar
    17    14    15   ar
    18    16    17    1
    19    16    20    1
    20    17    18    1
    21    18    19    1
    22    19    20    1
