@<TRIPOS>MOLECULE
30800_ChemDiv_5701-0281
 22 23 0 0 0
SMALL
GASTEIGER
Energy = 0

@<TRIPOS>ATOM
      1 C          -1.7750    1.2330    0.0000 C.2     1  LIG1        0.2503
      2 C          -2.2500    0.3920    0.0000 C.ar    1  LIG1        0.0689
      3 C          -1.7580   -0.4380    0.0000 C.ar    1  LIG1        0.0777
      4 N          -0.7750   -0.4380    0.0000 N.am    1  LIG1       -0.1791
      5 C          -0.2830   -1.2580    0.0000 C.2     1  LIG1        0.2456
      6 O          -0.8080   -2.0710    0.0000 O.2     1  LIG1       -0.2730
      7 C           0.7130   -1.3330    0.0000 C.3     1  LIG1        0.0876
      8 C           1.2420   -0.4920    0.0000 C.3     1  LIG1        0.0155
      9 C           2.1960   -0.5420    0.0000 C.3     1  LIG1        0.0422
     10 C           2.7250    0.2630    0.0000 C.2     1  LIG1        0.0503
     11 O           2.3210    1.1380    0.0000 O.co2   1  LIG1       -0.5492
     12 O           3.7000    0.2500    0.0000 O.co2   1  LIG1       -0.5492
     13 C          -2.2420   -1.2710    0.0000 C.ar    1  LIG1        0.0167
     14 C          -3.2250   -1.2710    0.0000 C.ar    1  LIG1        0.0013
     15 C          -3.7040   -0.4380    0.0000 C.ar    1  LIG1        0.0002
     16 C          -3.2250    0.3920    0.0000 C.ar    1  LIG1        0.0058
     17 N          -0.7880    1.2330    0.0000 N.am    1  LIG1       -0.2760
     18 C          -0.2960    2.0750    0.0000 C.3     1  LIG1        0.0938
     19 C           0.6500    2.0750    0.0000 C.3     1  LIG1        0.0233
     20 C           0.6500    0.3920    0.0000 C.3     1  LIG1        0.0233
     21 C          -0.3040    0.3750    0.0000 C.3     1  LIG1        0.0938
     22 O          -2.2580    2.0540    0.0000 O.2     1  LIG1       -0.2699
@<TRIPOS>BOND
     1     1     2    1
     2     1    17   am
     3     1    22    2
     4     2     3   ar
     5     2    16   ar
     6     3     4    1
     7     3    13   ar
     8     4     5   am
     9     5     6    2
    10     5     7    1
    11     7     8    1
    12     8     9    1
    13     9    10    1
    14    10    11   ar
    15    10    12   ar
    16    13    14   ar
    17    14    15   ar
    18    15    16   ar
    19    17    18    1
    20    17    21    1
    21    18    19    1
    22    19    20    1
    23    20    21    1
