@<TRIPOS>MOLECULE
30818_ChemDiv_4334-1079
 34 38 0 0 0
SMALL
GASTEIGER
Energy = 0

@<TRIPOS>ATOM
      1 C           2.6210   -4.0330    0.0000 C.2     1  LIG1        0.3037
      2 C           3.3420   -4.7420    0.0000 C.ar    1  LIG1        0.2005
      3 O           4.3210   -4.5670    0.0000 O.2     1  LIG1       -0.4457
      4 C           4.7710   -5.4630    0.0000 C.ar    1  LIG1        0.1798
      5 C           4.0750   -6.1750    0.0000 C.ar    1  LIG1        0.0440
      6 C           3.1920   -5.7460    0.0000 C.ar    1  LIG1        0.0455
      7 N           2.8330   -3.0500    0.0000 N.am    1  LIG1       -0.1728
      8 C           2.1170   -2.3420    0.0000 C.ar    1  LIG1        0.0738
      9 C           1.1790   -2.6420    0.0000 C.ar    1  LIG1        0.0166
     10 C           0.4670   -1.9330    0.0000 C.ar    1  LIG1        0.0014
     11 C           0.7130   -0.9380    0.0000 C.ar    1  LIG1        0.0031
     12 C          -0.0210   -0.2420    0.0000 C.ar    1  LIG1        0.0384
     13 C          -0.9670   -0.5290    0.0000 C.ar    1  LIG1        0.1021
     14 N          -1.6750    0.1670    0.0000 N.ar    1  LIG1       -0.2250
     15 C          -1.4380    1.1460    0.0000 C.ar    1  LIG1        0.1623
     16 N          -0.5130    1.4580    0.0000 N.ar    1  LIG1       -0.2250
     17 C           0.2000    0.7750    0.0000 C.ar    1  LIG1        0.1021
     18 C          -2.1630    1.8460    0.0000 C.ar    1  LIG1        0.0359
     19 C          -1.9250    2.8580    0.0000 C.ar    1  LIG1        0.0044
     20 C          -2.6580    3.5580    0.0000 C.ar    1  LIG1        0.0167
     21 C          -3.5920    3.2630    0.0000 C.ar    1  LIG1        0.0738
     22 N          -4.2920    3.9630    0.0000 N.am    1  LIG1       -0.1728
     23 C          -4.0670    4.9580    0.0000 C.2     1  LIG1        0.3037
     24 C          -3.1210    5.2580    0.0000 C.ar    1  LIG1        0.2005
     25 O          -2.8170    6.1750    0.0000 O.2     1  LIG1       -0.4457
     26 C          -1.8380    6.1540    0.0000 C.ar    1  LIG1        0.1798
     27 C          -1.5380    5.2170    0.0000 C.ar    1  LIG1        0.0440
     28 C          -2.3330    4.6460    0.0000 C.ar    1  LIG1        0.0455
     29 O          -4.7750    5.6750    0.0000 O.2     1  LIG1       -0.2646
     30 C          -3.8000    2.2500    0.0000 C.ar    1  LIG1        0.0167
     31 C          -3.1000    1.5500    0.0000 C.ar    1  LIG1        0.0044
     32 C           1.6290   -0.6290    0.0000 C.ar    1  LIG1        0.0014
     33 C           2.3420   -1.3380    0.0000 C.ar    1  LIG1        0.0166
     34 O           1.6710   -4.3540    0.0000 O.2     1  LIG1       -0.2646
@<TRIPOS>BOND
     1     1     2    1
     2     1     7   am
     3     1    34    2
     4     2     3   ar
     5     2     6   ar
     6     3     4   ar
     7     4     5   ar
     8     5     6   ar
     9     7     8    1
    10     8     9   ar
    11     8    33   ar
    12     9    10   ar
    13    10    11   ar
    14    11    12    1
    15    11    32   ar
    16    12    13   ar
    17    12    17   ar
    18    13    14   ar
    19    14    15   ar
    20    15    16   ar
    21    15    18    1
    22    16    17   ar
    23    18    19   ar
    24    18    31   ar
    25    19    20   ar
    26    20    21   ar
    27    21    22    1
    28    21    30   ar
    29    22    23   am
    30    23    24    1
    31    23    29    2
    32    24    25   ar
    33    24    28   ar
    34    25    26   ar
    35    26    27   ar
    36    27    28   ar
    37    30    31   ar
    38    32    33   ar
