@<TRIPOS>MOLECULE
30822_ChemDiv_4340-1678
 30 34 0 0 0
SMALL
GASTEIGER
Energy = 0

@<TRIPOS>ATOM
      1 C          -0.1170   -0.8290    0.0000 C.2     1  LIG1        0.0708
      2 C           0.8790   -0.6750    0.0000 C.2     1  LIG1        0.1527
      3 S           1.6580   -1.2750    0.0000 S.3     1  LIG1        0.0134
      4 C           2.4500   -0.7170    0.0000 C.2     1  LIG1        0.3812
      5 N           2.2830    0.2210    0.0000 N.am    1  LIG1        0.1637
      6 C           1.2880    0.2830    0.0000 C.2     1  LIG1        0.4884
      7 O           0.7380    1.1670    0.0000 O.2     1  LIG1       -0.2067
      8 N           3.4040   -1.1710    0.0000 N.pl3   1  LIG1       -0.2408
      9 C           3.5290   -2.1710    0.0000 C.3     1  LIG1        0.1290
     10 C           4.4040   -2.6170    0.0000 C.3     1  LIG1        0.1638
     11 O           5.1920   -2.0750    0.0000 O.3     1  LIG1       -0.3501
     12 C           5.1500   -1.0790    0.0000 C.3     1  LIG1        0.1638
     13 C           4.2790   -0.6210    0.0000 C.3     1  LIG1        0.1290
     14 C          -0.6670   -1.6170    0.0000 C.2     1  LIG1        0.2538
     15 N          -1.5710   -1.4210    0.0000 N.am    1  LIG1       -0.2509
     16 C          -1.6630   -0.4250    0.0000 C.ar    1  LIG1        0.0546
     17 C          -0.7630   -0.0290    0.0000 C.ar    1  LIG1        0.0194
     18 C          -0.6170    0.9670    0.0000 C.ar    1  LIG1        0.0081
     19 C          -1.4170    1.6250    0.0000 C.ar    1  LIG1        0.0347
     20 C          -2.3630    1.1670    0.0000 C.ar    1  LIG1        0.0080
     21 C          -2.4540    0.1670    0.0000 C.ar    1  LIG1        0.0154
     22 BR         -1.2580    2.6210    0.0000 Br      1  LIG1       -0.0490
     23 C          -2.3210   -2.1170    0.0000 C.3     1  LIG1        0.1250
     24 C          -3.3170   -1.8250    0.0000 C.ar    1  LIG1       -0.0020
     25 C          -3.5670   -0.8710    0.0000 C.ar    1  LIG1       -0.0026
     26 C          -4.5000   -0.6210    0.0000 C.ar    1  LIG1       -0.0003
     27 C          -5.1960   -1.3290    0.0000 C.ar    1  LIG1       -0.0000
     28 C          -4.9460   -2.2750    0.0000 C.ar    1  LIG1       -0.0003
     29 C          -4.0040   -2.5210    0.0000 C.ar    1  LIG1       -0.0026
     30 O          -0.3250   -2.6170    0.0000 O.2     1  LIG1       -0.2695
@<TRIPOS>BOND
     1     1     2    2
     2     1    14    1
     3     1    17    1
     4     2     3    1
     5     2     6    1
     6     3     4    1
     7     4     5    2
     8     4     8    1
     9     5     6   am
    10     6     7    2
    11     8     9    1
    12     8    13    1
    13     9    10    1
    14    10    11    1
    15    11    12    1
    16    12    13    1
    17    14    15   am
    18    14    30    2
    19    15    16    1
    20    15    23    1
    21    16    17   ar
    22    16    21   ar
    23    17    18   ar
    24    18    19   ar
    25    19    20   ar
    26    19    22    1
    27    20    21   ar
    28    23    24    1
    29    24    25   ar
    30    24    29   ar
    31    25    26   ar
    32    26    27   ar
    33    27    28   ar
    34    28    29   ar
