@<TRIPOS>MOLECULE
30820_ChemDiv_4340-1349
 33 36 0 0 0
SMALL
GASTEIGER
Energy = 0

@<TRIPOS>ATOM
      1 N           2.1380   -2.6830    0.0000 N.am    1  LIG1       -0.2386
      2 C           1.4630   -3.4290    0.0000 C.2     1  LIG1        0.1215
      3 S           0.5500   -3.0330    0.0000 S.3     1  LIG1       -0.0604
      4 C           0.6540   -2.0290    0.0000 C.2     1  LIG1        0.0850
      5 C           1.6460   -1.8380    0.0000 C.2     1  LIG1        0.2598
      6 O           2.0250   -0.9080    0.0000 O.2     1  LIG1       -0.2690
      7 C          -0.0750   -1.3750    0.0000 C.2     1  LIG1        0.0142
      8 C          -1.0380   -1.6880    0.0000 C.ar    1  LIG1        0.0392
      9 C          -1.8630   -1.1080    0.0000 C.ar    1  LIG1        0.1027
     10 N          -2.6670   -1.6880    0.0000 N.ar    1  LIG1       -0.1651
     11 N          -2.3460   -2.6250    0.0000 N.ar    1  LIG1       -0.2282
     12 C          -1.3460   -2.6250    0.0000 C.ar    1  LIG1        0.1019
     13 C          -2.9330   -3.4290    0.0000 C.ar    1  LIG1        0.0828
     14 C          -2.5330   -4.3290    0.0000 C.ar    1  LIG1        0.0191
     15 C          -3.1130   -5.1420    0.0000 C.ar    1  LIG1        0.0015
     16 C          -4.1130   -5.0500    0.0000 C.ar    1  LIG1        0.0001
     17 C          -4.5330   -4.1210    0.0000 C.ar    1  LIG1        0.0015
     18 C          -3.9380   -3.3290    0.0000 C.ar    1  LIG1        0.0191
     19 C          -2.1130   -0.1330    0.0000 C.ar    1  LIG1        0.0196
     20 C          -3.0830    0.1210    0.0000 C.ar    1  LIG1        0.0047
     21 C          -3.3580    1.0790    0.0000 C.ar    1  LIG1        0.0369
     22 C          -2.6670    1.8000    0.0000 C.ar    1  LIG1        0.1386
     23 C          -1.6750    1.5580    0.0000 C.ar    1  LIG1        0.0369
     24 C          -1.4130    0.5880    0.0000 C.ar    1  LIG1        0.0047
     25 O          -2.9170    2.7750    0.0000 O.3     1  LIG1       -0.4755
     26 C          -2.2170    3.4710    0.0000 C.3     1  LIG1        0.2054
     27 C          -2.4830    4.4210    0.0000 C.3     1  LIG1        0.0473
     28 C          -1.7880    5.1420    0.0000 C.3     1  LIG1        0.0040
     29 S           1.6710   -4.4040    0.0000 S.2     1  LIG1       -0.0272
     30 C           3.1420   -2.8080    0.0000 C.3     1  LIG1        0.1410
     31 C           3.5210   -3.7250    0.0000 C.2     1  LIG1        0.0708
     32 O           2.9420   -4.5250    0.0000 O.co2   1  LIG1       -0.5474
     33 O           4.5290   -3.8250    0.0000 O.co2   1  LIG1       -0.5474
@<TRIPOS>BOND
     1     1     2    1
     2     1     5   am
     3     1    30    1
     4     2     3    1
     5     2    29    2
     6     3     4    1
     7     4     5    1
     8     4     7    2
     9     5     6    2
    10     7     8    1
    11     8     9   ar
    12     8    12   ar
    13     9    10   ar
    14     9    19    1
    15    10    11   ar
    16    11    12   ar
    17    11    13    1
    18    13    14   ar
    19    13    18   ar
    20    14    15   ar
    21    15    16   ar
    22    16    17   ar
    23    17    18   ar
    24    19    20   ar
    25    19    24   ar
    26    20    21   ar
    27    21    22   ar
    28    22    23   ar
    29    22    25    1
    30    23    24   ar
    31    25    26    1
    32    26    27    1
    33    27    28    1
    34    30    31    1
    35    31    32   ar
    36    31    33   ar
