@<TRIPOS>MOLECULE
30826_ChemDiv_5928-0031
 31 35 0 0 0
SMALL
GASTEIGER
Energy = 0

@<TRIPOS>ATOM
      1 N          -1.8710    1.5630    0.0000 N.am    1  LIG1       -0.2096
      2 C          -2.0420    2.5330    0.0000 C.2     1  LIG1        0.2330
      3 C          -3.0250    2.6210    0.0000 C.3     1  LIG1        0.0901
      4 C          -3.4380    1.7380    0.0000 C.3     1  LIG1        0.0901
      5 C          -2.7210    1.0830    0.0000 C.2     1  LIG1        0.2330
      6 O          -2.8000    0.1210    0.0000 O.2     1  LIG1       -0.2744
      7 C          -4.3540    2.1830    0.0000 C.3     1  LIG1        0.0311
      8 C          -5.1960    1.7380    0.0000 C.2     1  LIG1       -0.0305
      9 C          -4.7630    2.5960    0.0000 C.2     1  LIG1       -0.0305
     10 C          -3.9170    3.0330    0.0000 C.3     1  LIG1        0.0311
     11 C          -4.3540    3.8710    0.0000 C.3     1  LIG1        0.0096
     12 O          -1.4130    3.2380    0.0000 O.2     1  LIG1       -0.2744
     13 C          -1.0290    1.1040    0.0000 C.3     1  LIG1        0.2192
     14 N          -1.0290    0.1420    0.0000 N.am    1  LIG1       -0.1640
     15 C          -0.1750   -0.3540    0.0000 C.2     1  LIG1        0.3453
     16 N          -0.1750   -1.3250    0.0000 N.am    1  LIG1       -0.1548
     17 C           0.6750   -1.8250    0.0000 C.ar    1  LIG1        0.1456
     18 C           1.5630   -1.4130    0.0000 C.ar    1  LIG1        0.2954
     19 N           2.2330   -2.1290    0.0000 N.ar    1  LIG1       -0.2134
     20 N           1.7750   -2.9750    0.0000 N.ar    1  LIG1       -0.2646
     21 C           0.8040   -2.8330    0.0000 C.ar    1  LIG1        0.0746
     22 C           0.1000   -3.5250    0.0000 C.3     1  LIG1        0.0532
     23 C           2.2330   -3.8670    0.0000 C.3     1  LIG1        0.1518
     24 C           3.2210   -2.0130    0.0000 C.ar    1  LIG1        0.0841
     25 C           3.8380   -2.8040    0.0000 C.ar    1  LIG1        0.0192
     26 C           4.8380   -2.6500    0.0000 C.ar    1  LIG1        0.0015
     27 C           5.1920   -1.7330    0.0000 C.ar    1  LIG1        0.0001
     28 C           4.5750   -0.9750    0.0000 C.ar    1  LIG1        0.0015
     29 C           3.5790   -1.1130    0.0000 C.ar    1  LIG1        0.0192
     30 O           1.7420   -0.4290    0.0000 O.2     1  LIG1       -0.2637
     31 O           0.6750    0.1420    0.0000 O.2     1  LIG1       -0.2488
@<TRIPOS>BOND
     1     1     2   am
     2     1     5   am
     3     1    13    1
     4     2     3    1
     5     2    12    2
     6     3     4    1
     7     3    10    1
     8     4     5    1
     9     4     7    1
    10     5     6    2
    11     7     8    1
    12     7    11    1
    13     8     9    2
    14     9    10    1
    15    10    11    1
    16    13    14    1
    17    14    15   am
    18    15    16   am
    19    15    31    2
    20    16    17    1
    21    17    18   ar
    22    17    21   ar
    23    18    19   ar
    24    18    30    2
    25    19    20   ar
    26    19    24    1
    27    20    21   ar
    28    20    23    1
    29    21    22    1
    30    24    25   ar
    31    24    29   ar
    32    25    26   ar
    33    26    27   ar
    34    27    28   ar
    35    28    29   ar
