@<TRIPOS>MOLECULE
30821_ChemDiv_4161-2636
 23 26 0 0 0
SMALL
GASTEIGER
Energy = 0

@<TRIPOS>ATOM
      1 C          -0.8580    1.2880    0.0000 C.3     1  LIG1        0.0310
      2 C           0.0040    1.7750    0.0000 C.3     1  LIG1        0.0877
      3 C           0.0040    2.7880    0.0000 C.3     1  LIG1        0.0495
      4 C          -0.8580    3.3000    0.0000 C.3     1  LIG1        0.0277
      5 C          -1.7210    2.7880    0.0000 C.2     1  LIG1       -0.0306
      6 C          -1.7210    1.7750    0.0000 C.2     1  LIG1       -0.0305
      7 C          -1.2170    2.3540    0.0000 C.3     1  LIG1        0.0095
      8 C           0.8540    3.2830    0.0000 C.2     1  LIG1        0.0508
      9 O           1.7170    2.7880    0.0000 O.co2   1  LIG1       -0.5492
     10 O           0.8540    4.2750    0.0000 O.co2   1  LIG1       -0.5492
     11 C           0.8540    1.2880    0.0000 C.2     1  LIG1        0.2419
     12 N           0.8540    0.2920    0.0000 N.am    1  LIG1       -0.2005
     13 C           0.0040   -0.2170    0.0000 C.3     1  LIG1        0.1416
     14 C           0.0040   -1.2130    0.0000 C.ar    1  LIG1        0.0027
     15 C           0.8540   -1.7000    0.0000 C.ar    1  LIG1        0.0376
     16 C           0.8540   -2.6960    0.0000 C.ar    1  LIG1        0.1762
     17 C           0.0040   -3.2040    0.0000 C.ar    1  LIG1        0.1764
     18 O           0.2040   -4.1750    0.0000 O.3     1  LIG1       -0.4346
     19 C           1.1830   -4.2750    0.0000 C.3     1  LIG1        0.4294
     20 O           1.6000   -3.3630    0.0000 O.3     1  LIG1       -0.4346
     21 C          -0.8580   -2.6960    0.0000 C.ar    1  LIG1        0.0399
     22 C          -0.8580   -1.7000    0.0000 C.ar    1  LIG1        0.0008
     23 O           1.7170    1.7750    0.0000 O.2     1  LIG1       -0.2733
@<TRIPOS>BOND
     1     1     2    1
     2     1     6    1
     3     1     7    1
     4     2     3    1
     5     2    11    1
     6     3     4    1
     7     3     8    1
     8     4     5    1
     9     4     7    1
    10     5     6    2
    11     8     9   ar
    12     8    10   ar
    13    11    12   am
    14    11    23    2
    15    12    13    1
    16    13    14    1
    17    14    15   ar
    18    14    22   ar
    19    15    16   ar
    20    16    17   ar
    21    16    20    1
    22    17    18    1
    23    17    21   ar
    24    18    19    1
    25    19    20    1
    26    21    22   ar
