@<TRIPOS>MOLECULE
30830_ChemDiv_5988-0031
 32 36 0 0 0
SMALL
GASTEIGER
Energy = 0

@<TRIPOS>ATOM
      1 C           1.9330   -0.8500    0.0000 C.ar    1  LIG1        0.1456
      2 C           1.4580   -1.7420    0.0000 C.ar    1  LIG1        0.2954
      3 N           2.2290   -2.4040    0.0000 N.ar    1  LIG1       -0.2134
      4 N           3.1000   -1.9420    0.0000 N.ar    1  LIG1       -0.2646
      5 C           2.8670   -0.9330    0.0000 C.ar    1  LIG1        0.0746
      6 C           3.5080   -0.1290    0.0000 C.3     1  LIG1        0.0532
      7 C           3.9750   -2.3580    0.0000 C.3     1  LIG1        0.1518
      8 C           2.1460   -3.3790    0.0000 C.ar    1  LIG1        0.0841
      9 C           1.2210   -3.8420    0.0000 C.ar    1  LIG1        0.0192
     10 C           1.1170   -4.8580    0.0000 C.ar    1  LIG1        0.0015
     11 C           1.9580   -5.4170    0.0000 C.ar    1  LIG1        0.0001
     12 C           2.8920   -5.0290    0.0000 C.ar    1  LIG1        0.0015
     13 C           2.9670   -3.9960    0.0000 C.ar    1  LIG1        0.0192
     14 O           0.4790   -1.8540    0.0000 O.2     1  LIG1       -0.2637
     15 N           1.4960    0.0250    0.0000 N.am    1  LIG1       -0.1549
     16 C           1.9880    0.8000    0.0000 C.2     1  LIG1        0.3437
     17 O           2.8290    0.8000    0.0000 O.2     1  LIG1       -0.2488
     18 N           1.5920    1.5500    0.0000 N.am    1  LIG1       -0.1851
     19 C           0.6540    1.5500    0.0000 C.3     1  LIG1        0.1387
     20 C           0.1920    2.4630    0.0000 C.3     1  LIG1        0.1243
     21 N          -0.7540    2.7210    0.0000 N.am    1  LIG1       -0.2281
     22 C          -1.3170    3.6580    0.0000 C.2     1  LIG1        0.2317
     23 C          -2.1790    3.9130    0.0000 C.3     1  LIG1        0.0900
     24 C          -2.1540    3.1080    0.0000 C.3     1  LIG1        0.0900
     25 C          -1.7960    2.7210    0.0000 C.2     1  LIG1        0.2317
     26 O          -1.6750    1.8460    0.0000 O.2     1  LIG1       -0.2745
     27 C          -3.0630    3.3330    0.0000 C.3     1  LIG1        0.0311
     28 C          -3.8880    2.6130    0.0000 C.2     1  LIG1       -0.0305
     29 C          -3.9750    3.6330    0.0000 C.2     1  LIG1       -0.0305
     30 C          -2.8790    4.2420    0.0000 C.3     1  LIG1        0.0311
     31 C          -3.1830    5.4170    0.0000 C.3     1  LIG1        0.0096
     32 O          -0.7540    4.1330    0.0000 O.2     1  LIG1       -0.2745
@<TRIPOS>BOND
     1     1     2   ar
     2     1     5   ar
     3     1    15    1
     4     2     3   ar
     5     2    14    2
     6     3     4   ar
     7     3     8    1
     8     4     5   ar
     9     4     7    1
    10     5     6    1
    11     8     9   ar
    12     8    13   ar
    13     9    10   ar
    14    10    11   ar
    15    11    12   ar
    16    12    13   ar
    17    15    16   am
    18    16    17    2
    19    16    18   am
    20    18    19    1
    21    19    20    1
    22    20    21    1
    23    21    22   am
    24    21    25   am
    25    22    23    1
    26    22    32    2
    27    23    24    1
    28    23    30    1
    29    24    25    1
    30    24    27    1
    31    25    26    2
    32    27    28    1
    33    27    31    1
    34    28    29    2
    35    29    30    1
    36    30    31    1
