@<TRIPOS>MOLECULE
30832_ChemDiv_6455-0040
 34 38 0 0 0
SMALL
GASTEIGER
Energy = 0

@<TRIPOS>ATOM
      1 C           2.1330   -1.3330    0.0000 C.ar    1  LIG1        0.1440
      2 C           3.0460   -1.5290    0.0000 C.ar    1  LIG1        0.2953
      3 N           3.1460   -2.4580    0.0000 N.ar    1  LIG1       -0.2134
      4 N           2.2920   -2.8330    0.0000 N.ar    1  LIG1       -0.2646
      5 C           1.6750   -2.1500    0.0000 C.ar    1  LIG1        0.0746
      6 C           0.7460   -2.2460    0.0000 C.3     1  LIG1        0.0532
      7 C           2.1080   -3.7500    0.0000 C.3     1  LIG1        0.1518
      8 C           3.9580   -2.9130    0.0000 C.ar    1  LIG1        0.0841
      9 C           3.9670   -3.8540    0.0000 C.ar    1  LIG1        0.0192
     10 C           4.7710   -4.3040    0.0000 C.ar    1  LIG1        0.0015
     11 C           5.5750   -3.8420    0.0000 C.ar    1  LIG1        0.0001
     12 C           5.5750   -2.8960    0.0000 C.ar    1  LIG1        0.0015
     13 C           4.7670   -2.4420    0.0000 C.ar    1  LIG1        0.0192
     14 O           3.7330   -0.9000    0.0000 O.2     1  LIG1       -0.2637
     15 N           1.6540   -0.5290    0.0000 N.am    1  LIG1       -0.1731
     16 C           2.1170    0.2790    0.0000 C.2     1  LIG1        0.2457
     17 O           3.0500    0.2830    0.0000 O.2     1  LIG1       -0.2730
     18 C           1.6420    1.0880    0.0000 C.3     1  LIG1        0.0872
     19 C           0.6960    1.0830    0.0000 C.3     1  LIG1        0.0097
     20 C           0.2330    1.8880    0.0000 C.3     1  LIG1        0.0023
     21 C          -0.6960    1.8880    0.0000 C.3     1  LIG1        0.0220
     22 C          -1.1750    2.6960    0.0000 C.3     1  LIG1        0.1009
     23 N          -2.1040    2.6960    0.0000 N.am    1  LIG1       -0.2299
     24 C          -2.6540    1.9380    0.0000 C.2     1  LIG1        0.2316
     25 C          -3.5000    2.3290    0.0000 C.3     1  LIG1        0.0900
     26 C          -3.5040    3.2580    0.0000 C.3     1  LIG1        0.0900
     27 C          -2.6630    3.4380    0.0000 C.2     1  LIG1        0.2316
     28 O          -2.3290    4.3040    0.0000 O.2     1  LIG1       -0.2745
     29 C          -4.5670    3.6250    0.0000 C.3     1  LIG1        0.0311
     30 C          -5.5790    2.9420    0.0000 C.2     1  LIG1       -0.0305
     31 C          -5.5790    2.0040    0.0000 C.2     1  LIG1       -0.0305
     32 C          -4.5670    1.7500    0.0000 C.3     1  LIG1        0.0311
     33 C          -5.3750    4.2080    0.0000 C.3     1  LIG1        0.0096
     34 O          -2.4170    1.0250    0.0000 O.2     1  LIG1       -0.2745
@<TRIPOS>BOND
     1     1     2   ar
     2     1     5   ar
     3     1    15    1
     4     2     3   ar
     5     2    14    2
     6     3     4   ar
     7     3     8    1
     8     4     5   ar
     9     4     7    1
    10     5     6    1
    11     8     9   ar
    12     8    13   ar
    13     9    10   ar
    14    10    11   ar
    15    11    12   ar
    16    12    13   ar
    17    15    16   am
    18    16    17    2
    19    16    18    1
    20    18    19    1
    21    19    20    1
    22    20    21    1
    23    21    22    1
    24    22    23    1
    25    23    24   am
    26    23    27   am
    27    24    25    1
    28    24    34    2
    29    25    26    1
    30    25    32    1
    31    26    27    1
    32    26    29    1
    33    27    28    2
    34    29    30    1
    35    29    33    1
    36    30    31    2
    37    31    32    1
    38    32    33    1
