@<TRIPOS>MOLECULE
30848_ChemDiv_4282-0022
 18 20 0 0 0
SMALL
GASTEIGER
Energy = 0

@<TRIPOS>ATOM
      1 N           0.8500    0.3040    0.0000 N.am    1  LIG1       -0.2784
      2 C          -0.0080   -0.1960    0.0000 C.3     1  LIG1        0.1001
      3 C           0.2080   -1.1710    0.0000 C.3     1  LIG1        0.0597
      4 C           1.1920   -1.2710    0.0000 C.3     1  LIG1        0.1787
      5 C           1.5960   -0.3670    0.0000 C.2     1  LIG1        0.2496
      6 O           2.5790   -0.1710    0.0000 O.2     1  LIG1       -0.2726
      7 O           1.2420   -2.2580    0.0000 O.3     1  LIG1       -0.2205
      8 C          -0.8670    0.3040    0.0000 C.ar    1  LIG1       -0.0081
      9 C          -0.8670    1.3040    0.0000 C.ar    1  LIG1       -0.0230
     10 C          -0.0080    1.7920    0.0000 C.3     1  LIG1        0.0443
     11 C           0.8500    1.3040    0.0000 C.3     1  LIG1        0.0647
     12 C           1.1080    2.2630    0.0000 C.3     1  LIG1        0.0202
     13 C           1.8250    1.0460    0.0000 C.3     1  LIG1        0.0202
     14 C          -1.7250    1.7920    0.0000 C.ar    1  LIG1       -0.0045
     15 C          -2.5830    1.3040    0.0000 C.ar    1  LIG1       -0.0003
     16 C          -2.5830    0.3040    0.0000 C.ar    1  LIG1       -0.0003
     17 C          -1.7250   -0.1960    0.0000 C.ar    1  LIG1       -0.0030
     18 H           2.2790   -1.4380    0.0000 H       1  LIG1        0.0732
@<TRIPOS>BOND
     1     1     2    1
     2     1     5   am
     3     1    11    1
     4     2     3    1
     5     2     8    1
     6     3     4    1
     7     4     5    1
     8     4     7    1
     9     4    18    1
    10     5     6    2
    11     8     9   ar
    12     8    17   ar
    13     9    10    1
    14     9    14   ar
    15    10    11    1
    16    11    12    1
    17    11    13    1
    18    14    15   ar
    19    15    16   ar
    20    16    17   ar
