@<TRIPOS>MOLECULE
30842_ChemDiv_4270-0403
 24 27 0 0 0
SMALL
GASTEIGER
Energy = 0

@<TRIPOS>ATOM
      1 C          -0.3920    0.2000    0.0000 C.ar    1  LIG1        0.0722
      2 C          -0.6040   -0.7830    0.0000 C.ar    1  LIG1        0.0433
      3 C          -1.5920   -0.8790    0.0000 C.ar    1  LIG1        0.1798
      4 O          -1.9960    0.0290    0.0000 O.2     1  LIG1       -0.4505
      5 C          -1.2540    0.6960    0.0000 C.ar    1  LIG1        0.1484
      6 C          -1.2540    1.7000    0.0000 C.ar    1  LIG1        0.0377
      7 C          -0.3920    2.2000    0.0000 C.ar    1  LIG1        0.0059
      8 C           0.4830    1.7000    0.0000 C.ar    1  LIG1        0.0311
      9 C           0.4670    0.6960    0.0000 C.ar    1  LIG1        0.1513
     10 O           1.3330    0.2000    0.0000 O.2     1  LIG1       -0.4209
     11 C           2.2130    0.6960    0.0000 C.ar    1  LIG1        0.3456
     12 C           2.2250    1.7000    0.0000 C.ar    1  LIG1        0.0781
     13 C           1.3330    2.2080    0.0000 C.ar    1  LIG1       -0.0125
     14 C           1.3330    3.2130    0.0000 C.3     1  LIG1        0.0313
     15 O           3.0880    0.1880    0.0000 O.2     1  LIG1       -0.2445
     16 C          -2.0880   -1.7380    0.0000 C.2     1  LIG1        0.2077
     17 O          -1.5920   -2.6040    0.0000 O.2     1  LIG1       -0.2881
     18 C          -3.0920   -1.7380    0.0000 C.3     1  LIG1        0.0806
     19 C           0.0630   -1.5130    0.0000 C.ar    1  LIG1        0.0032
     20 C          -0.2460   -2.4630    0.0000 C.ar    1  LIG1        0.0001
     21 C           0.4210   -3.2080    0.0000 C.ar    1  LIG1        0.0000
     22 C           1.3960   -3.0000    0.0000 C.ar    1  LIG1        0.0000
     23 C           1.7130   -2.0540    0.0000 C.ar    1  LIG1        0.0000
     24 C           1.0330   -1.3130    0.0000 C.ar    1  LIG1        0.0001
@<TRIPOS>BOND
     1     1     2   ar
     2     1     5   ar
     3     1     9   ar
     4     2     3   ar
     5     2    19    1
     6     3     4   ar
     7     3    16    1
     8     4     5   ar
     9     5     6   ar
    10     6     7   ar
    11     7     8   ar
    12     8     9   ar
    13     8    13   ar
    14     9    10   ar
    15    10    11   ar
    16    11    12   ar
    17    11    15    2
    18    12    13   ar
    19    13    14    1
    20    16    17    2
    21    16    18    1
    22    19    20   ar
    23    19    24   ar
    24    20    21   ar
    25    21    22   ar
    26    22    23   ar
    27    23    24   ar
