@<TRIPOS>MOLECULE
30844_ChemDiv_4808-0446
 26 29 0 0 0
SMALL
GASTEIGER
Energy = 0

@<TRIPOS>ATOM
      1 C          -0.8500   -0.8790    0.0000 C.ar    1  LIG1        0.2205
      2 C           0.1500   -0.7710    0.0000 C.ar    1  LIG1        0.0470
      3 C           0.3540    0.2000    0.0000 C.ar    1  LIG1        0.0723
      4 C           1.2170    0.6960    0.0000 C.ar    1  LIG1        0.1513
      5 C           1.2250    1.7080    0.0000 C.ar    1  LIG1        0.0311
      6 C           2.0880    2.2130    0.0000 C.ar    1  LIG1       -0.0125
      7 C           2.9630    1.7080    0.0000 C.ar    1  LIG1        0.0781
      8 C           2.9630    0.6960    0.0000 C.ar    1  LIG1        0.3456
      9 O           2.0880    0.1960    0.0000 O.2     1  LIG1       -0.4209
     10 O           3.8250    0.1960    0.0000 O.2     1  LIG1       -0.2445
     11 C           2.0880    3.2130    0.0000 C.3     1  LIG1        0.0313
     12 C           0.3540    2.2080    0.0000 C.ar    1  LIG1        0.0059
     13 C          -0.5080    1.7000    0.0000 C.ar    1  LIG1        0.0377
     14 C          -0.5080    0.7000    0.0000 C.ar    1  LIG1        0.1486
     15 O          -1.2500    0.0330    0.0000 O.2     1  LIG1       -0.4468
     16 C           0.8170   -1.5130    0.0000 C.ar    1  LIG1        0.0033
     17 C           1.7830   -1.3000    0.0000 C.ar    1  LIG1        0.0001
     18 C           2.4580   -2.0420    0.0000 C.ar    1  LIG1        0.0000
     19 C           2.1460   -2.9960    0.0000 C.ar    1  LIG1        0.0000
     20 C           1.1750   -3.2080    0.0000 C.ar    1  LIG1        0.0000
     21 C           0.5080   -2.4670    0.0000 C.ar    1  LIG1        0.0001
     22 C          -1.3500   -1.7420    0.0000 C.2     1  LIG1        0.3763
     23 O          -0.8500   -2.6040    0.0000 O.2     1  LIG1       -0.2414
     24 O          -2.3500   -1.7420    0.0000 O.3     1  LIG1       -0.4433
     25 C          -2.8380   -2.6040    0.0000 C.3     1  LIG1        0.2090
     26 C          -3.8290   -2.6040    0.0000 C.3     1  LIG1        0.0513
@<TRIPOS>BOND
     1     1     2   ar
     2     1    15   ar
     3     1    22    1
     4     2     3   ar
     5     2    16    1
     6     3     4   ar
     7     3    14   ar
     8     4     5   ar
     9     4     9   ar
    10     5     6   ar
    11     5    12   ar
    12     6     7   ar
    13     6    11    1
    14     7     8   ar
    15     8     9   ar
    16     8    10    2
    17    12    13   ar
    18    13    14   ar
    19    14    15   ar
    20    16    17   ar
    21    16    21   ar
    22    17    18   ar
    23    18    19   ar
    24    19    20   ar
    25    20    21   ar
    26    22    23    2
    27    22    24    1
    28    24    25    1
    29    25    26    1
