@<TRIPOS>MOLECULE
30852_ChemDiv_4349-0021
 17 19 0 0 0
SMALL
GASTEIGER
Energy = 0

@<TRIPOS>ATOM
      1 C           0.9580    0.2380    0.0000 C.ar    1  LIG1        0.2393
      2 N           0.0880   -0.2540    0.0000 N.ar    1  LIG1       -0.2108
      3 C          -0.7750    0.2380    0.0000 C.ar    1  LIG1        0.1051
      4 C          -0.7750    1.2380    0.0000 C.ar    1  LIG1        0.1413
      5 N           0.0880    1.7630    0.0000 N.ar    1  LIG1       -0.1421
      6 N           0.9580    1.2630    0.0000 N.ar    1  LIG1       -0.1124
      7 C          -1.6420   -0.2540    0.0000 C.ar    1  LIG1        0.0193
      8 C          -1.6420   -1.2500    0.0000 C.ar    1  LIG1        0.0015
      9 C          -2.5080   -1.7580    0.0000 C.ar    1  LIG1        0.0000
     10 C          -3.3880   -1.2670    0.0000 C.ar    1  LIG1        0.0000
     11 C          -3.3630   -0.2540    0.0000 C.ar    1  LIG1        0.0000
     12 C          -2.5080    0.2250    0.0000 C.ar    1  LIG1        0.0015
     13 N           1.8080   -0.2670    0.0000 N.pl3   1  LIG1       -0.2770
     14 C           1.9000   -1.2830    0.0000 C.3     1  LIG1        0.0937
     15 C           2.8790   -1.4750    0.0000 C.3     1  LIG1        0.0233
     16 C           3.3830   -0.6250    0.0000 C.3     1  LIG1        0.0233
     17 C           2.7130    0.1250    0.0000 C.3     1  LIG1        0.0937
@<TRIPOS>BOND
     1     1     2   ar
     2     1     6   ar
     3     1    13    1
     4     2     3   ar
     5     3     4   ar
     6     3     7    1
     7     4     5   ar
     8     5     6   ar
     9     7     8   ar
    10     7    12   ar
    11     8     9   ar
    12     9    10   ar
    13    10    11   ar
    14    11    12   ar
    15    13    14    1
    16    13    17    1
    17    14    15    1
    18    15    16    1
    19    16    17    1
