@<TRIPOS>MOLECULE
30858_ChemDiv_4356-0146
 25 28 0 0 0
SMALL
GASTEIGER
Energy = 0

@<TRIPOS>ATOM
      1 C           0.0000   -0.9210    0.0000 C.ar    1  LIG1        0.0929
      2 C           0.5670   -1.7330    0.0000 C.ar    1  LIG1        0.1497
      3 O           0.0000   -2.5040    0.0000 O.2     1  LIG1       -0.4533
      4 C          -0.9670   -2.2210    0.0000 C.ar    1  LIG1        0.1456
      5 C          -0.9670   -1.2000    0.0000 C.ar    1  LIG1        0.0450
      6 C          -1.8130   -0.7210    0.0000 C.ar    1  LIG1        0.0402
      7 C          -2.6830   -1.2000    0.0000 C.ar    1  LIG1        0.1389
      8 C          -2.6830   -2.2210    0.0000 C.ar    1  LIG1        0.0400
      9 C          -1.8130   -2.6960    0.0000 C.ar    1  LIG1        0.0406
     10 O          -3.5630   -0.6920    0.0000 O.3     1  LIG1       -0.4714
     11 C          -3.5630    0.3000    0.0000 C.3     1  LIG1        0.2525
     12 C           1.5790   -1.8210    0.0000 C.ar    1  LIG1        0.0347
     13 C           2.0040   -2.7210    0.0000 C.ar    1  LIG1        0.0030
     14 C           2.9920   -2.8380    0.0000 C.ar    1  LIG1        0.0001
     15 C           3.5580   -1.9920    0.0000 C.ar    1  LIG1        0.0000
     16 C           3.1330   -1.0920    0.0000 C.ar    1  LIG1        0.0001
     17 C           2.1460   -1.0000    0.0000 C.ar    1  LIG1        0.0030
     18 C           0.3420    0.0420    0.0000 C.2     1  LIG1        0.2738
     19 N           1.3130    0.2540    0.0000 N.am    1  LIG1       -0.1504
     20 C           1.6130    1.2000    0.0000 C.ar    1  LIG1        0.1861
     21 N           0.9920    1.9790    0.0000 N.ar    1  LIG1       -0.2209
     22 C           1.5960    2.8420    0.0000 C.ar    1  LIG1        0.1079
     23 C           2.4960    2.5580    0.0000 C.ar    1  LIG1        0.0588
     24 S           2.5880    1.5250    0.0000 S.2     1  LIG1       -0.0491
     25 O          -0.3130    0.7750    0.0000 O.2     1  LIG1       -0.2678
@<TRIPOS>BOND
     1     1     2   ar
     2     1     5   ar
     3     1    18    1
     4     2     3   ar
     5     2    12    1
     6     3     4   ar
     7     4     5   ar
     8     4     9   ar
     9     5     6   ar
    10     6     7   ar
    11     7     8   ar
    12     7    10    1
    13     8     9   ar
    14    10    11    1
    15    12    13   ar
    16    12    17   ar
    17    13    14   ar
    18    14    15   ar
    19    15    16   ar
    20    16    17   ar
    21    18    19   am
    22    18    25    2
    23    19    20    1
    24    20    21   ar
    25    20    24   ar
    26    21    22   ar
    27    22    23   ar
    28    23    24   ar
