@<TRIPOS>MOLECULE
30850_ChemDiv_K978-0211
 30 34 0 0 0
SMALL
GASTEIGER
Energy = 0

@<TRIPOS>ATOM
      1 C          -2.1540    0.3380    0.0000 C.ar    1  LIG1        0.1441
      2 C          -1.3920   -0.2880    0.0000 C.ar    1  LIG1        0.2953
      3 N          -1.7380   -1.1830    0.0000 N.ar    1  LIG1       -0.2134
      4 N          -2.7170   -1.1210    0.0000 N.ar    1  LIG1       -0.2646
      5 C          -2.9580   -0.1630    0.0000 C.ar    1  LIG1        0.0746
      6 C          -3.8710    0.1960    0.0000 C.3     1  LIG1        0.0532
      7 C          -3.3420   -1.8710    0.0000 C.3     1  LIG1        0.1518
      8 C          -1.2330   -2.0000    0.0000 C.ar    1  LIG1        0.0841
      9 C          -1.6880   -2.8670    0.0000 C.ar    1  LIG1        0.0192
     10 C          -1.1670   -3.6920    0.0000 C.ar    1  LIG1        0.0015
     11 C          -0.1920   -3.6630    0.0000 C.ar    1  LIG1        0.0001
     12 C           0.2500   -2.8040    0.0000 C.ar    1  LIG1        0.0015
     13 C          -0.2670   -1.9790    0.0000 C.ar    1  LIG1        0.0192
     14 O          -0.4460   -0.0580    0.0000 O.2     1  LIG1       -0.2637
     15 N          -2.1540    1.7830    0.0000 N.am    1  LIG1       -0.1717
     16 C          -1.2880    2.2710    0.0000 C.2     1  LIG1        0.2664
     17 C          -0.3960    1.7250    0.0000 C.3     1  LIG1        0.1877
     18 N           0.5880    1.9830    0.0000 N.am    1  LIG1       -0.2206
     19 C           1.0540    2.8960    0.0000 C.2     1  LIG1        0.2321
     20 C           2.0080    2.8630    0.0000 C.3     1  LIG1        0.0900
     21 C           2.2710    1.9420    0.0000 C.3     1  LIG1        0.0900
     22 C           1.4830    1.4170    0.0000 C.2     1  LIG1        0.2321
     23 O           1.4500    0.4580    0.0000 O.2     1  LIG1       -0.2744
     24 C           3.1960    1.7250    0.0000 C.3     1  LIG1        0.0311
     25 C           3.8670    2.4000    0.0000 C.2     1  LIG1       -0.0305
     26 C           3.6000    3.3250    0.0000 C.2     1  LIG1       -0.0305
     27 C           2.6630    3.5540    0.0000 C.3     1  LIG1        0.0311
     28 C           3.3920    2.9290    0.0000 C.3     1  LIG1        0.0096
     29 O           0.5130    3.6960    0.0000 O.2     1  LIG1       -0.2744
     30 O          -1.3330    3.3460    0.0000 O.2     1  LIG1       -0.2711
@<TRIPOS>BOND
     1     1     2   ar
     2     1     5   ar
     3     1    15    1
     4     2     3   ar
     5     2    14    2
     6     3     4   ar
     7     3     8    1
     8     4     5   ar
     9     4     7    1
    10     5     6    1
    11     8     9   ar
    12     8    13   ar
    13     9    10   ar
    14    10    11   ar
    15    11    12   ar
    16    12    13   ar
    17    15    16   am
    18    16    17    1
    19    16    30    2
    20    17    18    1
    21    18    19   am
    22    18    22   am
    23    19    20    1
    24    19    29    2
    25    20    21    1
    26    20    27    1
    27    21    22    1
    28    21    24    1
    29    22    23    2
    30    24    25    1
    31    24    28    1
    32    25    26    2
    33    26    27    1
    34    27    28    1
