@<TRIPOS>MOLECULE
30862_ChemDiv_8016-7623
 19 21 0 0 0
SMALL
GASTEIGER
Energy = 0

@<TRIPOS>ATOM
      1 C          -0.0080   -0.0040    0.0000 C.ar    1  LIG1        0.1290
      2 C          -0.8710   -0.5040    0.0000 C.ar    1  LIG1        0.2717
      3 N          -1.7330   -0.0040    0.0000 N.ar    1  LIG1       -0.2576
      4 C          -1.7330    0.9960    0.0000 C.ar    1  LIG1        0.1500
      5 N          -0.8710    1.5000    0.0000 N.ar    1  LIG1       -0.2260
      6 C          -0.0080    0.9960    0.0000 C.ar    1  LIG1        0.1098
      7 C          -2.5960    1.5000    0.0000 C.ar    1  LIG1        0.0375
      8 C          -3.4630    0.9960    0.0000 C.ar    1  LIG1        0.0046
      9 C          -3.4630   -0.0040    0.0000 C.ar    1  LIG1        0.0192
     10 C          -2.5960   -0.5000    0.0000 C.ar    1  LIG1        0.0844
     11 O          -0.8830   -1.5040    0.0000 O.2     1  LIG1       -0.2664
     12 C           0.8670   -0.5000    0.0000 C.2     1  LIG1        0.2554
     13 N           1.7290    0.0080    0.0000 N.am    1  LIG1       -0.2708
     14 C           2.5960   -0.4920    0.0000 C.3     1  LIG1        0.1258
     15 C           3.4580    0.0080    0.0000 C.3     1  LIG1        0.1637
     16 O           3.4580    1.0080    0.0000 O.3     1  LIG1       -0.3501
     17 C           2.5920    1.5080    0.0000 C.3     1  LIG1        0.1637
     18 C           1.7210    1.0080    0.0000 C.3     1  LIG1        0.1258
     19 O           0.8580   -1.5040    0.0000 O.2     1  LIG1       -0.2697
@<TRIPOS>BOND
     1     1     2   ar
     2     1     6   ar
     3     1    12    1
     4     2     3   ar
     5     2    11    2
     6     3     4   ar
     7     3    10   ar
     8     4     5   ar
     9     4     7   ar
    10     5     6   ar
    11     7     8   ar
    12     8     9   ar
    13     9    10   ar
    14    12    13   am
    15    12    19    2
    16    13    14    1
    17    13    18    1
    18    14    15    1
    19    15    16    1
    20    16    17    1
    21    17    18    1
