@<TRIPOS>MOLECULE
30866_ChemDiv_4282-0068
 20 22 0 0 0
SMALL
GASTEIGER
Energy = 0

@<TRIPOS>ATOM
      1 C          -0.0080    0.2580    0.0000 C.2     1  LIG1        0.1143
      2 N           0.8670    0.7500    0.0000 N.2     1  LIG1       -0.2707
      3 C           0.8670    1.7630    0.0000 C.3     1  LIG1        0.0889
      4 C          -0.0080    2.2500    0.0000 C.3     1  LIG1        0.0488
      5 C          -0.8710    1.7630    0.0000 C.ar    1  LIG1       -0.0188
      6 C          -0.8710    0.7500    0.0000 C.ar    1  LIG1        0.0165
      7 C          -1.7380    0.2580    0.0000 C.ar    1  LIG1        0.0013
      8 C          -2.6000    0.7500    0.0000 C.ar    1  LIG1        0.0000
      9 C          -2.6000    1.7630    0.0000 C.ar    1  LIG1       -0.0003
     10 C          -1.7380    2.2500    0.0000 C.ar    1  LIG1       -0.0042
     11 C           0.8670    2.7630    0.0000 C.3     1  LIG1        0.0247
     12 C           1.8170    2.0170    0.0000 C.3     1  LIG1        0.0247
     13 C          -0.0080   -0.7500    0.0000 C.2     1  LIG1        0.2126
     14 O          -0.8710   -1.2580    0.0000 O.2     1  LIG1       -0.2850
     15 C           0.8670   -1.2580    0.0000 C.ar    1  LIG1        0.0405
     16 C           0.8670   -2.2540    0.0000 C.ar    1  LIG1        0.0032
     17 C           1.7330   -2.7580    0.0000 C.ar    1  LIG1        0.0001
     18 C           2.5960   -2.2540    0.0000 C.ar    1  LIG1        0.0000
     19 C           2.5960   -1.2580    0.0000 C.ar    1  LIG1        0.0001
     20 C           1.7330   -0.7500    0.0000 C.ar    1  LIG1        0.0032
@<TRIPOS>BOND
     1     1     2    2
     2     1     6    1
     3     1    13    1
     4     2     3    1
     5     3     4    1
     6     3    11    1
     7     3    12    1
     8     4     5    1
     9     5     6   ar
    10     5    10   ar
    11     6     7   ar
    12     7     8   ar
    13     8     9   ar
    14     9    10   ar
    15    13    14    2
    16    13    15    1
    17    15    16   ar
    18    15    20   ar
    19    16    17   ar
    20    17    18   ar
    21    18    19   ar
    22    19    20   ar
