@<TRIPOS>MOLECULE
30860_ChemDiv_4356-0804
 13 14 0 0 0
SMALL
GASTEIGER
Energy = 0

@<TRIPOS>ATOM
      1 N           0.0000    0.0000    0.0000 N.ar    1  LIG1       -0.2579
      2 C           0.0000   -0.9920    0.0000 C.ar    1  LIG1        0.1532
      3 N           0.8670   -1.4880    0.0000 N.ar    1  LIG1       -0.1899
      4 C           1.7420   -0.9920    0.0000 C.ar    1  LIG1        0.2854
      5 C           1.7420    0.0000    0.0000 C.ar    1  LIG1        0.1236
      6 C           0.8670    0.5000    0.0000 C.ar    1  LIG1        0.2708
      7 O           0.8670    1.4920    0.0000 O.2     1  LIG1       -0.2664
      8 O           2.6130   -1.4880    0.0000 O.3     1  LIG1       -0.2650
      9 C          -0.8790   -1.4880    0.0000 C.ar    1  LIG1        0.0373
     10 C          -1.7460   -0.9920    0.0000 C.ar    1  LIG1        0.0003
     11 C          -1.7460    0.0000    0.0000 C.ar    1  LIG1       -0.0041
     12 C          -0.8790    0.5000    0.0000 C.ar    1  LIG1        0.0801
     13 C          -2.6170    0.5000    0.0000 C.3     1  LIG1        0.0326
@<TRIPOS>BOND
     1     1     2   ar
     2     1     6   ar
     3     1    12   ar
     4     2     3   ar
     5     2     9   ar
     6     3     4   ar
     7     4     5   ar
     8     4     8    1
     9     5     6   ar
    10     6     7    2
    11     9    10   ar
    12    10    11   ar
    13    11    12   ar
    14    11    13    1
