@<TRIPOS>MOLECULE
30864_ChemDiv_C200-0090
 28 31 0 0 0
SMALL
GASTEIGER
Energy = 0

@<TRIPOS>ATOM
      1 N          -2.1670    0.5250    0.0000 N.ar    1  LIG1       -0.2576
      2 C          -3.0290    1.0210    0.0000 C.ar    1  LIG1        0.2672
      3 C          -3.9000    0.5250    0.0000 C.ar    1  LIG1        0.0742
      4 C          -3.9000   -0.4750    0.0000 C.ar    1  LIG1        0.0875
      5 N          -3.0290   -0.9750    0.0000 N.ar    1  LIG1       -0.2277
      6 C          -2.1670   -0.4750    0.0000 C.ar    1  LIG1        0.1500
      7 C          -1.3080   -0.9750    0.0000 C.ar    1  LIG1        0.0376
      8 C          -0.4460   -0.4750    0.0000 C.ar    1  LIG1        0.0091
      9 C          -0.4460    0.5250    0.0000 C.ar    1  LIG1        0.0713
     10 C          -1.3080    1.0210    0.0000 C.ar    1  LIG1        0.0888
     11 C           0.4290    1.0210    0.0000 C.2     1  LIG1        0.2506
     12 N           1.2920    0.5130    0.0000 N.am    1  LIG1       -0.2725
     13 C           2.1630    1.0080    0.0000 C.3     1  LIG1        0.1153
     14 C           3.0290    0.5000    0.0000 C.3     1  LIG1        0.1182
     15 N           3.0250   -0.5000    0.0000 N.am    1  LIG1       -0.2425
     16 C           3.9000   -1.0130    0.0000 C.2     1  LIG1        0.4050
     17 O           3.8920   -2.0170    0.0000 O.2     1  LIG1       -0.2262
     18 O           4.7630   -0.5130    0.0000 O.3     1  LIG1       -0.4345
     19 C           4.7630    0.4960    0.0000 C.3     1  LIG1        0.2102
     20 C           5.6250    0.9920    0.0000 C.3     1  LIG1        0.0513
     21 C           2.1380   -0.9880    0.0000 C.3     1  LIG1        0.1182
     22 C           1.2790   -0.4920    0.0000 C.3     1  LIG1        0.1153
     23 O           0.4290    2.0210    0.0000 O.2     1  LIG1       -0.2699
     24 C          -4.7580   -0.9750    0.0000 C.ar    1  LIG1        0.0193
     25 C          -5.6290   -0.4750    0.0000 C.ar    1  LIG1        0.0015
     26 C          -5.6290    0.5250    0.0000 C.ar    1  LIG1        0.0003
     27 C          -4.7580    1.0210    0.0000 C.ar    1  LIG1        0.0063
     28 O          -3.0290    2.0210    0.0000 O.2     1  LIG1       -0.2665
@<TRIPOS>BOND
     1     1     2   ar
     2     1     6   ar
     3     1    10   ar
     4     2     3   ar
     5     2    28    2
     6     3     4   ar
     7     3    27   ar
     8     4     5   ar
     9     4    24   ar
    10     5     6   ar
    11     6     7   ar
    12     7     8   ar
    13     8     9   ar
    14     9    10   ar
    15     9    11    1
    16    11    12   am
    17    11    23    2
    18    12    13    1
    19    12    22    1
    20    13    14    1
    21    14    15    1
    22    15    16   am
    23    15    21    1
    24    16    17    2
    25    16    18    1
    26    18    19    1
    27    19    20    1
    28    21    22    1
    29    24    25   ar
    30    25    26   ar
    31    26    27   ar
