@<TRIPOS>MOLECULE
30870_ChemDiv_4284-0144
 21 23 0 0 0
SMALL
GASTEIGER
Energy = 0

@<TRIPOS>ATOM
      1 C           0.4330    1.2460    0.0000 C.2     1  LIG1        0.2645
      2 N           0.4330    0.2330    0.0000 N.am    1  LIG1       -0.2015
      3 C          -0.4330   -0.2630    0.0000 C.3     1  LIG1        0.1211
      4 C          -0.4330   -1.2830    0.0000 C.3     1  LIG1        0.0731
      5 C          -1.3000   -1.7790    0.0000 C.3     1  LIG1        0.0884
      6 N          -1.3000   -2.7750    0.0000 N.4     1  LIG1        0.3730
      7 C          -0.4330   -3.2710    0.0000 C.3     1  LIG1        0.1383
      8 C           0.4330   -2.7750    0.0000 C.3     1  LIG1        0.0630
      9 C           0.4330   -1.7790    0.0000 C.3     1  LIG1        0.0136
     10 C          -2.1710   -3.2710    0.0000 C.3     1  LIG1        0.1383
     11 C          -3.0380   -2.7750    0.0000 C.3     1  LIG1        0.0629
     12 C          -3.0380   -1.7790    0.0000 C.3     1  LIG1        0.0120
     13 C          -2.1710   -1.2830    0.0000 C.3     1  LIG1        0.0570
     14 C           1.2960    1.7540    0.0000 C.ar    1  LIG1        0.0511
     15 C           2.1710    1.2880    0.0000 C.ar    1  LIG1       -0.0174
     16 C           2.2040    0.2960    0.0000 C.3     1  LIG1        0.0312
     17 C           3.0330    1.7920    0.0000 C.ar    1  LIG1       -0.0041
     18 C           3.0330    2.8000    0.0000 C.ar    1  LIG1       -0.0003
     19 C           2.1420    3.2750    0.0000 C.ar    1  LIG1        0.0001
     20 C           1.2960    2.7460    0.0000 C.ar    1  LIG1        0.0042
     21 O          -0.4330    1.7460    0.0000 O.2     1  LIG1       -0.2684
@<TRIPOS>BOND
     1     1     2   am
     2     1    14    1
     3     1    21    2
     4     2     3    1
     5     3     4    1
     6     4     5    1
     7     4     9    1
     8     5     6    1
     9     5    13    1
    10     6     7    1
    11     6    10    1
    12     7     8    1
    13     8     9    1
    14    10    11    1
    15    11    12    1
    16    12    13    1
    17    14    15   ar
    18    14    20   ar
    19    15    16    1
    20    15    17   ar
    21    17    18   ar
    22    18    19   ar
    23    19    20   ar
