@<TRIPOS>MOLECULE
30873_ChemDiv_C151-0219
 17 19 0 0 0
SMALL
GASTEIGER
Energy = 0

@<TRIPOS>ATOM
      1 C           0.0710    0.0960    0.0000 C.2     1  LIG1        0.0225
      2 C          -0.7630    0.5750    0.0000 C.2     1  LIG1        0.1917
      3 C          -1.5880    0.0960    0.0000 C.ar    1  LIG1        0.0350
      4 C          -1.5880   -0.8710    0.0000 C.ar    1  LIG1       -0.0146
      5 C           0.0710   -0.8710    0.0000 C.3     1  LIG1        0.0560
      6 C          -2.4210   -1.3500    0.0000 C.ar    1  LIG1       -0.0038
      7 C          -3.2540   -0.8710    0.0000 C.ar    1  LIG1       -0.0003
      8 C          -3.2540    0.0960    0.0000 C.ar    1  LIG1        0.0001
      9 C          -2.4210    0.5750    0.0000 C.ar    1  LIG1        0.0029
     10 O          -0.7630    1.5330    0.0000 O.2     1  LIG1       -0.2869
     11 C           0.9170    0.5750    0.0000 C.2     1  LIG1        0.0164
     12 C           1.7420    0.0920    0.0000 C.ar    1  LIG1        0.0598
     13 N           1.8290   -0.8710    0.0000 N.ar    1  LIG1       -0.3240
     14 C           2.7670   -1.0710    0.0000 C.ar    1  LIG1        0.0760
     15 C           3.2500   -0.2250    0.0000 C.ar    1  LIG1        0.0201
     16 C           2.6170    0.4710    0.0000 C.ar    1  LIG1        0.0187
     17 C           1.0830   -1.5290    0.0000 C.3     1  LIG1        0.1305
@<TRIPOS>BOND
     1     1     2    1
     2     1     5    1
     3     1    11    2
     4     2     3    1
     5     2    10    2
     6     3     4   ar
     7     3     9   ar
     8     4     5    1
     9     4     6   ar
    10     6     7   ar
    11     7     8   ar
    12     8     9   ar
    13    11    12    1
    14    12    13   ar
    15    12    16   ar
    16    13    14   ar
    17    13    17    1
    18    14    15   ar
    19    15    16   ar
