@<TRIPOS>MOLECULE
30886_ChemDiv_C720-0037
 21 23 0 0 0
SMALL
GASTEIGER
Energy = 0

@<TRIPOS>ATOM
      1 C          -0.8880   -0.2380    0.0000 C.ar    1  LIG1        0.1308
      2 C          -1.7500    0.2710    0.0000 C.ar    1  LIG1        0.2718
      3 N          -2.6210   -0.2290    0.0000 N.ar    1  LIG1       -0.2576
      4 C          -2.6210   -1.2290    0.0000 C.ar    1  LIG1        0.1500
      5 N          -1.7630   -1.7380    0.0000 N.ar    1  LIG1       -0.2260
      6 C          -0.8880   -1.2420    0.0000 C.ar    1  LIG1        0.1099
      7 C          -3.4830   -1.7250    0.0000 C.ar    1  LIG1        0.0375
      8 C          -4.3460   -1.2290    0.0000 C.ar    1  LIG1        0.0046
      9 C          -4.3460   -0.2290    0.0000 C.ar    1  LIG1        0.0192
     10 C          -3.4830    0.2790    0.0000 C.ar    1  LIG1        0.0844
     11 O          -1.7500    1.2670    0.0000 O.2     1  LIG1       -0.2664
     12 C          -0.0170    0.2580    0.0000 C.2     1  LIG1        0.2752
     13 N           0.8460   -0.2420    0.0000 N.am    1  LIG1       -0.1753
     14 C           1.7080    0.2580    0.0000 C.ar    1  LIG1        0.0737
     15 C           2.5710   -0.2540    0.0000 C.ar    1  LIG1        0.0163
     16 C           3.4420    0.2420    0.0000 C.ar    1  LIG1       -0.0029
     17 C           3.4580    1.2380    0.0000 C.ar    1  LIG1       -0.0218
     18 C           2.5960    1.7420    0.0000 C.ar    1  LIG1       -0.0029
     19 C           1.7250    1.2540    0.0000 C.ar    1  LIG1        0.0163
     20 C           4.3420    1.7250    0.0000 C.3     1  LIG1        0.0310
     21 O          -0.0170    1.2670    0.0000 O.2     1  LIG1       -0.2678
@<TRIPOS>BOND
     1     1     2   ar
     2     1     6   ar
     3     1    12    1
     4     2     3   ar
     5     2    11    2
     6     3     4   ar
     7     3    10   ar
     8     4     5   ar
     9     4     7   ar
    10     5     6   ar
    11     7     8   ar
    12     8     9   ar
    13     9    10   ar
    14    12    13   am
    15    12    21    2
    16    13    14    1
    17    14    15   ar
    18    14    19   ar
    19    15    16   ar
    20    16    17   ar
    21    17    18   ar
    22    17    20    1
    23    18    19   ar
