@<TRIPOS>MOLECULE
30888_ChemDiv_C720-0041
 24 26 0 0 0
SMALL
GASTEIGER
Energy = 0

@<TRIPOS>ATOM
      1 C          -2.1830   -0.2330    0.0000 C.ar    1  LIG1        0.1308
      2 C          -3.0460    0.2750    0.0000 C.ar    1  LIG1        0.2718
      3 N          -3.9080   -0.2210    0.0000 N.ar    1  LIG1       -0.2576
      4 C          -3.9080   -1.2290    0.0000 C.ar    1  LIG1        0.1500
      5 N          -3.0540   -1.7380    0.0000 N.ar    1  LIG1       -0.2260
      6 C          -2.1830   -1.2420    0.0000 C.ar    1  LIG1        0.1099
      7 C          -4.7790   -1.7170    0.0000 C.ar    1  LIG1        0.0375
      8 C          -5.6330   -1.2290    0.0000 C.ar    1  LIG1        0.0046
      9 C          -5.6330   -0.2210    0.0000 C.ar    1  LIG1        0.0192
     10 C          -4.7790    0.2790    0.0000 C.ar    1  LIG1        0.0844
     11 O          -3.0460    1.2710    0.0000 O.2     1  LIG1       -0.2664
     12 C          -1.3130    0.2670    0.0000 C.2     1  LIG1        0.2752
     13 N          -0.4500   -0.2420    0.0000 N.am    1  LIG1       -0.1753
     14 C           0.4290    0.2580    0.0000 C.ar    1  LIG1        0.0737
     15 C           1.2880   -0.2540    0.0000 C.ar    1  LIG1        0.0163
     16 C           2.1670    0.2330    0.0000 C.ar    1  LIG1       -0.0029
     17 C           2.1830    1.2420    0.0000 C.ar    1  LIG1       -0.0221
     18 C           1.3210    1.7420    0.0000 C.ar    1  LIG1       -0.0029
     19 C           0.4420    1.2630    0.0000 C.ar    1  LIG1        0.0163
     20 C           3.0540    1.7210    0.0000 C.3     1  LIG1        0.0264
     21 C           3.9040    1.2080    0.0000 C.3     1  LIG1        0.0047
     22 C           4.7790    1.6960    0.0000 C.3     1  LIG1        0.0003
     23 C           5.6290    1.1880    0.0000 C.3     1  LIG1        0.0000
     24 O          -1.3000    1.2710    0.0000 O.2     1  LIG1       -0.2678
@<TRIPOS>BOND
     1     1     2   ar
     2     1     6   ar
     3     1    12    1
     4     2     3   ar
     5     2    11    2
     6     3     4   ar
     7     3    10   ar
     8     4     5   ar
     9     4     7   ar
    10     5     6   ar
    11     7     8   ar
    12     8     9   ar
    13     9    10   ar
    14    12    13   am
    15    12    24    2
    16    13    14    1
    17    14    15   ar
    18    14    19   ar
    19    15    16   ar
    20    16    17   ar
    21    17    18   ar
    22    17    20    1
    23    18    19   ar
    24    20    21    1
    25    21    22    1
    26    22    23    1
