@<TRIPOS>MOLECULE
30882_ChemDiv_C720-0014
 20 22 0 0 0
SMALL
GASTEIGER
Energy = 0

@<TRIPOS>ATOM
      1 C          -0.7960   -0.0040    0.0000 C.ar    1  LIG1        0.1305
      2 C          -1.6580    0.5000    0.0000 C.ar    1  LIG1        0.2718
      3 N          -2.5330    0.0080    0.0000 N.ar    1  LIG1       -0.2576
      4 C          -2.5330   -0.9960    0.0000 C.ar    1  LIG1        0.1500
      5 N          -1.6670   -1.5000    0.0000 N.ar    1  LIG1       -0.2260
      6 C          -0.7960   -1.0040    0.0000 C.ar    1  LIG1        0.1099
      7 C          -3.3880   -1.4880    0.0000 C.ar    1  LIG1        0.0375
      8 C          -4.2500   -0.9960    0.0000 C.ar    1  LIG1        0.0046
      9 C          -4.2500    0.0080    0.0000 C.ar    1  LIG1        0.0192
     10 C          -3.3880    0.5170    0.0000 C.ar    1  LIG1        0.0844
     11 O          -1.6540    1.5000    0.0000 O.2     1  LIG1       -0.2664
     12 C           0.0790    0.5000    0.0000 C.2     1  LIG1        0.2713
     13 N           0.9330   -0.0080    0.0000 N.am    1  LIG1       -0.1961
     14 C           1.7960    0.4920    0.0000 C.3     1  LIG1        0.1482
     15 C           2.6630   -0.0210    0.0000 C.ar    1  LIG1        0.0290
     16 S           3.5790    0.3790    0.0000 S.2     1  LIG1       -0.0890
     17 C           4.2460   -0.3710    0.0000 C.ar    1  LIG1        0.0352
     18 C           3.7290   -1.2290    0.0000 C.ar    1  LIG1        0.0072
     19 C           2.7580   -1.0170    0.0000 C.ar    1  LIG1        0.0044
     20 O           0.0790    1.5000    0.0000 O.2     1  LIG1       -0.2681
@<TRIPOS>BOND
     1     1     2   ar
     2     1     6   ar
     3     1    12    1
     4     2     3   ar
     5     2    11    2
     6     3     4   ar
     7     3    10   ar
     8     4     5   ar
     9     4     7   ar
    10     5     6   ar
    11     7     8   ar
    12     8     9   ar
    13     9    10   ar
    14    12    13   am
    15    12    20    2
    16    13    14    1
    17    14    15    1
    18    15    16   ar
    19    15    19   ar
    20    16    17   ar
    21    17    18   ar
    22    18    19   ar
