@<TRIPOS>MOLECULE
30884_ChemDiv_C720-0031
 23 26 0 0 0
SMALL
GASTEIGER
Energy = 0

@<TRIPOS>ATOM
      1 C          -0.5750    0.0580    0.0000 C.ar    1  LIG1        0.1294
      2 C           0.3000    0.5710    0.0000 C.2     1  LIG1        0.2589
      3 N           1.1580    0.0540    0.0000 N.am    1  LIG1       -0.2566
      4 C           1.2580   -0.9250    0.0000 C.3     1  LIG1        0.0845
      5 C           2.2290   -1.1500    0.0000 C.3     1  LIG1        0.0478
      6 C           2.7250   -0.2880    0.0000 C.ar    1  LIG1       -0.0068
      7 C           2.0710    0.4630    0.0000 C.ar    1  LIG1        0.0501
      8 C           2.3790    1.4130    0.0000 C.ar    1  LIG1        0.0146
      9 C           3.3540    1.6130    0.0000 C.ar    1  LIG1        0.0013
     10 C           4.0250    0.8710    0.0000 C.ar    1  LIG1       -0.0002
     11 C           3.7080   -0.0920    0.0000 C.ar    1  LIG1       -0.0030
     12 C           0.5040   -1.6080    0.0000 C.3     1  LIG1        0.0223
     13 O           0.3000    1.5630    0.0000 O.2     1  LIG1       -0.2693
     14 C          -1.4420    0.5710    0.0000 C.ar    1  LIG1        0.2717
     15 N          -2.3130    0.0710    0.0000 N.ar    1  LIG1       -0.2576
     16 C          -2.3130   -0.9330    0.0000 C.ar    1  LIG1        0.1500
     17 N          -1.4500   -1.4330    0.0000 N.ar    1  LIG1       -0.2260
     18 C          -0.5750   -0.9420    0.0000 C.ar    1  LIG1        0.1098
     19 C          -3.1710   -1.4250    0.0000 C.ar    1  LIG1        0.0375
     20 C          -4.0290   -0.9330    0.0000 C.ar    1  LIG1        0.0046
     21 C          -4.0290    0.0710    0.0000 C.ar    1  LIG1        0.0192
     22 C          -3.1710    0.5790    0.0000 C.ar    1  LIG1        0.0844
     23 O          -1.4380    1.5670    0.0000 O.2     1  LIG1       -0.2664
@<TRIPOS>BOND
     1     1     2    1
     2     1    14   ar
     3     1    18   ar
     4     2     3   am
     5     2    13    2
     6     3     4    1
     7     3     7    1
     8     4     5    1
     9     4    12    1
    10     5     6    1
    11     6     7   ar
    12     6    11   ar
    13     7     8   ar
    14     8     9   ar
    15     9    10   ar
    16    10    11   ar
    17    14    15   ar
    18    14    23    2
    19    15    16   ar
    20    15    22   ar
    21    16    17   ar
    22    16    19   ar
    23    17    18   ar
    24    19    20   ar
    25    20    21   ar
    26    21    22   ar
