@<TRIPOS>MOLECULE
30897_ChemDiv_4236-2409
 21 24 0 0 0
SMALL
GASTEIGER
Energy = 0

@<TRIPOS>ATOM
      1 C          -0.0500    0.4790    0.0000 C.ar    1  LIG1        0.1620
      2 N          -0.8830   -0.0880    0.0000 N.ar    1  LIG1       -0.3028
      3 C          -1.6750    0.5380    0.0000 C.ar    1  LIG1        0.0630
      4 C          -1.3420    1.4380    0.0000 C.ar    1  LIG1        0.0364
      5 C          -0.3460    1.4210    0.0000 C.ar    1  LIG1        0.1167
      6 N           0.3330    2.1670    0.0000 N.ar    1  LIG1       -0.2408
      7 C           1.3210    1.9420    0.0000 C.ar    1  LIG1        0.0990
      8 C           1.6330    0.9750    0.0000 C.ar    1  LIG1        0.1005
      9 N           0.9540    0.2460    0.0000 N.ar    1  LIG1       -0.2252
     10 C           2.6250    0.7670    0.0000 C.ar    1  LIG1        0.0207
     11 C           3.2830    1.5000    0.0000 C.ar    1  LIG1        0.0016
     12 C           2.9920    2.4630    0.0000 C.ar    1  LIG1        0.0016
     13 C           2.0040    2.6670    0.0000 C.ar    1  LIG1        0.0206
     14 C          -1.9670    2.2290    0.0000 C.ar    1  LIG1        0.0030
     15 C          -2.9540    2.0630    0.0000 C.ar    1  LIG1        0.0001
     16 C          -3.2880    1.1630    0.0000 C.ar    1  LIG1        0.0015
     17 C          -2.6830    0.3920    0.0000 C.ar    1  LIG1        0.0173
     18 C          -0.9080   -1.1130    0.0000 C.3     1  LIG1        0.1963
     19 C          -0.0500   -1.6080    0.0000 C.2     1  LIG1        0.2838
     20 O           0.0210   -2.6630    0.0000 O.2     1  LIG1       -0.2695
     21 N           0.7130   -1.0790    0.0000 N.am    1  LIG1       -0.0861
@<TRIPOS>BOND
     1     1     2   ar
     2     1     5   ar
     3     1     9   ar
     4     2     3   ar
     5     2    18    1
     6     3     4   ar
     7     3    17   ar
     8     4     5   ar
     9     4    14   ar
    10     5     6   ar
    11     6     7   ar
    12     7     8   ar
    13     7    13   ar
    14     8     9   ar
    15     8    10   ar
    16    10    11   ar
    17    11    12   ar
    18    12    13   ar
    19    14    15   ar
    20    15    16   ar
    21    16    17   ar
    22    18    19    1
    23    19    20    2
    24    19    21   am
