@<TRIPOS>MOLECULE
30899_ChemDiv_5912-0015
 25 29 0 0 0
SMALL
GASTEIGER
Energy = 0

@<TRIPOS>ATOM
      1 C          -0.1040    1.3750    0.0000 C.ar    1  LIG1        0.1618
      2 N          -0.9460    0.8000    0.0000 N.ar    1  LIG1       -0.3056
      3 C          -1.7170    1.4380    0.0000 C.ar    1  LIG1        0.0628
      4 C          -1.3830    2.3830    0.0000 C.ar    1  LIG1        0.0364
      5 C          -0.3750    2.3460    0.0000 C.ar    1  LIG1        0.1167
      6 N           0.3290    3.0460    0.0000 N.ar    1  LIG1       -0.2408
      7 C           1.3040    2.7750    0.0000 C.ar    1  LIG1        0.0990
      8 C           1.5710    1.8040    0.0000 C.ar    1  LIG1        0.1005
      9 N           0.8670    1.1130    0.0000 N.ar    1  LIG1       -0.2252
     10 C           2.5420    1.5380    0.0000 C.ar    1  LIG1        0.0207
     11 C           3.2460    2.2460    0.0000 C.ar    1  LIG1        0.0016
     12 C           2.9790    3.2170    0.0000 C.ar    1  LIG1        0.0016
     13 C           2.0080    3.3880    0.0000 C.ar    1  LIG1        0.0206
     14 C          -2.0170    3.1830    0.0000 C.ar    1  LIG1        0.0030
     15 C          -2.9880    3.0170    0.0000 C.ar    1  LIG1        0.0001
     16 C          -3.2500    2.0750    0.0000 C.ar    1  LIG1        0.0015
     17 C          -2.7210    1.2670    0.0000 C.ar    1  LIG1        0.0173
     18 C          -1.4500   -0.0710    0.0000 C.3     1  LIG1        0.1701
     19 C          -0.7460   -0.7630    0.0000 C.3     1  LIG1        0.1638
     20 N          -1.2460   -1.6420    0.0000 N.4     1  LIG1        0.3828
     21 C          -2.2540   -1.6420    0.0000 C.3     1  LIG1        0.1714
     22 C          -2.7580   -2.5130    0.0000 C.3     1  LIG1        0.2047
     23 O          -2.2540   -3.3830    0.0000 O.3     1  LIG1       -0.3411
     24 C          -1.2460   -3.3830    0.0000 C.3     1  LIG1        0.2047
     25 C          -0.7460   -2.5130    0.0000 C.3     1  LIG1        0.1714
@<TRIPOS>BOND
     1     1     2   ar
     2     1     5   ar
     3     1     9   ar
     4     2     3   ar
     5     2    18    1
     6     3     4   ar
     7     3    17   ar
     8     4     5   ar
     9     4    14   ar
    10     5     6   ar
    11     6     7   ar
    12     7     8   ar
    13     7    13   ar
    14     8     9   ar
    15     8    10   ar
    16    10    11   ar
    17    11    12   ar
    18    12    13   ar
    19    14    15   ar
    20    15    16   ar
    21    16    17   ar
    22    18    19    1
    23    19    20    1
    24    20    21    1
    25    20    25    1
    26    21    22    1
    27    22    23    1
    28    23    24    1
    29    24    25    1
