@<TRIPOS>MOLECULE
30894_ChemDiv_C720-0074
 31 34 0 0 0
SMALL
GASTEIGER
Energy = 0

@<TRIPOS>ATOM
      1 S           2.1830    1.1460    0.0000 S.O2    1  LIG1       -0.0559
      2 N           3.0420    0.6380    0.0000 N.pl3   1  LIG1       -0.5039
      3 C           3.9040    1.1330    0.0000 C.ar    1  LIG1        0.0700
      4 C           4.8080    0.7250    0.0000 C.ar    1  LIG1        0.0095
      5 C           5.4880    1.4540    0.0000 C.ar    1  LIG1        0.0951
      6 N           4.9920    2.3290    0.0000 N.ar    1  LIG1       -0.0839
      7 O           4.0250    2.1170    0.0000 O.2     1  LIG1       -0.3774
      8 C           6.4880    1.3460    0.0000 C.3     1  LIG1        0.0553
      9 C           5.0210   -0.2580    0.0000 C.3     1  LIG1        0.0337
     10 C           1.3080    0.6500    0.0000 C.ar    1  LIG1        0.0894
     11 C           1.3000   -0.3460    0.0000 C.ar    1  LIG1        0.0182
     12 C           0.4250   -0.8420    0.0000 C.ar    1  LIG1        0.0179
     13 C          -0.4330   -0.3330    0.0000 C.ar    1  LIG1        0.0738
     14 N          -1.3080   -0.8330    0.0000 N.am    1  LIG1       -0.1753
     15 C          -2.1710   -0.3330    0.0000 C.2     1  LIG1        0.2752
     16 C          -3.0420   -0.8330    0.0000 C.ar    1  LIG1        0.1308
     17 C          -3.9040   -0.3210    0.0000 C.ar    1  LIG1        0.2718
     18 N          -4.7670   -0.8170    0.0000 N.ar    1  LIG1       -0.2576
     19 C          -4.7750   -1.8250    0.0000 C.ar    1  LIG1        0.1500
     20 N          -3.9040   -2.3250    0.0000 N.ar    1  LIG1       -0.2260
     21 C          -3.0420   -1.8250    0.0000 C.ar    1  LIG1        0.1099
     22 C          -5.6290   -2.3130    0.0000 C.ar    1  LIG1        0.0375
     23 C          -6.4880   -1.8250    0.0000 C.ar    1  LIG1        0.0046
     24 C          -6.4880   -0.8170    0.0000 C.ar    1  LIG1        0.0192
     25 C          -5.6290   -0.3130    0.0000 C.ar    1  LIG1        0.0844
     26 O          -3.8920    0.6830    0.0000 O.2     1  LIG1       -0.2664
     27 O          -2.1580    0.6830    0.0000 O.2     1  LIG1       -0.2678
     28 C          -0.4330    0.6710    0.0000 C.ar    1  LIG1        0.0179
     29 C           0.4460    1.1580    0.0000 C.ar    1  LIG1        0.0182
     30 O           2.8920    1.8420    0.0000 O.2     1  LIG1       -0.1841
     31 O           1.4710    1.8540    0.0000 O.2     1  LIG1       -0.1841
@<TRIPOS>BOND
     1     1     2    1
     2     1    10    1
     3     1    30    2
     4     1    31    2
     5     2     3    1
     6     3     4   ar
     7     3     7   ar
     8     4     5   ar
     9     4     9    1
    10     5     6   ar
    11     5     8    1
    12     6     7   ar
    13    10    11   ar
    14    10    29   ar
    15    11    12   ar
    16    12    13   ar
    17    13    14    1
    18    13    28   ar
    19    14    15   am
    20    15    16    1
    21    15    27    2
    22    16    17   ar
    23    16    21   ar
    24    17    18   ar
    25    17    26    2
    26    18    19   ar
    27    18    25   ar
    28    19    20   ar
    29    19    22   ar
    30    20    21   ar
    31    22    23   ar
    32    23    24   ar
    33    24    25   ar
    34    28    29   ar
