@<TRIPOS>MOLECULE
30890_ChemDiv_C720-0070
 24 26 0 0 0
SMALL
GASTEIGER
Energy = 0

@<TRIPOS>ATOM
      1 C          -1.3130   -0.5920    0.0000 C.ar    1  LIG1        0.1308
      2 C          -2.1830   -0.0830    0.0000 C.ar    1  LIG1        0.2718
      3 N          -3.0460   -0.5790    0.0000 N.ar    1  LIG1       -0.2576
      4 C          -3.0460   -1.5880    0.0000 C.ar    1  LIG1        0.1500
      5 N          -2.1830   -2.0920    0.0000 N.ar    1  LIG1       -0.2260
      6 C          -1.3130   -1.5960    0.0000 C.ar    1  LIG1        0.1099
      7 C          -3.9080   -2.0790    0.0000 C.ar    1  LIG1        0.0375
      8 C          -4.7670   -1.5880    0.0000 C.ar    1  LIG1        0.0046
      9 C          -4.7670   -0.5790    0.0000 C.ar    1  LIG1        0.0192
     10 C          -3.9080   -0.0750    0.0000 C.ar    1  LIG1        0.0844
     11 O          -2.1710    0.9130    0.0000 O.2     1  LIG1       -0.2664
     12 C          -0.4380   -0.0960    0.0000 C.2     1  LIG1        0.2752
     13 N           0.4290   -0.6000    0.0000 N.am    1  LIG1       -0.1753
     14 C           1.2920   -0.0960    0.0000 C.ar    1  LIG1        0.0738
     15 C           2.1540   -0.6080    0.0000 C.ar    1  LIG1        0.0180
     16 C           3.0170   -0.0960    0.0000 C.ar    1  LIG1        0.0213
     17 C           3.0290    0.9040    0.0000 C.ar    1  LIG1        0.1251
     18 S           3.9000    1.4000    0.0000 S.O2    1  LIG1        0.0935
     19 O           3.2080    2.0960    0.0000 O.2     1  LIG1       -0.1503
     20 O           4.6170    2.0920    0.0000 O.2     1  LIG1       -0.1503
     21 N           4.7630    0.8960    0.0000 N.3     1  LIG1        0.0392
     22 C           2.1710    1.4000    0.0000 C.ar    1  LIG1        0.0213
     23 C           1.3000    0.9130    0.0000 C.ar    1  LIG1        0.0180
     24 O          -0.4290    0.9130    0.0000 O.2     1  LIG1       -0.2678
@<TRIPOS>BOND
     1     1     2   ar
     2     1     6   ar
     3     1    12    1
     4     2     3   ar
     5     2    11    2
     6     3     4   ar
     7     3    10   ar
     8     4     5   ar
     9     4     7   ar
    10     5     6   ar
    11     7     8   ar
    12     8     9   ar
    13     9    10   ar
    14    12    13   am
    15    12    24    2
    16    13    14    1
    17    14    15   ar
    18    14    23   ar
    19    15    16   ar
    20    16    17   ar
    21    17    18    1
    22    17    22   ar
    23    18    19    2
    24    18    20    2
    25    18    21    1
    26    22    23   ar
