@<TRIPOS>MOLECULE
30892_ChemDiv_C720-0072
 27 29 0 0 0
SMALL
GASTEIGER
Energy = 0

@<TRIPOS>ATOM
      1 S           3.0460    1.2420    0.0000 S.O2    1  LIG1       -0.0560
      2 N           3.9000    0.7330    0.0000 N.am    1  LIG1       -0.5058
      3 C           4.7710    1.2080    0.0000 C.2     1  LIG1        0.0708
      4 O           5.6420    0.7000    0.0000 O.2     1  LIG1       -0.3167
      5 C           4.7920    2.2080    0.0000 C.3     1  LIG1        0.0502
      6 C           2.1670    0.7540    0.0000 C.ar    1  LIG1        0.0894
      7 C           1.3170    1.2630    0.0000 C.ar    1  LIG1        0.0182
      8 C           0.4420    0.7830    0.0000 C.ar    1  LIG1        0.0179
      9 C           0.4250   -0.2130    0.0000 C.ar    1  LIG1        0.0738
     10 N          -0.4460   -0.7080    0.0000 N.am    1  LIG1       -0.1753
     11 C          -1.3080   -0.2080    0.0000 C.2     1  LIG1        0.2752
     12 C          -2.1830   -0.7080    0.0000 C.ar    1  LIG1        0.1308
     13 C          -3.0500   -0.2000    0.0000 C.ar    1  LIG1        0.2718
     14 N          -3.9210   -0.6960    0.0000 N.ar    1  LIG1       -0.2576
     15 C          -3.9210   -1.7080    0.0000 C.ar    1  LIG1        0.1500
     16 N          -3.0630   -2.2040    0.0000 N.ar    1  LIG1       -0.2260
     17 C          -2.1830   -1.7080    0.0000 C.ar    1  LIG1        0.1099
     18 C          -4.7830   -2.1960    0.0000 C.ar    1  LIG1        0.0375
     19 C          -5.6460   -1.7080    0.0000 C.ar    1  LIG1        0.0046
     20 C          -5.6460   -0.6960    0.0000 C.ar    1  LIG1        0.0192
     21 C          -4.7830   -0.1920    0.0000 C.ar    1  LIG1        0.0844
     22 O          -3.0460    0.7960    0.0000 O.2     1  LIG1       -0.2664
     23 O          -1.3080    0.7960    0.0000 O.2     1  LIG1       -0.2678
     24 C           1.2750   -0.7290    0.0000 C.ar    1  LIG1        0.0179
     25 C           2.1540   -0.2420    0.0000 C.ar    1  LIG1        0.0182
     26 O           3.7670    1.9380    0.0000 O.2     1  LIG1       -0.1841
     27 O           2.3500    1.9580    0.0000 O.2     1  LIG1       -0.1841
@<TRIPOS>BOND
     1     1     2    1
     2     1     6    1
     3     1    26    2
     4     1    27    2
     5     2     3   am
     6     3     4    2
     7     3     5    1
     8     6     7   ar
     9     6    25   ar
    10     7     8   ar
    11     8     9   ar
    12     9    10    1
    13     9    24   ar
    14    10    11   am
    15    11    12    1
    16    11    23    2
    17    12    13   ar
    18    12    17   ar
    19    13    14   ar
    20    13    22    2
    21    14    15   ar
    22    14    21   ar
    23    15    16   ar
    24    15    18   ar
    25    16    17   ar
    26    18    19   ar
    27    19    20   ar
    28    20    21   ar
    29    24    25   ar
