@<TRIPOS>MOLECULE
30909_ChemDiv_D011-1840
 26 30 0 0 0
SMALL
GASTEIGER
Energy = 0

@<TRIPOS>ATOM
      1 C           0.2380    1.1000    0.0000 C.ar    1  LIG1        0.1617
      2 N          -0.3420    0.2880    0.0000 N.ar    1  LIG1       -0.3097
      3 C          -1.2960    0.5880    0.0000 C.ar    1  LIG1        0.0626
      4 C          -1.3040    1.5920    0.0000 C.ar    1  LIG1        0.0364
      5 C          -0.3500    1.9130    0.0000 C.ar    1  LIG1        0.1167
      6 N           0.0460    2.8170    0.0000 N.ar    1  LIG1       -0.2408
      7 C           1.0330    2.9330    0.0000 C.ar    1  LIG1        0.0990
      8 C           1.6330    2.1250    0.0000 C.ar    1  LIG1        0.1005
      9 N           1.2290    1.2040    0.0000 N.ar    1  LIG1       -0.2252
     10 C           2.6330    2.2290    0.0000 C.ar    1  LIG1        0.0207
     11 C           3.0290    3.1540    0.0000 C.ar    1  LIG1        0.0016
     12 C           2.4290    3.9670    0.0000 C.ar    1  LIG1        0.0016
     13 C           1.4380    3.8540    0.0000 C.ar    1  LIG1        0.0206
     14 C          -2.1670    2.0880    0.0000 C.ar    1  LIG1        0.0030
     15 C          -3.0330    1.5830    0.0000 C.ar    1  LIG1        0.0001
     16 C          -3.0330    0.5880    0.0000 C.ar    1  LIG1        0.0015
     17 C          -2.1670    0.0830    0.0000 C.ar    1  LIG1        0.0173
     18 C          -0.0250   -0.6670    0.0000 C.3     1  LIG1        0.1294
     19 C          -0.6960   -1.4080    0.0000 C.3     1  LIG1        0.1253
     20 N          -0.3670   -2.3540    0.0000 N.am    1  LIG1       -0.2279
     21 C          -0.9420   -3.1670    0.0000 C.2     1  LIG1        0.2319
     22 C          -0.3420   -3.9630    0.0000 C.3     1  LIG1        0.0953
     23 C           0.5920   -3.6420    0.0000 C.3     1  LIG1        0.0953
     24 C           0.5750   -2.6420    0.0000 C.2     1  LIG1        0.2319
     25 O           1.3880   -2.0420    0.0000 O.2     1  LIG1       -0.2745
     26 O          -1.9380   -3.1830    0.0000 O.2     1  LIG1       -0.2745
@<TRIPOS>BOND
     1     1     2   ar
     2     1     5   ar
     3     1     9   ar
     4     2     3   ar
     5     2    18    1
     6     3     4   ar
     7     3    17   ar
     8     4     5   ar
     9     4    14   ar
    10     5     6   ar
    11     6     7   ar
    12     7     8   ar
    13     7    13   ar
    14     8     9   ar
    15     8    10   ar
    16    10    11   ar
    17    11    12   ar
    18    12    13   ar
    19    14    15   ar
    20    15    16   ar
    21    16    17   ar
    22    18    19    1
    23    19    20    1
    24    20    21   am
    25    20    24   am
    26    21    22    1
    27    21    26    2
    28    22    23    1
    29    23    24    1
    30    24    25    2
