@<TRIPOS>MOLECULE
30907_ChemDiv_8017-9589
 28 31 0 0 0
SMALL
GASTEIGER
Energy = 0

@<TRIPOS>ATOM
      1 C           0.4040    2.4080    0.0000 C.ar    1  LIG1        0.1620
      2 N          -0.4420    1.9170    0.0000 N.ar    1  LIG1       -0.3029
      3 C          -1.2830    2.4080    0.0000 C.ar    1  LIG1        0.0630
      4 C          -1.2790    3.3920    0.0000 C.ar    1  LIG1        0.0364
      5 C           0.4040    3.3920    0.0000 C.ar    1  LIG1        0.1167
      6 N           1.2540    3.8920    0.0000 N.ar    1  LIG1       -0.2408
      7 C           2.1040    3.4040    0.0000 C.ar    1  LIG1        0.0990
      8 C           2.1130    2.4170    0.0000 C.ar    1  LIG1        0.1005
      9 N           1.2630    1.9170    0.0000 N.ar    1  LIG1       -0.2252
     10 C           2.9670    1.9290    0.0000 C.ar    1  LIG1        0.0207
     11 C           3.8170    2.4290    0.0000 C.ar    1  LIG1        0.0016
     12 C           3.8130    3.4170    0.0000 C.ar    1  LIG1        0.0016
     13 C           2.9540    3.9040    0.0000 C.ar    1  LIG1        0.0206
     14 C          -2.1210    3.8710    0.0000 C.ar    1  LIG1        0.0030
     15 C          -2.9670    3.3880    0.0000 C.ar    1  LIG1        0.0001
     16 C          -2.9670    2.4170    0.0000 C.ar    1  LIG1        0.0015
     17 C          -2.1290    1.9290    0.0000 C.ar    1  LIG1        0.0173
     18 C          -0.4420    0.9420    0.0000 C.3     1  LIG1        0.1946
     19 C          -1.2830    0.4580    0.0000 C.2     1  LIG1        0.2647
     20 O          -2.1290    0.9460    0.0000 O.2     1  LIG1       -0.2712
     21 N          -1.2920   -0.5040    0.0000 N.am    1  LIG1       -0.1974
     22 C          -2.1290   -0.9920    0.0000 C.3     1  LIG1        0.1775
     23 C          -2.1330   -1.9630    0.0000 C.3     1  LIG1        0.1624
     24 N          -2.9790   -2.4420    0.0000 N.4     1  LIG1        0.3786
     25 C          -2.9790   -3.4170    0.0000 C.3     1  LIG1        0.1388
     26 C          -3.8210   -3.9000    0.0000 C.3     1  LIG1        0.0688
     27 C          -3.8170   -1.9540    0.0000 C.3     1  LIG1        0.1388
     28 C          -3.8170   -0.9880    0.0000 C.3     1  LIG1        0.0688
@<TRIPOS>BOND
     1     1     2   ar
     2     1     5   ar
     3     1     9   ar
     4     2     3   ar
     5     2    18    1
     6     3     4   ar
     7     3    17   ar
     8     4     5   ar
     9     4    14   ar
    10     5     6   ar
    11     6     7   ar
    12     7     8   ar
    13     7    13   ar
    14     8     9   ar
    15     8    10   ar
    16    10    11   ar
    17    11    12   ar
    18    12    13   ar
    19    14    15   ar
    20    15    16   ar
    21    16    17   ar
    22    18    19    1
    23    19    20    2
    24    19    21   am
    25    21    22    1
    26    22    23    1
    27    23    24    1
    28    24    25    1
    29    24    27    1
    30    25    26    1
    31    27    28    1
