@<TRIPOS>MOLECULE
30905_ChemDiv_8008-8646
 30 35 0 0 0
SMALL
GASTEIGER
Energy = 0

@<TRIPOS>ATOM
      1 N          -1.2880   -1.1960    0.0000 N.am    1  LIG1       -0.2209
      2 C          -1.2880   -0.3000    0.0000 C.2     1  LIG1        0.2552
      3 C          -2.8710   -0.3000    0.0000 C.ar    1  LIG1        0.0584
      4 C          -2.8710   -1.1960    0.0000 C.ar    1  LIG1        0.0584
      5 C          -2.0790   -1.6540    0.0000 C.2     1  LIG1        0.2552
      6 O          -2.0790   -2.6500    0.0000 O.2     1  LIG1       -0.2695
      7 C          -3.6420   -1.6540    0.0000 C.ar    1  LIG1        0.0047
      8 C          -4.4380   -1.1960    0.0000 C.ar    1  LIG1        0.0001
      9 C          -4.4380   -0.3000    0.0000 C.ar    1  LIG1        0.0001
     10 C          -3.6420    0.1750    0.0000 C.ar    1  LIG1        0.0047
     11 O          -0.4170    0.1920    0.0000 O.2     1  LIG1       -0.2695
     12 C          -0.4920   -1.6380    0.0000 C.3     1  LIG1        0.1260
     13 C           0.3500   -1.1130    0.0000 C.3     1  LIG1        0.1294
     14 N           0.3500    0.8170    0.0000 N.ar    1  LIG1       -0.3097
     15 C           1.1290    1.2460    0.0000 C.ar    1  LIG1        0.1617
     16 C           1.1290    2.1830    0.0000 C.ar    1  LIG1        0.1167
     17 N           1.9580    2.6380    0.0000 N.ar    1  LIG1       -0.2408
     18 C           2.7630    2.1630    0.0000 C.ar    1  LIG1        0.0990
     19 C           2.7630    1.2380    0.0000 C.ar    1  LIG1        0.1005
     20 N           1.9420    0.7750    0.0000 N.ar    1  LIG1       -0.2252
     21 C           3.6000    0.7580    0.0000 C.ar    1  LIG1        0.0207
     22 C           4.4330    1.2130    0.0000 C.ar    1  LIG1        0.0016
     23 C           4.4250    2.1460    0.0000 C.ar    1  LIG1        0.0016
     24 C           3.6000    2.6290    0.0000 C.ar    1  LIG1        0.0206
     25 C          -0.4500    2.1830    0.0000 C.ar    1  LIG1        0.0364
     26 C          -0.4500    1.2540    0.0000 C.ar    1  LIG1        0.0626
     27 C          -1.3130    0.8330    0.0000 C.ar    1  LIG1        0.0173
     28 C          -2.1290    1.2710    0.0000 C.ar    1  LIG1        0.0015
     29 C          -2.1290    2.2000    0.0000 C.ar    1  LIG1        0.0001
     30 C          -1.3290    2.6540    0.0000 C.ar    1  LIG1        0.0030
@<TRIPOS>BOND
     1     1     2   am
     2     1     5   am
     3     1    12    1
     4     2     3    1
     5     2    11    2
     6     3     4   ar
     7     3    10   ar
     8     4     5    1
     9     4     7   ar
    10     5     6    2
    11     7     8   ar
    12     8     9   ar
    13     9    10   ar
    14    12    13    1
    15    13    14    1
    16    14    15   ar
    17    14    26   ar
    18    15    16   ar
    19    15    20   ar
    20    16    17   ar
    21    16    25   ar
    22    17    18   ar
    23    18    19   ar
    24    18    24   ar
    25    19    20   ar
    26    19    21   ar
    27    21    22   ar
    28    22    23   ar
    29    23    24   ar
    30    25    26   ar
    31    25    30   ar
    32    26    27   ar
    33    27    28   ar
    34    28    29   ar
    35    29    30   ar
