@<TRIPOS>MOLECULE
30901_ChemDiv_6153-0074
 26 30 0 0 0
SMALL
GASTEIGER
Energy = 0

@<TRIPOS>ATOM
      1 C           0.6750    1.1420    0.0000 C.ar    1  LIG1        0.1618
      2 N           0.1080    0.3040    0.0000 N.ar    1  LIG1       -0.3056
      3 C          -0.8130    0.6130    0.0000 C.ar    1  LIG1        0.0628
      4 C          -0.8130    1.6460    0.0000 C.ar    1  LIG1        0.0369
      5 C           0.1040    1.9710    0.0000 C.ar    1  LIG1        0.1167
      6 N           0.4880    2.9040    0.0000 N.ar    1  LIG1       -0.2408
      7 C           1.4380    3.0130    0.0000 C.ar    1  LIG1        0.0990
      8 C           2.0040    2.1960    0.0000 C.ar    1  LIG1        0.1005
      9 N           1.6210    1.2500    0.0000 N.ar    1  LIG1       -0.2252
     10 C           2.9580    2.3040    0.0000 C.ar    1  LIG1        0.0207
     11 C           3.3380    3.2380    0.0000 C.ar    1  LIG1        0.0016
     12 C           2.7710    4.0540    0.0000 C.ar    1  LIG1        0.0016
     13 C           1.8250    3.9500    0.0000 C.ar    1  LIG1        0.0206
     14 C          -1.6460    2.1580    0.0000 C.ar    1  LIG1        0.0097
     15 C          -2.4830    1.6380    0.0000 C.ar    1  LIG1        0.0347
     16 C          -2.4830    0.6130    0.0000 C.ar    1  LIG1        0.0082
     17 C          -1.6460    0.0960    0.0000 C.ar    1  LIG1        0.0178
     18 BR         -3.3420    2.1210    0.0000 Br      1  LIG1       -0.0490
     19 C           0.4210   -0.6710    0.0000 C.3     1  LIG1        0.1701
     20 C          -0.3170   -1.3830    0.0000 C.3     1  LIG1        0.1638
     21 N           0.1960   -2.2750    0.0000 N.4     1  LIG1        0.3828
     22 C          -0.3250   -3.1580    0.0000 C.3     1  LIG1        0.1714
     23 C           0.1790   -4.0370    0.0000 C.3     1  LIG1        0.2047
     24 O           1.2040   -4.0540    0.0000 O.3     1  LIG1       -0.3411
     25 C           1.7170   -3.1710    0.0000 C.3     1  LIG1        0.2047
     26 C           1.2130   -2.2790    0.0000 C.3     1  LIG1        0.1714
@<TRIPOS>BOND
     1     1     2   ar
     2     1     5   ar
     3     1     9   ar
     4     2     3   ar
     5     2    19    1
     6     3     4   ar
     7     3    17   ar
     8     4     5   ar
     9     4    14   ar
    10     5     6   ar
    11     6     7   ar
    12     7     8   ar
    13     7    13   ar
    14     8     9   ar
    15     8    10   ar
    16    10    11   ar
    17    11    12   ar
    18    12    13   ar
    19    14    15   ar
    20    15    16   ar
    21    15    18    1
    22    16    17   ar
    23    19    20    1
    24    20    21    1
    25    21    22    1
    26    21    26    1
    27    22    23    1
    28    23    24    1
    29    24    25    1
    30    25    26    1
