@<TRIPOS>MOLECULE
30903_ChemDiv_6153-0116
 26 30 0 0 0
SMALL
GASTEIGER
Energy = 0

@<TRIPOS>ATOM
      1 C           0.6880    1.0130    0.0000 C.ar    1  LIG1        0.1618
      2 N           0.1130    0.1580    0.0000 N.ar    1  LIG1       -0.3056
      3 C          -0.8250    0.4710    0.0000 C.ar    1  LIG1        0.0628
      4 C          -0.8330    1.5250    0.0000 C.ar    1  LIG1        0.0361
      5 C           0.1000    1.8630    0.0000 C.ar    1  LIG1        0.1167
      6 N           0.4960    2.8170    0.0000 N.ar    1  LIG1       -0.2408
      7 C           1.4670    2.9250    0.0000 C.ar    1  LIG1        0.0990
      8 C           2.0540    2.0920    0.0000 C.ar    1  LIG1        0.1005
      9 N           1.6540    1.1250    0.0000 N.ar    1  LIG1       -0.2252
     10 C           3.0210    2.2000    0.0000 C.ar    1  LIG1        0.0207
     11 C           3.4130    3.1500    0.0000 C.ar    1  LIG1        0.0016
     12 C           2.8290    3.9960    0.0000 C.ar    1  LIG1        0.0016
     13 C           1.8670    3.8790    0.0000 C.ar    1  LIG1        0.0206
     14 C          -1.6830    2.0500    0.0000 C.ar    1  LIG1       -0.0012
     15 C          -2.5380    1.5170    0.0000 C.ar    1  LIG1       -0.0217
     16 C          -2.5380    0.4710    0.0000 C.ar    1  LIG1       -0.0028
     17 C          -1.6830   -0.0580    0.0000 C.ar    1  LIG1        0.0170
     18 C          -3.4170    2.0170    0.0000 C.3     1  LIG1        0.0310
     19 C           0.3630   -0.7880    0.0000 C.3     1  LIG1        0.1701
     20 C          -0.3290   -1.4630    0.0000 C.3     1  LIG1        0.1638
     21 N           0.1540   -2.3080    0.0000 N.4     1  LIG1        0.3828
     22 C           1.1250   -2.3040    0.0000 C.3     1  LIG1        0.1714
     23 C           1.6080   -3.1460    0.0000 C.3     1  LIG1        0.2047
     24 O           1.1250   -3.9920    0.0000 O.3     1  LIG1       -0.3411
     25 C           0.1540   -3.9880    0.0000 C.3     1  LIG1        0.2047
     26 C          -0.3290   -3.1460    0.0000 C.3     1  LIG1        0.1714
@<TRIPOS>BOND
     1     1     2   ar
     2     1     5   ar
     3     1     9   ar
     4     2     3   ar
     5     2    19    1
     6     3     4   ar
     7     3    17   ar
     8     4     5   ar
     9     4    14   ar
    10     5     6   ar
    11     6     7   ar
    12     7     8   ar
    13     7    13   ar
    14     8     9   ar
    15     8    10   ar
    16    10    11   ar
    17    11    12   ar
    18    12    13   ar
    19    14    15   ar
    20    15    16   ar
    21    15    18    1
    22    16    17   ar
    23    19    20    1
    24    20    21    1
    25    21    22    1
    26    21    26    1
    27    22    23    1
    28    23    24    1
    29    24    25    1
    30    25    26    1
