@<TRIPOS>MOLECULE
30900_ChemDiv_4286-0051
 27 30 0 0 0
SMALL
GASTEIGER
Energy = 0

@<TRIPOS>ATOM
      1 C          -1.1330    2.3830    0.0000 C.ar    1  LIG1        0.1799
      2 C          -0.8170    1.4170    0.0000 C.ar    1  LIG1        0.1013
      3 N          -1.6330    0.8380    0.0000 N.ar    1  LIG1       -0.2864
      4 C          -2.4420    1.4170    0.0000 C.ar    1  LIG1        0.1843
      5 N          -2.1210    2.3830    0.0000 N.ar    1  LIG1       -0.2046
      6 C          -1.6330   -0.1630    0.0000 C.ar    1  LIG1        0.0657
      7 C          -2.4880   -0.6630    0.0000 C.ar    1  LIG1        0.0207
      8 C          -2.4880   -1.6540    0.0000 C.ar    1  LIG1        0.0384
      9 C          -1.6330   -2.1540    0.0000 C.ar    1  LIG1        0.1388
     10 C          -0.7540   -1.6540    0.0000 C.ar    1  LIG1        0.0384
     11 C          -0.7710   -0.6460    0.0000 C.ar    1  LIG1        0.0207
     12 O          -1.6170   -3.1630    0.0000 O.3     1  LIG1       -0.4714
     13 C          -2.4880   -3.6540    0.0000 C.3     1  LIG1        0.2525
     14 C           0.1630    1.2170    0.0000 C.ar    1  LIG1        0.0231
     15 C           0.8290    1.9630    0.0000 C.ar    1  LIG1        0.0498
     16 C           0.5170    2.9130    0.0000 C.ar    1  LIG1        0.0638
     17 N          -0.4670    3.1130    0.0000 N.ar    1  LIG1       -0.2296
     18 C           1.1830    3.6580    0.0000 C.3     1  LIG1        0.0522
     19 C           1.8170    1.7630    0.0000 C.2     1  LIG1        0.1747
     20 O           2.4830    2.5040    0.0000 O.2     1  LIG1       -0.2913
     21 C           2.1170    0.8130    0.0000 C.3     1  LIG1        0.0773
     22 C           0.4670    0.2670    0.0000 C.ar    1  LIG1        0.0016
     23 C           1.4500    0.0670    0.0000 C.ar    1  LIG1        0.0001
     24 C           1.7540   -0.8830    0.0000 C.ar    1  LIG1        0.0000
     25 C           1.0880   -1.6290    0.0000 C.ar    1  LIG1        0.0000
     26 C           0.1040   -1.4290    0.0000 C.ar    1  LIG1        0.0000
     27 C          -0.2000   -0.4670    0.0000 C.ar    1  LIG1        0.0001
@<TRIPOS>BOND
     1     1     2   ar
     2     1     5   ar
     3     1    17   ar
     4     2     3   ar
     5     2    14   ar
     6     3     4   ar
     7     3     6    1
     8     4     5   ar
     9     6     7   ar
    10     6    11   ar
    11     7     8   ar
    12     8     9   ar
    13     9    10   ar
    14     9    12    1
    15    10    11   ar
    16    12    13    1
    17    14    15   ar
    18    14    22    1
    19    15    16   ar
    20    15    19    1
    21    16    17   ar
    22    16    18    1
    23    19    20    2
    24    19    21    1
    25    22    23   ar
    26    22    27   ar
    27    23    24   ar
    28    24    25   ar
    29    25    26   ar
    30    26    27   ar
