@<TRIPOS>MOLECULE
30915_ChemDiv_C720-0392
 30 33 0 0 0
SMALL
GASTEIGER
Energy = 0

@<TRIPOS>ATOM
      1 N          -2.6130   -1.7210    0.0000 N.ar    1  LIG1       -0.2576
      2 C          -1.7460   -1.2290    0.0000 C.ar    1  LIG1        0.2718
      3 C          -0.8790   -1.7380    0.0000 C.ar    1  LIG1        0.1305
      4 C          -0.8790   -2.7380    0.0000 C.ar    1  LIG1        0.1099
      5 N          -1.7460   -3.2330    0.0000 N.ar    1  LIG1       -0.2260
      6 C          -2.6130   -2.7330    0.0000 C.ar    1  LIG1        0.1497
      7 C          -3.4750   -3.2250    0.0000 C.ar    1  LIG1        0.0333
      8 C          -4.3330   -2.7330    0.0000 C.ar    1  LIG1       -0.0174
      9 C          -4.3330   -1.7210    0.0000 C.ar    1  LIG1        0.0150
     10 C          -3.4750   -1.2210    0.0000 C.ar    1  LIG1        0.0840
     11 C          -5.2080   -3.2250    0.0000 C.3     1  LIG1        0.0312
     12 C           0.0000   -1.2380    0.0000 C.2     1  LIG1        0.2710
     13 O           0.0000   -0.2330    0.0000 O.2     1  LIG1       -0.2681
     14 N           0.8630   -1.7380    0.0000 N.am    1  LIG1       -0.2015
     15 C           1.7250   -1.2460    0.0000 C.3     1  LIG1        0.1161
     16 C           1.7460   -0.2500    0.0000 C.3     1  LIG1        0.0322
     17 C           2.6130    0.2330    0.0000 C.3     1  LIG1        0.0463
     18 C           3.4630   -0.2630    0.0000 C.ar    1  LIG1       -0.0184
     19 C           3.4630   -1.2670    0.0000 C.ar    1  LIG1       -0.0040
     20 C           4.3130   -1.7790    0.0000 C.ar    1  LIG1       -0.0003
     21 C           5.1920   -1.2790    0.0000 C.ar    1  LIG1       -0.0000
     22 C           5.2040   -0.2790    0.0000 C.ar    1  LIG1       -0.0003
     23 C           4.3380    0.2170    0.0000 C.ar    1  LIG1       -0.0040
     24 C           2.6210    1.2330    0.0000 C.ar    1  LIG1       -0.0184
     25 C           3.4920    1.7210    0.0000 C.ar    1  LIG1       -0.0040
     26 C           3.5080    2.7210    0.0000 C.ar    1  LIG1       -0.0003
     27 C           2.6420    3.2380    0.0000 C.ar    1  LIG1       -0.0000
     28 C           1.7710    2.7540    0.0000 C.ar    1  LIG1       -0.0003
     29 C           1.7580    1.7500    0.0000 C.ar    1  LIG1       -0.0040
     30 O          -1.7380   -0.2290    0.0000 O.2     1  LIG1       -0.2664
@<TRIPOS>BOND
     1     1     2   ar
     2     1     6   ar
     3     1    10   ar
     4     2     3   ar
     5     2    30    2
     6     3     4   ar
     7     3    12    1
     8     4     5   ar
     9     5     6   ar
    10     6     7   ar
    11     7     8   ar
    12     8     9   ar
    13     8    11    1
    14     9    10   ar
    15    12    13    2
    16    12    14   am
    17    14    15    1
    18    15    16    1
    19    16    17    1
    20    17    18    1
    21    17    24    1
    22    18    19   ar
    23    18    23   ar
    24    19    20   ar
    25    20    21   ar
    26    21    22   ar
    27    22    23   ar
    28    24    25   ar
    29    24    29   ar
    30    25    26   ar
    31    26    27   ar
    32    27    28   ar
    33    28    29   ar
