@<TRIPOS>MOLECULE
30914_ChemDiv_4676-0705
 29 32 0 0 0
SMALL
GASTEIGER
Energy = 0

@<TRIPOS>ATOM
      1 N           0.3670    0.7670    0.0000 N.am    1  LIG1       -0.2074
      2 C           1.1670    1.3330    0.0000 C.2     1  LIG1        0.2365
      3 C           1.9710    0.7670    0.0000 C.3     1  LIG1        0.1064
      4 C           1.6710   -0.1750    0.0000 C.3     1  LIG1        0.1380
      5 C           0.6670   -0.1750    0.0000 C.2     1  LIG1        0.2456
      6 O           0.1170   -1.0380    0.0000 O.2     1  LIG1       -0.2732
      7 S           2.2250   -1.0380    0.0000 S.3     1  LIG1       -0.1047
      8 C           3.2250   -0.9380    0.0000 C.ar    1  LIG1        0.0267
      9 C           3.7920   -1.7540    0.0000 C.ar    1  LIG1        0.0197
     10 C           3.3750   -2.6580    0.0000 C.2     1  LIG1        0.0733
     11 O           3.9250   -3.4960    0.0000 O.co2   1  LIG1       -0.5446
     12 O           2.3750   -2.7920    0.0000 O.co2   1  LIG1       -0.5446
     13 C           4.8290   -1.6540    0.0000 C.ar    1  LIG1        0.0016
     14 C           5.2290   -0.7880    0.0000 C.ar    1  LIG1        0.0001
     15 C           4.6330    0.0500    0.0000 C.ar    1  LIG1        0.0005
     16 C           3.6750   -0.0330    0.0000 C.ar    1  LIG1        0.0062
     17 O           1.1670    2.3380    0.0000 O.2     1  LIG1       -0.2741
     18 C          -0.5580    1.1040    0.0000 C.ar    1  LIG1        0.0607
     19 C          -0.7330    2.0960    0.0000 C.ar    1  LIG1        0.0166
     20 C          -1.6750    2.4460    0.0000 C.ar    1  LIG1        0.0158
     21 C          -2.4380    1.8040    0.0000 C.ar    1  LIG1        0.0479
     22 N          -3.3670    2.1580    0.0000 N.pl3   1  LIG1       -0.3075
     23 C          -3.5290    3.1460    0.0000 C.3     1  LIG1        0.0908
     24 C          -4.4710    3.5000    0.0000 C.3     1  LIG1        0.0215
     25 C          -5.2330    2.8580    0.0000 C.3     1  LIG1        0.0035
     26 C          -5.0710    1.8790    0.0000 C.3     1  LIG1        0.0215
     27 C          -4.1460    1.5210    0.0000 C.3     1  LIG1        0.0908
     28 C          -2.2750    0.8210    0.0000 C.ar    1  LIG1        0.0158
     29 C          -1.3210    0.4500    0.0000 C.ar    1  LIG1        0.0166
@<TRIPOS>BOND
     1     1     2   am
     2     1     5   am
     3     1    18    1
     4     2     3    1
     5     2    17    2
     6     3     4    1
     7     4     5    1
     8     4     7    1
     9     5     6    2
    10     7     8    1
    11     8     9   ar
    12     8    16   ar
    13     9    10    1
    14     9    13   ar
    15    10    11   ar
    16    10    12   ar
    17    13    14   ar
    18    14    15   ar
    19    15    16   ar
    20    18    19   ar
    21    18    29   ar
    22    19    20   ar
    23    20    21   ar
    24    21    22    1
    25    21    28   ar
    26    22    23    1
    27    22    27    1
    28    23    24    1
    29    24    25    1
    30    25    26    1
    31    26    27    1
    32    28    29   ar
