@<TRIPOS>MOLECULE
30916_ChemDiv_4676-0747
 24 26 0 0 0
SMALL
GASTEIGER
Energy = 0

@<TRIPOS>ATOM
      1 N          -1.6540    0.5330    0.0000 N.am    1  LIG1       -0.2248
      2 C          -0.8420   -0.0080    0.0000 C.2     1  LIG1        0.2421
      3 C          -0.0210    0.6000    0.0000 C.3     1  LIG1        0.1391
      4 C          -0.3790    1.5210    0.0000 C.3     1  LIG1        0.1061
      5 C          -1.3580    1.5210    0.0000 C.2     1  LIG1        0.2330
      6 O          -1.9330    2.3290    0.0000 O.2     1  LIG1       -0.2744
      7 S           0.9380    0.3380    0.0000 S.3     1  LIG1       -0.0860
      8 C           1.6330    1.0460    0.0000 C.ar    1  LIG1        0.1082
      9 C           2.5960    0.8000    0.0000 C.ar    1  LIG1        0.0375
     10 C           2.8630   -0.1580    0.0000 C.2     1  LIG1        0.0748
     11 O           3.8250   -0.4290    0.0000 O.co2   1  LIG1       -0.5445
     12 O           2.1750   -0.8880    0.0000 O.co2   1  LIG1       -0.5445
     13 C           3.3250    1.5130    0.0000 C.ar    1  LIG1        0.0047
     14 C           3.0210    2.4830    0.0000 C.ar    1  LIG1        0.0208
     15 C           2.0540    2.7460    0.0000 C.ar    1  LIG1        0.0994
     16 N           1.3630    2.0130    0.0000 N.ar    1  LIG1       -0.2376
     17 O          -0.8420   -1.0170    0.0000 O.2     1  LIG1       -0.2735
     18 C          -2.5630    0.1960    0.0000 C.3     1  LIG1        0.1274
     19 C          -2.7170   -0.7750    0.0000 C.ar    1  LIG1       -0.0019
     20 C          -3.6580   -1.1210    0.0000 C.ar    1  LIG1       -0.0026
     21 C          -3.8290   -2.1210    0.0000 C.ar    1  LIG1       -0.0003
     22 C          -3.0420   -2.7420    0.0000 C.ar    1  LIG1       -0.0000
     23 C          -2.1130   -2.3920    0.0000 C.ar    1  LIG1       -0.0003
     24 C          -1.9330   -1.4040    0.0000 C.ar    1  LIG1       -0.0026
@<TRIPOS>BOND
     1     1     2   am
     2     1     5   am
     3     1    18    1
     4     2     3    1
     5     2    17    2
     6     3     4    1
     7     3     7    1
     8     4     5    1
     9     5     6    2
    10     7     8    1
    11     8     9   ar
    12     8    16   ar
    13     9    10    1
    14     9    13   ar
    15    10    11   ar
    16    10    12   ar
    17    13    14   ar
    18    14    15   ar
    19    15    16   ar
    20    18    19    1
    21    19    20   ar
    22    19    24   ar
    23    20    21   ar
    24    21    22   ar
    25    22    23   ar
    26    23    24   ar
