@<TRIPOS>MOLECULE
30911_ChemDiv_D011-1841
 31 36 0 0 0
SMALL
GASTEIGER
Energy = 0

@<TRIPOS>ATOM
      1 C           0.4500    2.1040    0.0000 C.ar    1  LIG1        0.1616
      2 C          -0.1420    2.9170    0.0000 C.ar    1  LIG1        0.1167
      3 N           0.2540    3.8210    0.0000 N.ar    1  LIG1       -0.2408
      4 C           1.2420    3.9420    0.0000 C.ar    1  LIG1        0.0990
      5 C           1.8460    3.1290    0.0000 C.ar    1  LIG1        0.1005
      6 N           1.4380    2.2080    0.0000 N.ar    1  LIG1       -0.2252
      7 C           2.8460    3.2330    0.0000 C.ar    1  LIG1        0.0207
      8 C           3.2420    4.1540    0.0000 C.ar    1  LIG1        0.0016
      9 C           2.6420    4.9670    0.0000 C.ar    1  LIG1        0.0016
     10 C           1.6500    4.8540    0.0000 C.ar    1  LIG1        0.0206
     11 C          -1.0960    2.5960    0.0000 C.ar    1  LIG1        0.0364
     12 C          -1.0880    1.5920    0.0000 C.ar    1  LIG1        0.0626
     13 N          -0.1330    1.2880    0.0000 N.ar    1  LIG1       -0.3114
     14 C           0.1830    0.3330    0.0000 C.3     1  LIG1        0.1093
     15 C          -0.4880   -0.4080    0.0000 C.3     1  LIG1        0.0465
     16 C          -0.1710   -1.3630    0.0000 C.3     1  LIG1        0.1035
     17 N          -0.8290   -2.1170    0.0000 N.am    1  LIG1       -0.2228
     18 C          -0.5670   -3.0750    0.0000 C.2     1  LIG1        0.2551
     19 C          -1.3880   -3.6250    0.0000 C.ar    1  LIG1        0.0584
     20 C          -2.1670   -3.0040    0.0000 C.ar    1  LIG1        0.0584
     21 C          -1.8330   -2.0670    0.0000 C.2     1  LIG1        0.2551
     22 O          -2.3790   -1.2380    0.0000 O.2     1  LIG1       -0.2695
     23 C          -3.0920   -3.3710    0.0000 C.ar    1  LIG1        0.0047
     24 C          -3.2460   -4.3500    0.0000 C.ar    1  LIG1        0.0001
     25 C          -2.4540   -4.9670    0.0000 C.ar    1  LIG1        0.0001
     26 C          -1.5380   -4.5960    0.0000 C.ar    1  LIG1        0.0047
     27 O           0.3790   -3.4250    0.0000 O.2     1  LIG1       -0.2695
     28 C          -1.9630    1.0830    0.0000 C.ar    1  LIG1        0.0173
     29 C          -2.8250    1.5920    0.0000 C.ar    1  LIG1        0.0015
     30 C          -2.8250    2.5830    0.0000 C.ar    1  LIG1        0.0001
     31 C          -1.9630    3.0920    0.0000 C.ar    1  LIG1        0.0030
@<TRIPOS>BOND
     1     1     2   ar
     2     1     6   ar
     3     1    13   ar
     4     2     3   ar
     5     2    11   ar
     6     3     4   ar
     7     4     5   ar
     8     4    10   ar
     9     5     6   ar
    10     5     7   ar
    11     7     8   ar
    12     8     9   ar
    13     9    10   ar
    14    11    12   ar
    15    11    31   ar
    16    12    13   ar
    17    12    28   ar
    18    13    14    1
    19    14    15    1
    20    15    16    1
    21    16    17    1
    22    17    18   am
    23    17    21   am
    24    18    19    1
    25    18    27    2
    26    19    20   ar
    27    19    26   ar
    28    20    21    1
    29    20    23   ar
    30    21    22    2
    31    23    24   ar
    32    24    25   ar
    33    25    26   ar
    34    28    29   ar
    35    29    30   ar
    36    30    31   ar
