@<TRIPOS>MOLECULE
30917_ChemDiv_C795-0731
 23 25 0 0 0
SMALL
GASTEIGER
Energy = 0

@<TRIPOS>ATOM
      1 C          -0.7960    1.5670    0.0000 C.ar    1  LIG1        0.2714
      2 C           0.0670    2.0630    0.0000 C.ar    1  LIG1        0.1250
      3 C           0.0670    3.0580    0.0000 C.ar    1  LIG1        0.0700
      4 N          -0.7960    3.5630    0.0000 N.ar    1  LIG1       -0.2319
      5 C          -1.6540    3.0580    0.0000 C.ar    1  LIG1        0.1496
      6 N          -1.6540    2.0630    0.0000 N.ar    1  LIG1       -0.2576
      7 C          -2.5210    1.5580    0.0000 C.ar    1  LIG1        0.0844
      8 C          -3.3920    2.0630    0.0000 C.ar    1  LIG1        0.0192
      9 C          -3.3920    3.0580    0.0000 C.ar    1  LIG1        0.0046
     10 C          -2.5210    3.5580    0.0000 C.ar    1  LIG1        0.0375
     11 C           0.9380    3.5580    0.0000 C.3     1  LIG1        0.0525
     12 C           0.9380    1.5580    0.0000 C.2     1  LIG1        0.2709
     13 N           0.9380    0.5540    0.0000 N.am    1  LIG1       -0.1966
     14 C           1.9000    0.3000    0.0000 C.3     1  LIG1        0.1418
     15 C           2.1630   -0.6670    0.0000 C.ar    1  LIG1       -0.0004
     16 C           3.1250   -0.9170    0.0000 C.ar    1  LIG1       -0.0002
     17 C           3.3880   -1.8750    0.0000 C.ar    1  LIG1        0.0294
     18 C           2.6750   -2.5920    0.0000 C.ar    1  LIG1        0.1401
     19 F           2.9330   -3.5580    0.0000 F       1  LIG1       -0.2042
     20 C           1.7040   -2.3380    0.0000 C.ar    1  LIG1        0.0294
     21 C           1.4500   -1.3710    0.0000 C.ar    1  LIG1       -0.0002
     22 O           1.8000    2.0630    0.0000 O.2     1  LIG1       -0.2681
     23 O          -0.7960    0.5630    0.0000 O.2     1  LIG1       -0.2664
@<TRIPOS>BOND
     1     1     2   ar
     2     1     6   ar
     3     1    23    2
     4     2     3   ar
     5     2    12    1
     6     3     4   ar
     7     3    11    1
     8     4     5   ar
     9     5     6   ar
    10     5    10   ar
    11     6     7   ar
    12     7     8   ar
    13     8     9   ar
    14     9    10   ar
    15    12    13   am
    16    12    22    2
    17    13    14    1
    18    14    15    1
    19    15    16   ar
    20    15    21   ar
    21    16    17   ar
    22    17    18   ar
    23    18    19    1
    24    18    20   ar
    25    20    21   ar
