@<TRIPOS>MOLECULE
30919_ChemDiv_C800-0050
 15 16 0 0 0
SMALL
GASTEIGER
Energy = 0

@<TRIPOS>ATOM
      1 C          -0.0080   -0.5080    0.0000 C.ar    1  LIG1        0.2680
      2 C           0.8670   -0.0130    0.0000 C.ar    1  LIG1        0.0841
      3 C           0.8670    0.9960    0.0000 C.ar    1  LIG1        0.0667
      4 N           0.0000    1.5080    0.0000 N.ar    1  LIG1       -0.2320
      5 C          -0.8670    0.9960    0.0000 C.ar    1  LIG1        0.1496
      6 N          -0.8790   -0.0130    0.0000 N.ar    1  LIG1       -0.2577
      7 C          -1.7380   -0.5000    0.0000 C.ar    1  LIG1        0.0844
      8 C          -2.6000    0.0000    0.0000 C.ar    1  LIG1        0.0192
      9 C          -2.6000    0.9960    0.0000 C.ar    1  LIG1        0.0046
     10 C          -1.7380    1.4960    0.0000 C.ar    1  LIG1        0.0375
     11 C           1.7330    1.4960    0.0000 C.3     1  LIG1        0.0523
     12 C           1.7290   -0.5130    0.0000 C.2     1  LIG1        0.0786
     13 O           2.5960   -0.0170    0.0000 O.co2   1  LIG1       -0.5444
     14 O           1.7290   -1.5040    0.0000 O.co2   1  LIG1       -0.5444
     15 O          -0.0080   -1.5040    0.0000 O.2     1  LIG1       -0.2665
@<TRIPOS>BOND
     1     1     2   ar
     2     1     6   ar
     3     1    15    2
     4     2     3   ar
     5     2    12    1
     6     3     4   ar
     7     3    11    1
     8     4     5   ar
     9     5     6   ar
    10     5    10   ar
    11     6     7   ar
    12     7     8   ar
    13     8     9   ar
    14     9    10   ar
    15    12    13   ar
    16    12    14   ar
