@<TRIPOS>MOLECULE
30928_ChemDiv_4687-0026
 19 21 0 0 0
SMALL
GASTEIGER
Energy = 0

@<TRIPOS>ATOM
      1 C           0.8580   -0.2500    0.0000 C.ar    1  LIG1        0.2850
      2 N          -0.0080   -0.7420    0.0000 N.ar    1  LIG1       -0.2027
      3 C          -0.8750   -0.2500    0.0000 C.ar    1  LIG1        0.1561
      4 C          -0.8750    0.7630    0.0000 C.ar    1  LIG1        0.3362
      5 N          -0.0080    1.2540    0.0000 N.ar    1  LIG1       -0.0411
      6 N           0.8580    0.7630    0.0000 N.ar    1  LIG1        0.0412
      7 C          -0.0080    2.2540    0.0000 C.3     1  LIG1        0.4374
      8 C          -1.7250   -0.7420    0.0000 C.ar    1  LIG1        0.0239
      9 C          -1.7250   -1.7540    0.0000 C.ar    1  LIG1        0.0017
     10 C          -2.5960   -2.2500    0.0000 C.ar    1  LIG1        0.0001
     11 C          -3.4580   -1.7540    0.0000 C.ar    1  LIG1        0.0000
     12 C          -3.4580   -0.7420    0.0000 C.ar    1  LIG1        0.0001
     13 C          -2.5960   -0.2500    0.0000 C.ar    1  LIG1        0.0017
     14 N           1.7210   -0.7420    0.0000 N.pl3   1  LIG1       -0.2686
     15 C           2.5880   -0.2500    0.0000 C.3     1  LIG1        0.1259
     16 C           3.4540   -0.7420    0.0000 C.3     1  LIG1        0.1637
     17 O           3.4540   -1.7540    0.0000 O.3     1  LIG1       -0.3501
     18 C           2.5710   -2.2500    0.0000 C.3     1  LIG1        0.1637
     19 C           1.7210   -1.7540    0.0000 C.3     1  LIG1        0.1259
@<TRIPOS>BOND
     1     1     2   ar
     2     1     6   ar
     3     1    14    1
     4     2     3   ar
     5     3     4   ar
     6     3     8    1
     7     4     5   ar
     8     5     6   ar
     9     5     7    1
    10     8     9   ar
    11     8    13   ar
    12     9    10   ar
    13    10    11   ar
    14    11    12   ar
    15    12    13   ar
    16    14    15    1
    17    14    19    1
    18    15    16    1
    19    16    17    1
    20    17    18    1
    21    18    19    1
