@<TRIPOS>MOLECULE
30920_ChemDiv_4680-0272
 26 30 0 0 0
SMALL
GASTEIGER
Energy = 0

@<TRIPOS>ATOM
      1 C          -1.1630   -0.1710    0.0000 C.ar    1  LIG1        0.1695
      2 N          -0.2960   -0.6710    0.0000 N.ar    1  LIG1       -0.1959
      3 N           0.4500   -0.0040    0.0000 N.ar    1  LIG1       -0.1252
      4 C           0.0420    0.9170    0.0000 C.ar    1  LIG1        0.2621
      5 N          -0.9580    0.8080    0.0000 N.ar    1  LIG1       -0.1917
      6 N           0.7380    1.6290    0.0000 N.am    1  LIG1       -0.1381
      7 C           1.7460    1.6290    0.0000 C.2     1  LIG1        0.2716
      8 C           2.2460    0.7790    0.0000 C.ar    1  LIG1        0.0571
      9 C           1.7460   -0.1000    0.0000 C.ar    1  LIG1        0.0259
     10 C           2.2460   -0.9580    0.0000 C.ar    1  LIG1        0.1090
     11 C           3.2380   -0.9580    0.0000 C.ar    1  LIG1        0.1088
     12 N           3.5540   -1.9040    0.0000 N.ar    1  LIG1       -0.1901
     13 S           2.7540   -2.4920    0.0000 S.2     1  LIG1        0.1165
     14 N           1.9460   -1.9040    0.0000 N.ar    1  LIG1       -0.1901
     15 C           3.7460   -0.0880    0.0000 C.ar    1  LIG1        0.0215
     16 C           3.2380    0.7790    0.0000 C.ar    1  LIG1        0.0062
     17 O           2.2460    2.4960    0.0000 O.2     1  LIG1       -0.2679
     18 C          -0.2960   -1.6790    0.0000 C.ar    1  LIG1        0.1427
     19 N          -1.1630   -2.1880    0.0000 N.ar    1  LIG1       -0.2305
     20 C          -2.0330   -1.6790    0.0000 C.ar    1  LIG1        0.0856
     21 C          -2.0330   -0.6710    0.0000 C.ar    1  LIG1        0.0536
     22 C          -2.8830   -0.1710    0.0000 C.ar    1  LIG1        0.0046
     23 C          -3.7500   -0.6790    0.0000 C.ar    1  LIG1        0.0002
     24 C          -3.7500   -1.6790    0.0000 C.ar    1  LIG1        0.0015
     25 C          -2.8830   -2.1880    0.0000 C.ar    1  LIG1        0.0192
     26 C           0.5540   -2.1880    0.0000 C.3     1  LIG1        0.0738
@<TRIPOS>BOND
     1     1     2   ar
     2     1     5   ar
     3     1    21   ar
     4     2     3   ar
     5     2    18   ar
     6     3     4   ar
     7     4     5   ar
     8     4     6    1
     9     6     7   am
    10     7     8    1
    11     7    17    2
    12     8     9   ar
    13     8    16   ar
    14     9    10   ar
    15    10    11   ar
    16    10    14   ar
    17    11    12   ar
    18    11    15   ar
    19    12    13   ar
    20    13    14   ar
    21    15    16   ar
    22    18    19   ar
    23    18    26    1
    24    19    20   ar
    25    20    21   ar
    26    20    25   ar
    27    21    22   ar
    28    22    23   ar
    29    23    24   ar
    30    24    25   ar
