@<TRIPOS>MOLECULE
30925_ChemDiv_K308-0006
 31 35 0 0 0
SMALL
GASTEIGER
Energy = 0

@<TRIPOS>ATOM
      1 N           2.1540    2.7540    0.0000 N.ar    1  LIG1       -0.2576
      2 C           3.0130    3.2670    0.0000 C.ar    1  LIG1        0.2672
      3 C           3.0130    4.2630    0.0000 C.ar    1  LIG1        0.0742
      4 C           2.1460    4.7580    0.0000 C.ar    1  LIG1        0.0875
      5 N           1.2750    4.2630    0.0000 N.ar    1  LIG1       -0.2277
      6 C           1.2830    3.2580    0.0000 C.ar    1  LIG1        0.1500
      7 C           0.4170    2.7540    0.0000 C.ar    1  LIG1        0.0376
      8 C           0.4210    1.7580    0.0000 C.ar    1  LIG1        0.0092
      9 C           1.2920    1.2580    0.0000 C.ar    1  LIG1        0.0728
     10 C           2.1540    1.7630    0.0000 C.ar    1  LIG1        0.0889
     11 C           1.2920    0.2500    0.0000 C.2     1  LIG1        0.2663
     12 O           2.1580   -0.2460    0.0000 O.2     1  LIG1       -0.2683
     13 N           0.4210   -0.2460    0.0000 N.am    1  LIG1       -0.1997
     14 C           0.4210   -1.2500    0.0000 C.3     1  LIG1        0.1387
     15 C          -0.4380   -1.7540    0.0000 C.3     1  LIG1        0.1356
     16 N          -0.4330   -2.7500    0.0000 N.pl3   1  LIG1       -0.2357
     17 C          -1.3040   -3.2540    0.0000 C.ar    1  LIG1        0.0654
     18 C          -1.3040   -4.2630    0.0000 C.ar    1  LIG1        0.0161
     19 C          -2.1630   -4.7580    0.0000 C.ar    1  LIG1        0.0013
     20 C          -3.0250   -4.2630    0.0000 C.ar    1  LIG1        0.0001
     21 C          -3.0250   -3.2630    0.0000 C.ar    1  LIG1        0.0013
     22 C          -2.1750   -2.7580    0.0000 C.ar    1  LIG1        0.0161
     23 C          -3.8790   -4.7630    0.0000 C.ar    1  LIG1        0.0000
     24 C          -3.8880   -5.7670    0.0000 C.ar    1  LIG1        0.0000
     25 C          -3.0080   -6.2580    0.0000 C.ar    1  LIG1        0.0000
     26 C          -2.1580   -5.7540    0.0000 C.ar    1  LIG1        0.0000
     27 C           2.1380    5.7540    0.0000 C.ar    1  LIG1        0.0193
     28 C           3.0080    6.2580    0.0000 C.ar    1  LIG1        0.0015
     29 C           3.8790    5.7670    0.0000 C.ar    1  LIG1        0.0003
     30 C           3.8790    4.7630    0.0000 C.ar    1  LIG1        0.0063
     31 O           3.8830    2.7710    0.0000 O.2     1  LIG1       -0.2665
@<TRIPOS>BOND
     1     1     2   ar
     2     1     6   ar
     3     1    10   ar
     4     2     3   ar
     5     2    31    2
     6     3     4   ar
     7     3    30   ar
     8     4     5   ar
     9     4    27   ar
    10     5     6   ar
    11     6     7   ar
    12     7     8   ar
    13     8     9   ar
    14     9    10   ar
    15     9    11    1
    16    11    12    2
    17    11    13   am
    18    13    14    1
    19    14    15    1
    20    15    16    1
    21    16    17    1
    22    17    18   ar
    23    17    22   ar
    24    18    19   ar
    25    19    20   ar
    26    19    26   ar
    27    20    21   ar
    28    20    23   ar
    29    21    22   ar
    30    23    24   ar
    31    24    25   ar
    32    25    26   ar
    33    27    28   ar
    34    28    29   ar
    35    29    30   ar
