@<TRIPOS>MOLECULE
30924_ChemDiv_4682-0115
 17 19 0 0 0
SMALL
GASTEIGER
Energy = 0

@<TRIPOS>ATOM
      1 N           0.9210    0.0710    0.0000 N.am    1  LIG1       -0.2746
      2 C           0.5130   -0.8630    0.0000 C.2     1  LIG1        0.2255
      3 C           1.3210   -0.2790    0.0000 C.3     1  LIG1        0.0794
      4 C           2.2250   -0.8630    0.0000 C.3     1  LIG1        0.0437
      5 C           2.5080    0.0920    0.0000 C.3     1  LIG1        0.1705
      6 C           1.7170    0.5380    0.0000 C.3     1  LIG1        0.1059
      7 C           1.7170    1.6290    0.0000 C.3     1  LIG1        0.0229
      8 C           1.3210    1.1080    0.0000 C.3     1  LIG1        0.0109
      9 O           2.6880   -0.8630    0.0000 O.3     1  LIG1       -0.2214
     10 O          -0.1250   -1.6250    0.0000 O.2     1  LIG1       -0.2749
     11 C           0.2750    0.8210    0.0000 C.3     1  LIG1        0.1201
     12 C          -0.7080    0.6420    0.0000 C.ar    1  LIG1       -0.0023
     13 C          -1.0500   -0.2960    0.0000 C.ar    1  LIG1       -0.0026
     14 C          -2.0460   -0.4710    0.0000 C.ar    1  LIG1       -0.0003
     15 C          -2.6920    0.2880    0.0000 C.ar    1  LIG1       -0.0000
     16 C          -2.3380    1.2250    0.0000 C.ar    1  LIG1       -0.0003
     17 C          -1.3670    1.4040    0.0000 C.ar    1  LIG1       -0.0026
@<TRIPOS>BOND
     1     1     2   am
     2     1     6    1
     3     1    11    1
     4     2     3    1
     5     2    10    2
     6     3     4    1
     7     3     8    1
     8     4     5    1
     9     5     6    1
    10     5     9    1
    11     6     7    1
    12     7     8    1
    13    11    12    1
    14    12    13   ar
    15    12    17   ar
    16    13    14   ar
    17    14    15   ar
    18    15    16   ar
    19    16    17   ar
