@<TRIPOS>MOLECULE
30923_ChemDiv_K306-0671
 33 38 0 0 0
SMALL
GASTEIGER
Energy = 0

@<TRIPOS>ATOM
      1 C          -0.4380    1.2580    0.0000 C.ar    1  LIG1        0.1543
      2 N          -0.4380    2.2580    0.0000 N.ar    1  LIG1       -0.2576
      3 C          -1.3000    2.7580    0.0000 C.ar    1  LIG1        0.2672
      4 C          -2.1710    2.2580    0.0000 C.ar    1  LIG1        0.0742
      5 C          -2.1710    1.2580    0.0000 C.ar    1  LIG1        0.0875
      6 N          -1.3000    0.7580    0.0000 N.ar    1  LIG1       -0.2276
      7 C          -3.0330    0.7580    0.0000 C.ar    1  LIG1        0.0193
      8 C          -3.8960    1.2580    0.0000 C.ar    1  LIG1        0.0015
      9 C          -3.8960    2.2580    0.0000 C.ar    1  LIG1        0.0002
     10 C          -3.0330    2.7580    0.0000 C.ar    1  LIG1        0.0063
     11 C          -4.7580    2.7580    0.0000 C.ar    1  LIG1        0.0000
     12 C          -5.6290    2.2580    0.0000 C.ar    1  LIG1        0.0000
     13 C          -5.6290    1.2580    0.0000 C.ar    1  LIG1        0.0000
     14 C          -4.7580    0.7580    0.0000 C.ar    1  LIG1        0.0000
     15 O          -1.3000    3.7540    0.0000 O.2     1  LIG1       -0.2665
     16 C           0.4250    2.7580    0.0000 C.ar    1  LIG1        0.0844
     17 C           1.2960    2.2580    0.0000 C.ar    1  LIG1        0.0194
     18 C           1.2960    1.2580    0.0000 C.ar    1  LIG1        0.0091
     19 C           0.4250    0.7580    0.0000 C.ar    1  LIG1        0.0881
     20 C           0.4250   -0.2420    0.0000 C.2     1  LIG1        0.2522
     21 N           1.2960   -0.7420    0.0000 N.am    1  LIG1       -0.2716
     22 C           1.2960   -1.7500    0.0000 C.3     1  LIG1        0.1199
     23 C           2.1580   -2.2500    0.0000 C.2     1  LIG1       -0.0089
     24 C           3.0290   -1.7500    0.0000 C.2     1  LIG1       -0.0231
     25 C           3.0290   -0.7420    0.0000 C.3     1  LIG1        0.0476
     26 C           2.1580   -0.2420    0.0000 C.3     1  LIG1        0.0987
     27 C           3.8920   -2.2500    0.0000 C.ar    1  LIG1       -0.0042
     28 C           3.8920   -3.2540    0.0000 C.ar    1  LIG1       -0.0003
     29 C           4.7540   -3.7500    0.0000 C.ar    1  LIG1       -0.0000
     30 C           5.6250   -3.2540    0.0000 C.ar    1  LIG1       -0.0000
     31 C           5.6250   -2.2500    0.0000 C.ar    1  LIG1       -0.0000
     32 C           4.7630   -1.7500    0.0000 C.ar    1  LIG1       -0.0003
     33 O          -0.4380   -0.7420    0.0000 O.2     1  LIG1       -0.2698
@<TRIPOS>BOND
     1     1     2   ar
     2     1     6   ar
     3     1    19   ar
     4     2     3   ar
     5     2    16   ar
     6     3     4   ar
     7     3    15    2
     8     4     5   ar
     9     4    10   ar
    10     5     6   ar
    11     5     7   ar
    12     7     8   ar
    13     8     9   ar
    14     8    14   ar
    15     9    10   ar
    16     9    11   ar
    17    11    12   ar
    18    12    13   ar
    19    13    14   ar
    20    16    17   ar
    21    17    18   ar
    22    18    19   ar
    23    19    20    1
    24    20    21   am
    25    20    33    2
    26    21    22    1
    27    21    26    1
    28    22    23    1
    29    23    24    2
    30    24    25    1
    31    24    27    1
    32    25    26    1
    33    27    28   ar
    34    27    32   ar
    35    28    29   ar
    36    29    30   ar
    37    30    31   ar
    38    31    32   ar
