@<TRIPOS>MOLECULE
30938_ChemDiv_4554-6148
 21 24 0 0 0
SMALL
GASTEIGER
Energy = 0

@<TRIPOS>ATOM
      1 N          -0.0170    0.5000    0.0000 N.ar    1  LIG1       -0.2270
      2 C          -0.0170   -0.5130    0.0000 C.ar    1  LIG1        0.1335
      3 N           0.8540   -1.0080    0.0000 N.ar    1  LIG1       -0.3115
      4 C           1.7210   -0.5130    0.0000 C.ar    1  LIG1        0.0656
      5 C           1.7330    0.5000    0.0000 C.ar    1  LIG1        0.0724
      6 C           0.8580    1.0040    0.0000 C.ar    1  LIG1        0.2694
      7 O           0.8580    1.9960    0.0000 O.2     1  LIG1       -0.2665
      8 C           2.5920    0.9880    0.0000 C.ar    1  LIG1        0.0062
      9 C           3.4630    0.4830    0.0000 C.ar    1  LIG1        0.0003
     10 C           3.4540   -0.5210    0.0000 C.ar    1  LIG1        0.0015
     11 C           2.5880   -1.0170    0.0000 C.ar    1  LIG1        0.0174
     12 C           0.8460   -2.0040    0.0000 C.3     1  LIG1        0.1319
     13 C          -0.8880   -1.0040    0.0000 C.ar    1  LIG1        0.0360
     14 C          -1.7500   -0.5040    0.0000 C.ar    1  LIG1        0.0075
     15 C          -1.7500    0.5000    0.0000 C.ar    1  LIG1        0.0567
     16 C          -0.8880    1.0130    0.0000 C.ar    1  LIG1        0.2680
     17 O          -0.8880    2.0080    0.0000 O.2     1  LIG1       -0.2665
     18 C          -2.6080    0.9960    0.0000 C.ar    1  LIG1        0.0047
     19 C          -3.4670    0.5000    0.0000 C.ar    1  LIG1        0.0002
     20 C          -3.4670   -0.4960    0.0000 C.ar    1  LIG1        0.0000
     21 C          -2.6080   -0.9920    0.0000 C.ar    1  LIG1        0.0002
@<TRIPOS>BOND
     1     1     2   ar
     2     1     6   ar
     3     1    16   ar
     4     2     3   ar
     5     2    13   ar
     6     3     4   ar
     7     3    12    1
     8     4     5   ar
     9     4    11   ar
    10     5     6   ar
    11     5     8   ar
    12     6     7    2
    13     8     9   ar
    14     9    10   ar
    15    10    11   ar
    16    13    14   ar
    17    14    15   ar
    18    14    21   ar
    19    15    16   ar
    20    15    18   ar
    21    16    17    2
    22    18    19   ar
    23    19    20   ar
    24    20    21   ar
