@<TRIPOS>MOLECULE
30933_ChemDiv_K786-2056
 22 22 0 0 0
SMALL
GASTEIGER
Energy = 0

@<TRIPOS>ATOM
      1 N          -2.2420   -0.5210    0.0000 N.am    1  LIG1       -0.2746
      2 C          -1.2420   -0.5210    0.0000 C.3     1  LIG1        0.1539
      3 C          -0.6580   -1.3210    0.0000 C.2     1  LIG1        0.2595
      4 O          -1.0580   -2.2420    0.0000 O.2     1  LIG1       -0.2716
      5 N           0.3420   -1.2250    0.0000 N.am    1  LIG1       -0.2038
      6 C           0.8250   -0.3500    0.0000 C.3     1  LIG1        0.1214
      7 C           1.8290   -0.3500    0.0000 C.3     1  LIG1        0.0861
      8 C           2.3250    0.5130    0.0000 C.3     1  LIG1        0.1404
      9 N           3.3170    0.5130    0.0000 N.4     1  LIG1        0.3773
     10 C           3.8170    1.3830    0.0000 C.3     1  LIG1        0.1385
     11 C           3.3170    2.2460    0.0000 C.3     1  LIG1        0.0627
     12 C           2.3250    2.2460    0.0000 C.3     1  LIG1        0.0063
     13 C           3.8170   -0.3460    0.0000 C.3     1  LIG1        0.1385
     14 C           3.3170   -1.2130    0.0000 C.3     1  LIG1        0.0627
     15 C           3.8250   -2.0670    0.0000 C.3     1  LIG1        0.0063
     16 C          -0.9330    0.4380    0.0000 C.3     1  LIG1        0.0388
     17 C          -1.7420    1.0290    0.0000 C.3     1  LIG1        0.0875
     18 C          -2.5540    0.4380    0.0000 C.2     1  LIG1        0.2260
     19 O          -3.5250    0.7000    0.0000 O.2     1  LIG1       -0.2749
     20 C          -2.8330   -1.3210    0.0000 C.3     1  LIG1        0.0758
     21 C          -3.8290   -1.2170    0.0000 C.3     1  LIG1        0.0215
     22 C          -2.4330   -2.2420    0.0000 C.3     1  LIG1        0.0215
@<TRIPOS>BOND
     1     1     2    1
     2     1    18   am
     3     1    20    1
     4     2     3    1
     5     2    16    1
     6     3     4    2
     7     3     5   am
     8     5     6    1
     9     6     7    1
    10     7     8    1
    11     8     9    1
    12     9    10    1
    13     9    13    1
    14    10    11    1
    15    11    12    1
    16    13    14    1
    17    14    15    1
    18    16    17    1
    19    17    18    1
    20    18    19    2
    21    20    21    1
    22    20    22    1
