@<TRIPOS>MOLECULE
30947_ChemDiv_4358-2976
 32 34 0 0 0
SMALL
GASTEIGER
Energy = 0

@<TRIPOS>ATOM
      1 S           4.3290   -0.3960    0.0000 S.O2    1  LIG1       -0.0559
      2 N           4.3460   -1.3790    0.0000 N.pl3   1  LIG1       -0.5039
      3 C           5.2170   -1.8880    0.0000 C.ar    1  LIG1        0.0700
      4 C           6.1250   -1.4790    0.0000 C.ar    1  LIG1        0.0095
      5 C           6.8080   -2.2040    0.0000 C.ar    1  LIG1        0.0951
      6 N           6.3080   -3.0750    0.0000 N.ar    1  LIG1       -0.0839
      7 O           5.3130   -2.8710    0.0000 O.2     1  LIG1       -0.3774
      8 C           7.7830   -2.0920    0.0000 C.3     1  LIG1        0.0553
      9 C           6.3250   -0.4960    0.0000 C.3     1  LIG1        0.0337
     10 C           3.4790    0.0960    0.0000 C.ar    1  LIG1        0.0894
     11 C           3.4630    1.1040    0.0000 C.ar    1  LIG1        0.0182
     12 C           2.5880    1.5880    0.0000 C.ar    1  LIG1        0.0179
     13 C           1.7250    1.0880    0.0000 C.ar    1  LIG1        0.0734
     14 N           0.8580    1.5880    0.0000 N.am    1  LIG1       -0.1792
     15 C          -0.0130    2.0880    0.0000 C.2     1  LIG1        0.2457
     16 O          -0.0130    3.0790    0.0000 O.2     1  LIG1       -0.2730
     17 C          -0.8790    1.5750    0.0000 C.3     1  LIG1        0.0910
     18 C          -1.7290    2.0750    0.0000 C.3     1  LIG1        0.0570
     19 C          -2.6040    1.5630    0.0000 C.3     1  LIG1        0.2059
     20 O          -3.4830    2.0750    0.0000 O.3     1  LIG1       -0.4754
     21 C          -4.3330    1.5500    0.0000 C.ar    1  LIG1        0.1385
     22 C          -5.1960    2.0580    0.0000 C.ar    1  LIG1        0.0366
     23 C          -6.0670    1.5500    0.0000 C.ar    1  LIG1       -0.0012
     24 C          -6.0670    0.5580    0.0000 C.ar    1  LIG1       -0.0220
     25 C          -5.1960    0.0500    0.0000 C.ar    1  LIG1       -0.0012
     26 C          -4.3330    0.5580    0.0000 C.ar    1  LIG1        0.0366
     27 C          -6.9290    0.0500    0.0000 C.3     1  LIG1        0.0264
     28 C          -7.7830    0.5580    0.0000 C.3     1  LIG1        0.0050
     29 C           1.7250    0.0920    0.0000 C.ar    1  LIG1        0.0179
     30 C           2.5880   -0.4080    0.0000 C.ar    1  LIG1        0.0182
     31 O           3.6330   -1.1170    0.0000 O.2     1  LIG1       -0.1841
     32 O           5.1920    0.1080    0.0000 O.2     1  LIG1       -0.1841
@<TRIPOS>BOND
     1     1     2    1
     2     1    10    1
     3     1    31    2
     4     1    32    2
     5     2     3    1
     6     3     4   ar
     7     3     7   ar
     8     4     5   ar
     9     4     9    1
    10     5     6   ar
    11     5     8    1
    12     6     7   ar
    13    10    11   ar
    14    10    30   ar
    15    11    12   ar
    16    12    13   ar
    17    13    14    1
    18    13    29   ar
    19    14    15   am
    20    15    16    2
    21    15    17    1
    22    17    18    1
    23    18    19    1
    24    19    20    1
    25    20    21    1
    26    21    22   ar
    27    21    26   ar
    28    22    23   ar
    29    23    24   ar
    30    24    25   ar
    31    24    27    1
    32    25    26   ar
    33    27    28    1
    34    29    30   ar
