@<TRIPOS>MOLECULE
30949_ChemDiv_4367-0671
 26 27 0 0 0
SMALL
GASTEIGER
Energy = 0

@<TRIPOS>ATOM
      1 S          -3.2130    1.1750    0.0000 S.O2    1  LIG1       -0.0568
      2 N          -4.2080    1.1750    0.0000 N.pl3   1  LIG1       -0.5179
      3 C          -4.7250    0.2790    0.0000 C.ar    1  LIG1        0.0161
      4 N          -5.7290    0.3040    0.0000 N.ar    1  LIG1       -0.1014
      5 O          -6.0170   -0.6380    0.0000 O.2     1  LIG1       -0.3596
      6 C          -5.2170   -1.2130    0.0000 C.ar    1  LIG1        0.1529
      7 C          -4.4080   -0.6380    0.0000 C.ar    1  LIG1        0.0338
      8 C          -5.2170   -2.2040    0.0000 C.3     1  LIG1        0.0753
      9 C          -2.1960    1.1630    0.0000 C.ar    1  LIG1        0.0894
     10 C          -1.6880    2.0500    0.0000 C.ar    1  LIG1        0.0182
     11 C          -0.7040    2.0540    0.0000 C.ar    1  LIG1        0.0179
     12 C          -0.2130    1.2080    0.0000 C.ar    1  LIG1        0.0734
     13 N           0.7750    1.2080    0.0000 N.am    1  LIG1       -0.1792
     14 C           1.3170    0.3750    0.0000 C.2     1  LIG1        0.2461
     15 O           0.8580   -0.5250    0.0000 O.2     1  LIG1       -0.2730
     16 C           2.3250    0.3920    0.0000 C.3     1  LIG1        0.0988
     17 C           2.8960   -0.4130    0.0000 C.3     1  LIG1        0.1192
     18 C           3.8710   -0.3710    0.0000 C.2     1  LIG1        0.3175
     19 O           4.3540    0.5040    0.0000 O.2     1  LIG1       -0.2501
     20 O           4.4290   -1.2130    0.0000 O.3     1  LIG1       -0.4485
     21 C           5.4420   -1.1710    0.0000 C.3     1  LIG1        0.2086
     22 C           6.0170   -2.0170    0.0000 C.3     1  LIG1        0.0513
     23 C          -0.7040    0.3330    0.0000 C.ar    1  LIG1        0.0179
     24 C          -1.7170    0.3170    0.0000 C.ar    1  LIG1        0.0182
     25 O          -3.2130    2.2080    0.0000 O.2     1  LIG1       -0.1841
     26 O          -3.2130    0.1630    0.0000 O.2     1  LIG1       -0.1841
@<TRIPOS>BOND
     1     1     2    1
     2     1     9    1
     3     1    25    2
     4     1    26    2
     5     2     3    1
     6     3     4   ar
     7     3     7   ar
     8     4     5   ar
     9     5     6   ar
    10     6     7   ar
    11     6     8    1
    12     9    10   ar
    13     9    24   ar
    14    10    11   ar
    15    11    12   ar
    16    12    13    1
    17    12    23   ar
    18    13    14   am
    19    14    15    2
    20    14    16    1
    21    16    17    1
    22    17    18    1
    23    18    19    2
    24    18    20    1
    25    20    21    1
    26    21    22    1
    27    23    24   ar
