@<TRIPOS>MOLECULE
30940_ChemDiv_4861-0017
 19 21 0 0 0
SMALL
GASTEIGER
Energy = 0

@<TRIPOS>ATOM
      1 C          -0.6540    0.7670    0.0000 C.ar    1  LIG1        0.0927
      2 C          -0.6540   -0.2420    0.0000 C.ar    1  LIG1        0.0873
      3 N          -1.5250   -0.7330    0.0000 N.ar    1  LIG1       -0.2776
      4 C          -2.3920   -0.2210    0.0000 C.ar    1  LIG1        0.3339
      5 N          -2.3920    0.7670    0.0000 N.ar    1  LIG1       -0.2467
      6 C          -1.5250    1.2630    0.0000 C.ar    1  LIG1        0.2672
      7 O          -1.5250    2.2750    0.0000 O.2     1  LIG1       -0.2667
      8 C          -3.2790    1.2420    0.0000 C.3     1  LIG1        0.1382
      9 O          -3.2790   -0.7130    0.0000 O.2     1  LIG1       -0.2462
     10 C          -1.5250   -1.7210    0.0000 C.3     1  LIG1        0.1351
     11 C           0.2960   -0.5380    0.0000 C.ar    1  LIG1        0.0949
     12 N           0.8670    0.2750    0.0000 N.ar    1  LIG1       -0.2272
     13 C           0.2960    1.0880    0.0000 C.ar    1  LIG1        0.1066
     14 N           1.8540    0.1540    0.0000 N.ar    1  LIG1       -0.1695
     15 C           2.2710   -0.7500    0.0000 C.ar    1  LIG1        0.0791
     16 C           1.6960   -1.5420    0.0000 C.ar    1  LIG1        0.0137
     17 C           0.7080   -1.4420    0.0000 C.ar    1  LIG1       -0.0015
     18 C           0.1170   -2.2710    0.0000 C.3     1  LIG1        0.0327
     19 C           3.2750   -0.8710    0.0000 C.3     1  LIG1        0.0539
@<TRIPOS>BOND
     1     1     2   ar
     2     1     6   ar
     3     1    13   ar
     4     2     3   ar
     5     2    11   ar
     6     3     4   ar
     7     3    10    1
     8     4     5   ar
     9     4     9    2
    10     5     6   ar
    11     5     8    1
    12     6     7    2
    13    11    12   ar
    14    11    17   ar
    15    12    13   ar
    16    12    14   ar
    17    14    15   ar
    18    15    16   ar
    19    15    19    1
    20    16    17   ar
    21    17    18    1
