@<TRIPOS>MOLECULE
30944_ChemDiv_6401-0034
 30 34 0 0 0
SMALL
GASTEIGER
Energy = 0

@<TRIPOS>ATOM
      1 C          -0.9750   -0.6420    0.0000 C.ar    1  LIG1        0.0897
      2 C          -0.9750   -1.6420    0.0000 C.ar    1  LIG1        0.0871
      3 C          -0.0290   -1.9540    0.0000 C.ar    1  LIG1        0.0938
      4 N           0.5580   -1.1420    0.0000 N.ar    1  LIG1       -0.3024
      5 C          -0.0210   -0.3330    0.0000 C.ar    1  LIG1        0.0701
      6 C           0.2880    0.6170    0.0000 C.ar    1  LIG1        0.0165
      7 C           1.2710    0.8170    0.0000 C.ar    1  LIG1        0.0046
      8 C           1.5750    1.7670    0.0000 C.ar    1  LIG1        0.0369
      9 C           0.9080    2.5130    0.0000 C.ar    1  LIG1        0.1387
     10 C          -0.0750    2.3000    0.0000 C.ar    1  LIG1        0.0369
     11 C          -0.3790    1.3580    0.0000 C.ar    1  LIG1        0.0046
     12 O           1.2130    3.4580    0.0000 O.3     1  LIG1       -0.4714
     13 C           2.1960    3.6710    0.0000 C.3     1  LIG1        0.2525
     14 C           1.5580   -1.2460    0.0000 C.ar    1  LIG1        0.0817
     15 C           1.9670   -2.1710    0.0000 C.ar    1  LIG1        0.0970
     16 N           1.3790   -2.9710    0.0000 N.ar    1  LIG1       -0.2467
     17 C           0.3790   -2.8670    0.0000 C.ar    1  LIG1        0.0768
     18 C          -0.2130   -3.6670    0.0000 C.3     1  LIG1        0.0537
     19 C           2.9630   -2.2750    0.0000 C.ar    1  LIG1        0.0206
     20 C           3.5580   -1.4670    0.0000 C.ar    1  LIG1        0.0016
     21 C           3.1580   -0.5460    0.0000 C.ar    1  LIG1        0.0016
     22 C           2.1500   -0.4290    0.0000 C.ar    1  LIG1        0.0190
     23 N          -1.8380   -2.1380    0.0000 N.ar    1  LIG1       -0.2776
     24 C          -2.6920   -1.6420    0.0000 C.ar    1  LIG1        0.3339
     25 N          -2.6920   -0.6420    0.0000 N.ar    1  LIG1       -0.2467
     26 C          -1.8380   -0.1420    0.0000 C.ar    1  LIG1        0.2671
     27 O          -1.8380    0.8580    0.0000 O.2     1  LIG1       -0.2667
     28 C          -3.5630   -0.1420    0.0000 C.3     1  LIG1        0.1382
     29 O          -3.5630   -2.1380    0.0000 O.2     1  LIG1       -0.2462
     30 C          -1.8380   -3.1380    0.0000 C.3     1  LIG1        0.1351
@<TRIPOS>BOND
     1     1     2   ar
     2     1     5   ar
     3     1    26   ar
     4     2     3   ar
     5     2    23   ar
     6     3     4   ar
     7     3    17   ar
     8     4     5   ar
     9     4    14   ar
    10     5     6    1
    11     6     7   ar
    12     6    11   ar
    13     7     8   ar
    14     8     9   ar
    15     9    10   ar
    16     9    12    1
    17    10    11   ar
    18    12    13    1
    19    14    15   ar
    20    14    22   ar
    21    15    16   ar
    22    15    19   ar
    23    16    17   ar
    24    17    18    1
    25    19    20   ar
    26    20    21   ar
    27    21    22   ar
    28    23    24   ar
    29    23    30    1
    30    24    25   ar
    31    24    29    2
    32    25    26   ar
    33    25    28    1
    34    26    27    2
