@<TRIPOS>MOLECULE
30954_ChemDiv_4696-1395
 32 36 0 0 0
SMALL
GASTEIGER
Energy = 0

@<TRIPOS>ATOM
      1 C          -0.8790   -0.1880    0.0000 C.ar    1  LIG1        0.0829
      2 N          -1.7330   -0.6880    0.0000 N.ar    1  LIG1       -0.2422
      3 C          -2.5920   -0.1880    0.0000 C.ar    1  LIG1        0.1157
      4 C          -3.4750   -0.6880    0.0000 C.ar    1  LIG1        0.1624
      5 O          -3.5670   -1.6830    0.0000 O.2     1  LIG1       -0.4562
      6 C          -4.5540   -1.9040    0.0000 C.ar    1  LIG1        0.1234
      7 C          -5.0540   -1.0170    0.0000 C.ar    1  LIG1        0.0361
      8 C          -4.3880   -0.2710    0.0000 C.ar    1  LIG1        0.0418
      9 C          -4.9500   -2.8170    0.0000 C.3     1  LIG1        0.0725
     10 C          -2.5920    0.8080    0.0000 C.ar    1  LIG1        0.0234
     11 C          -1.7330    1.3080    0.0000 C.ar    1  LIG1        0.0170
     12 C          -0.8790    0.8080    0.0000 C.ar    1  LIG1        0.0189
     13 C           0.0040    1.3080    0.0000 C.ar    1  LIG1        0.0031
     14 C           0.8630    0.8080    0.0000 C.ar    1  LIG1        0.0189
     15 C           0.8630   -0.1880    0.0000 C.ar    1  LIG1        0.0829
     16 N           1.7500   -0.6880    0.0000 N.ar    1  LIG1       -0.2422
     17 C           2.5880   -0.1880    0.0000 C.ar    1  LIG1        0.1157
     18 C           3.4710   -0.6880    0.0000 C.ar    1  LIG1        0.1624
     19 O           3.5750   -1.6830    0.0000 O.2     1  LIG1       -0.4562
     20 C           4.5500   -1.9040    0.0000 C.ar    1  LIG1        0.1234
     21 C           5.0500   -1.0170    0.0000 C.ar    1  LIG1        0.0361
     22 C           4.3710   -0.2710    0.0000 C.ar    1  LIG1        0.0418
     23 C           4.9330   -2.7960    0.0000 C.3     1  LIG1        0.0725
     24 C           2.5880    0.8080    0.0000 C.ar    1  LIG1        0.0234
     25 C           1.7500    1.3250    0.0000 C.ar    1  LIG1        0.0170
     26 C           1.7500    2.3250    0.0000 C.2     1  LIG1        0.0730
     27 O           0.8630    2.8210    0.0000 O.co2   1  LIG1       -0.5446
     28 O           2.5880    2.8210    0.0000 O.co2   1  LIG1       -0.5446
     29 C           0.0040   -0.6880    0.0000 C.ar    1  LIG1        0.0382
     30 C          -1.7330    2.3040    0.0000 C.2     1  LIG1        0.0730
     31 O          -2.5920    2.8210    0.0000 O.co2   1  LIG1       -0.5446
     32 O          -0.8580    2.8000    0.0000 O.co2   1  LIG1       -0.5446
@<TRIPOS>BOND
     1     1     2   ar
     2     1    12   ar
     3     1    29   ar
     4     2     3   ar
     5     3     4    1
     6     3    10   ar
     7     4     5   ar
     8     4     8   ar
     9     5     6   ar
    10     6     7   ar
    11     6     9    1
    12     7     8   ar
    13    10    11   ar
    14    11    12   ar
    15    11    30    1
    16    12    13   ar
    17    13    14   ar
    18    14    15   ar
    19    14    25   ar
    20    15    16   ar
    21    15    29   ar
    22    16    17   ar
    23    17    18    1
    24    17    24   ar
    25    18    19   ar
    26    18    22   ar
    27    19    20   ar
    28    20    21   ar
    29    20    23    1
    30    21    22   ar
    31    24    25   ar
    32    25    26    1
    33    26    27   ar
    34    26    28   ar
    35    30    31   ar
    36    30    32   ar
