@<TRIPOS>MOLECULE
30956_ChemDiv_4701-0087
 28 31 0 0 0
SMALL
GASTEIGER
Energy = 0

@<TRIPOS>ATOM
      1 C           0.8460    2.0170    0.0000 C.ar    1  LIG1        0.0529
      2 C           0.8460    1.0250    0.0000 C.ar    1  LIG1        0.1967
      3 C          -0.0130    0.5210    0.0000 C.ar    1  LIG1        0.0421
      4 C          -0.0130   -0.5080    0.0000 C.ar    1  LIG1        0.0421
      5 C           0.8460   -0.9880    0.0000 C.ar    1  LIG1        0.1967
      6 C           0.8460   -2.0080    0.0000 C.ar    1  LIG1        0.0529
      7 C          -0.0130   -2.4880    0.0000 C.ar    1  LIG1        0.0043
      8 C          -0.8790   -2.0080    0.0000 C.ar    1  LIG1        0.0002
      9 C          -0.8790   -0.9880    0.0000 C.ar    1  LIG1        0.0032
     10 C          -1.7380   -0.5080    0.0000 C.ar    1  LIG1        0.0001
     11 C          -2.6080   -0.9880    0.0000 C.ar    1  LIG1        0.0000
     12 C          -2.6080   -2.0080    0.0000 C.ar    1  LIG1        0.0000
     13 C          -1.7380   -2.4880    0.0000 C.ar    1  LIG1        0.0000
     14 C           1.7040   -2.5130    0.0000 C.2     1  LIG1        0.0760
     15 O           2.6040   -2.0330    0.0000 O.co2   1  LIG1       -0.5445
     16 O           1.6790   -3.5130    0.0000 O.co2   1  LIG1       -0.5445
     17 O           1.7040   -0.4750    0.0000 O.3     1  LIG1       -0.2865
     18 C          -0.8790    1.0250    0.0000 C.ar    1  LIG1        0.0032
     19 C          -0.8790    2.0170    0.0000 C.ar    1  LIG1        0.0002
     20 C          -0.0130    2.5250    0.0000 C.ar    1  LIG1        0.0043
     21 C          -1.7380    2.5250    0.0000 C.ar    1  LIG1        0.0000
     22 C          -2.6080    2.0170    0.0000 C.ar    1  LIG1        0.0000
     23 C          -2.6080    1.0250    0.0000 C.ar    1  LIG1        0.0000
     24 C          -1.7380    0.5210    0.0000 C.ar    1  LIG1        0.0001
     25 O           1.7040    0.4830    0.0000 O.3     1  LIG1       -0.2865
     26 C           1.7040    2.5250    0.0000 C.2     1  LIG1        0.0760
     27 O           1.7040    3.5170    0.0000 O.co2   1  LIG1       -0.5445
     28 O           2.6040    2.0460    0.0000 O.co2   1  LIG1       -0.5445
@<TRIPOS>BOND
     1     1     2   ar
     2     1    20   ar
     3     1    26    1
     4     2     3   ar
     5     2    25    1
     6     3     4    1
     7     3    18   ar
     8     4     5   ar
     9     4     9   ar
    10     5     6   ar
    11     5    17    1
    12     6     7   ar
    13     6    14    1
    14     7     8   ar
    15     8     9   ar
    16     8    13   ar
    17     9    10   ar
    18    10    11   ar
    19    11    12   ar
    20    12    13   ar
    21    14    15   ar
    22    14    16   ar
    23    18    19   ar
    24    18    24   ar
    25    19    20   ar
    26    19    21   ar
    27    21    22   ar
    28    22    23   ar
    29    23    24   ar
    30    26    27   ar
    31    26    28   ar
