@<TRIPOS>MOLECULE
30958_ChemDiv_4707-0041
 24 25 0 0 0
SMALL
GASTEIGER
Energy = 0

@<TRIPOS>ATOM
      1 C          -1.8920    2.3040    0.0000 C.ar    1  LIG1        0.1212
      2 S          -1.2710    1.5000    0.0000 S.2     1  LIG1       -0.0436
      3 C          -0.3380    1.9080    0.0000 C.ar    1  LIG1        0.1857
      4 N          -0.3540    2.8750    0.0000 N.ar    1  LIG1       -0.2267
      5 C          -1.3710    3.1540    0.0000 C.ar    1  LIG1        0.0736
      6 C          -1.7630    4.0670    0.0000 C.3     1  LIG1        0.0529
      7 N           0.5290    1.4080    0.0000 N.am    1  LIG1       -0.1535
      8 C           0.5290    0.4380    0.0000 C.2     1  LIG1        0.2587
      9 O          -0.3380   -0.0710    0.0000 O.2     1  LIG1       -0.2720
     10 C           1.3830   -0.0710    0.0000 C.3     1  LIG1        0.1520
     11 S           1.3830   -1.0790    0.0000 S.3     1  LIG1       -0.0657
     12 C           2.2420   -1.5790    0.0000 C.ar    1  LIG1        0.1929
     13 N           2.2420   -2.5750    0.0000 N.ar    1  LIG1       -0.2028
     14 C           3.1130   -3.0670    0.0000 C.ar    1  LIG1        0.1747
     15 C           3.9830   -2.5880    0.0000 C.ar    1  LIG1        0.0753
     16 C           3.9670   -1.5790    0.0000 C.ar    1  LIG1        0.1747
     17 N           3.1130   -1.0960    0.0000 N.ar    1  LIG1       -0.2028
     18 N           4.8210   -1.0540    0.0000 N.pl3   1  LIG1       -0.1070
     19 N           3.0960   -4.0670    0.0000 N.pl3   1  LIG1       -0.1070
     20 C          -2.9080    2.2710    0.0000 C.2     1  LIG1        0.3486
     21 O          -3.3710    1.3710    0.0000 O.2     1  LIG1       -0.2443
     22 O          -3.3500    3.1380    0.0000 O.3     1  LIG1       -0.4451
     23 C          -4.3540    3.1830    0.0000 C.3     1  LIG1        0.2089
     24 C          -4.8250    4.0500    0.0000 C.3     1  LIG1        0.0513
@<TRIPOS>BOND
     1     1     2   ar
     2     1     5   ar
     3     1    20    1
     4     2     3   ar
     5     3     4   ar
     6     3     7    1
     7     4     5   ar
     8     5     6    1
     9     7     8   am
    10     8     9    2
    11     8    10    1
    12    10    11    1
    13    11    12    1
    14    12    13   ar
    15    12    17   ar
    16    13    14   ar
    17    14    15   ar
    18    14    19    1
    19    15    16   ar
    20    16    17   ar
    21    16    18    1
    22    20    21    2
    23    20    22    1
    24    22    23    1
    25    23    24    1
