@<TRIPOS>MOLECULE
30953_ChemDiv_6049-1646
 29 32 0 0 0
SMALL
GASTEIGER
Energy = 0

@<TRIPOS>ATOM
      1 S          -2.2460    0.7580    0.0000 S.O2    1  LIG1       -0.0559
      2 N          -3.1000    1.2540    0.0000 N.pl3   1  LIG1       -0.5039
      3 C          -3.9580    0.7670    0.0000 C.ar    1  LIG1        0.0700
      4 C          -4.8960    1.1580    0.0000 C.ar    1  LIG1        0.0095
      5 C          -5.5710    0.4000    0.0000 C.ar    1  LIG1        0.0951
      6 N          -5.0420   -0.4540    0.0000 N.ar    1  LIG1       -0.0839
      7 O          -4.0420   -0.2170    0.0000 O.2     1  LIG1       -0.3774
      8 C          -6.5580    0.4710    0.0000 C.3     1  LIG1        0.0553
      9 C          -5.1420    2.1210    0.0000 C.3     1  LIG1        0.0337
     10 C          -1.3830    0.2540    0.0000 C.ar    1  LIG1        0.0894
     11 C          -0.5130    0.7670    0.0000 C.ar    1  LIG1        0.0182
     12 C           0.3380    0.2540    0.0000 C.ar    1  LIG1        0.0179
     13 C           0.3460   -0.7380    0.0000 C.ar    1  LIG1        0.0734
     14 N           1.2250   -1.2630    0.0000 N.am    1  LIG1       -0.1792
     15 C           2.0880   -0.7540    0.0000 C.2     1  LIG1        0.2454
     16 C           2.9670   -1.2540    0.0000 C.3     1  LIG1        0.0829
     17 C           3.9630   -1.2540    0.0000 C.3     1  LIG1        0.0315
     18 C           3.4750   -2.1170    0.0000 C.3     1  LIG1        0.0143
     19 C           4.8250   -0.7540    0.0000 C.ar    1  LIG1       -0.0220
     20 C           4.8250    0.2380    0.0000 C.ar    1  LIG1       -0.0043
     21 C           5.6880    0.7250    0.0000 C.ar    1  LIG1       -0.0003
     22 C           6.5580    0.2130    0.0000 C.ar    1  LIG1       -0.0000
     23 C           6.5580   -0.7380    0.0000 C.ar    1  LIG1       -0.0003
     24 C           5.6880   -1.2540    0.0000 C.ar    1  LIG1       -0.0043
     25 O           2.0880    0.2380    0.0000 O.2     1  LIG1       -0.2730
     26 C          -0.5380   -1.2460    0.0000 C.ar    1  LIG1        0.0179
     27 C          -1.3920   -0.7330    0.0000 C.ar    1  LIG1        0.0182
     28 O          -2.7540   -0.1210    0.0000 O.2     1  LIG1       -0.1841
     29 O          -1.7380    1.6380    0.0000 O.2     1  LIG1       -0.1841
@<TRIPOS>BOND
     1     1     2    1
     2     1    10    1
     3     1    28    2
     4     1    29    2
     5     2     3    1
     6     3     4   ar
     7     3     7   ar
     8     4     5   ar
     9     4     9    1
    10     5     6   ar
    11     5     8    1
    12     6     7   ar
    13    10    11   ar
    14    10    27   ar
    15    11    12   ar
    16    12    13   ar
    17    13    14    1
    18    13    26   ar
    19    14    15   am
    20    15    16    1
    21    15    25    2
    22    16    17    1
    23    16    18    1
    24    17    18    1
    25    17    19    1
    26    19    20   ar
    27    19    24   ar
    28    20    21   ar
    29    21    22   ar
    30    22    23   ar
    31    23    24   ar
    32    26    27   ar
