@<TRIPOS>MOLECULE
30955_ChemDiv_6049-1671
 30 34 0 0 0
SMALL
GASTEIGER
Energy = 0

@<TRIPOS>ATOM
      1 S          -1.5040    1.4630    0.0000 S.O2    1  LIG1       -0.0559
      2 N          -2.3500    1.9750    0.0000 N.pl3   1  LIG1       -0.5039
      3 C          -3.2170    1.4960    0.0000 C.ar    1  LIG1        0.0700
      4 C          -4.1580    1.8880    0.0000 C.ar    1  LIG1        0.0095
      5 C          -4.8420    1.1330    0.0000 C.ar    1  LIG1        0.0951
      6 N          -4.3170    0.2750    0.0000 N.ar    1  LIG1       -0.0839
      7 O          -3.3170    0.5040    0.0000 O.2     1  LIG1       -0.3774
      8 C          -5.8460    1.2210    0.0000 C.3     1  LIG1        0.0553
      9 C          -4.3960    2.8630    0.0000 C.3     1  LIG1        0.0337
     10 C          -0.6330    0.9460    0.0000 C.ar    1  LIG1        0.0894
     11 C           0.2420    1.4540    0.0000 C.ar    1  LIG1        0.0182
     12 C           1.1000    0.9420    0.0000 C.ar    1  LIG1        0.0179
     13 C           1.1000   -0.0920    0.0000 C.ar    1  LIG1        0.0734
     14 N           1.9790   -0.5960    0.0000 N.am    1  LIG1       -0.1792
     15 C           2.8580   -0.1000    0.0000 C.2     1  LIG1        0.2446
     16 C           3.7630   -0.5960    0.0000 C.3     1  LIG1        0.0708
     17 C           3.7630   -1.6250    0.0000 C.3     1  LIG1        0.0087
     18 C           4.6210   -2.1130    0.0000 C.3     1  LIG1        0.0005
     19 C           4.9330   -2.8630    0.0000 C.3     1  LIG1        0.0000
     20 C           5.0420   -2.0750    0.0000 C.3     1  LIG1        0.0005
     21 C           4.0750   -1.5630    0.0000 C.3     1  LIG1        0.0087
     22 C           5.8420   -1.6420    0.0000 C.3     1  LIG1        0.0000
     23 C           5.5000   -0.5960    0.0000 C.3     1  LIG1        0.0005
     24 C           4.6210   -0.1000    0.0000 C.3     1  LIG1        0.0087
     25 C           5.5000   -1.6250    0.0000 C.3     1  LIG1        0.0000
     26 O           2.8580    0.9130    0.0000 O.2     1  LIG1       -0.2730
     27 C           0.2170   -0.5670    0.0000 C.ar    1  LIG1        0.0179
     28 C          -0.6630   -0.0630    0.0000 C.ar    1  LIG1        0.0182
     29 O          -2.0170    0.5920    0.0000 O.2     1  LIG1       -0.1841
     30 O          -0.9750    2.3290    0.0000 O.2     1  LIG1       -0.1841
@<TRIPOS>BOND
     1     1     2    1
     2     1    10    1
     3     1    29    2
     4     1    30    2
     5     2     3    1
     6     3     4   ar
     7     3     7   ar
     8     4     5   ar
     9     4     9    1
    10     5     6   ar
    11     5     8    1
    12     6     7   ar
    13    10    11   ar
    14    10    28   ar
    15    11    12   ar
    16    12    13   ar
    17    13    14    1
    18    13    27   ar
    19    14    15   am
    20    15    16    1
    21    15    26    2
    22    16    17    1
    23    16    21    1
    24    16    24    1
    25    17    18    1
    26    18    19    1
    27    18    25    1
    28    19    20    1
    29    20    21    1
    30    20    22    1
    31    22    23    1
    32    23    24    1
    33    23    25    1
    34    27    28   ar
