@<TRIPOS>MOLECULE
30966_ChemDiv_8015-2952
 21 24 0 0 0
SMALL
GASTEIGER
Energy = 0

@<TRIPOS>ATOM
      1 C          -0.2540   -0.1040    0.0000 C.ar    1  LIG1        0.0897
      2 C          -0.7580   -0.9710    0.0000 C.ar    1  LIG1        0.0874
      3 N          -1.7540   -0.9630    0.0000 N.ar    1  LIG1       -0.2776
      4 C          -2.2540   -0.0960    0.0000 C.ar    1  LIG1        0.3339
      5 N          -1.7500    0.7710    0.0000 N.ar    1  LIG1       -0.2467
      6 C          -0.7460    0.7710    0.0000 C.ar    1  LIG1        0.2671
      7 O          -0.2420    1.6330    0.0000 O.2     1  LIG1       -0.2667
      8 C          -2.2500    1.6330    0.0000 C.3     1  LIG1        0.1382
      9 O          -3.2580   -0.0960    0.0000 O.2     1  LIG1       -0.2462
     10 C          -2.2630   -1.8290    0.0000 C.3     1  LIG1        0.1351
     11 C          -0.0960   -1.7210    0.0000 C.ar    1  LIG1        0.0978
     12 N           0.8210   -1.3130    0.0000 N.ar    1  LIG1       -0.3022
     13 C           0.7290   -0.3170    0.0000 C.ar    1  LIG1        0.0701
     14 C           1.5330    0.2630    0.0000 C.ar    1  LIG1        0.0164
     15 C           2.4420   -0.1500    0.0000 C.ar    1  LIG1        0.0029
     16 C           2.5460   -1.1460    0.0000 C.ar    1  LIG1        0.0190
     17 C           1.7330   -1.7290    0.0000 C.ar    1  LIG1        0.0801
     18 C           3.2540    0.4290    0.0000 C.ar    1  LIG1        0.0001
     19 C           3.1540    1.4210    0.0000 C.ar    1  LIG1        0.0000
     20 C           2.2420    1.8330    0.0000 C.ar    1  LIG1        0.0000
     21 C           1.4330    1.2540    0.0000 C.ar    1  LIG1        0.0014
@<TRIPOS>BOND
     1     1     2   ar
     2     1     6   ar
     3     1    13   ar
     4     2     3   ar
     5     2    11   ar
     6     3     4   ar
     7     3    10    1
     8     4     5   ar
     9     4     9    2
    10     5     6   ar
    11     5     8    1
    12     6     7    2
    13    11    12   ar
    14    12    13   ar
    15    12    17   ar
    16    13    14   ar
    17    14    15   ar
    18    14    21   ar
    19    15    16   ar
    20    15    18   ar
    21    16    17   ar
    22    18    19   ar
    23    19    20   ar
    24    20    21   ar
