@<TRIPOS>MOLECULE
30964_ChemDiv_6401-0091
 22 25 0 0 0
SMALL
GASTEIGER
Energy = 0

@<TRIPOS>ATOM
      1 C          -0.6210   -0.1920    0.0000 C.ar    1  LIG1        0.0897
      2 C          -1.1210   -1.0540    0.0000 C.ar    1  LIG1        0.0874
      3 N          -2.1130   -1.0500    0.0000 N.ar    1  LIG1       -0.2776
      4 C          -2.6130   -0.1830    0.0000 C.ar    1  LIG1        0.3339
      5 N          -2.1080    0.6790    0.0000 N.ar    1  LIG1       -0.2467
      6 C          -1.1040    0.6790    0.0000 C.ar    1  LIG1        0.2671
      7 O          -0.6040    1.5460    0.0000 O.2     1  LIG1       -0.2667
      8 C          -2.6080    1.5460    0.0000 C.3     1  LIG1        0.1382
      9 O          -3.6170   -0.1830    0.0000 O.2     1  LIG1       -0.2462
     10 C          -2.6250   -1.9170    0.0000 C.3     1  LIG1        0.1351
     11 C          -0.4540   -1.8080    0.0000 C.ar    1  LIG1        0.0978
     12 N           0.4580   -1.4040    0.0000 N.ar    1  LIG1       -0.3022
     13 C           0.3670   -0.4040    0.0000 C.ar    1  LIG1        0.0701
     14 C           1.1710    0.1750    0.0000 C.ar    1  LIG1        0.0164
     15 C           2.0830   -0.2380    0.0000 C.ar    1  LIG1        0.0026
     16 C           2.1920   -1.2380    0.0000 C.ar    1  LIG1        0.0190
     17 C           1.3710   -1.8170    0.0000 C.ar    1  LIG1        0.0801
     18 C           2.8880    0.3420    0.0000 C.ar    1  LIG1       -0.0042
     19 C           2.7960    1.3330    0.0000 C.ar    1  LIG1       -0.0218
     20 C           1.8880    1.7420    0.0000 C.ar    1  LIG1       -0.0042
     21 C           1.0790    1.1630    0.0000 C.ar    1  LIG1        0.0011
     22 C           3.6130    1.9210    0.0000 C.3     1  LIG1        0.0310
@<TRIPOS>BOND
     1     1     2   ar
     2     1     6   ar
     3     1    13   ar
     4     2     3   ar
     5     2    11   ar
     6     3     4   ar
     7     3    10    1
     8     4     5   ar
     9     4     9    2
    10     5     6   ar
    11     5     8    1
    12     6     7    2
    13    11    12   ar
    14    12    13   ar
    15    12    17   ar
    16    13    14   ar
    17    14    15   ar
    18    14    21   ar
    19    15    16   ar
    20    15    18   ar
    21    16    17   ar
    22    18    19   ar
    23    19    20   ar
    24    19    22    1
    25    20    21   ar
