@<TRIPOS>MOLECULE
30967_ChemDiv_4476-3479
 20 22 0 0 0
SMALL
GASTEIGER
Energy = 0

@<TRIPOS>ATOM
      1 N           0.9670    0.1420    0.0000 N.am    1  LIG1       -0.2416
      2 C           0.6000   -0.7540    0.0000 C.2     1  LIG1        0.1213
      3 S          -0.3630   -0.7130    0.0000 S.3     1  LIG1       -0.0607
      4 C          -0.6710    0.2380    0.0000 C.2     1  LIG1        0.0807
      5 C           0.1710    0.7710    0.0000 C.2     1  LIG1        0.2593
      6 O           0.1710    1.7750    0.0000 O.2     1  LIG1       -0.2690
      7 C          -1.6330    0.5710    0.0000 C.2     1  LIG1       -0.0150
      8 C          -2.3830   -0.1250    0.0000 C.3     1  LIG1        0.0273
      9 C          -3.3250    0.1830    0.0000 C.3     1  LIG1        0.0301
     10 C          -4.0750   -0.4460    0.0000 C.2     1  LIG1       -0.0304
     11 C          -3.8540   -1.4080    0.0000 C.2     1  LIG1       -0.0307
     12 C          -2.9130   -1.7710    0.0000 C.3     1  LIG1        0.0260
     13 C          -2.1630   -1.0880    0.0000 C.3     1  LIG1        0.0094
     14 S           1.1290   -1.6170    0.0000 S.2     1  LIG1       -0.0272
     15 C           1.9250    0.4040    0.0000 C.3     1  LIG1        0.1289
     16 C           2.6130   -0.2920    0.0000 C.3     1  LIG1        0.1354
     17 O           2.4580   -1.2750    0.0000 O.3     1  LIG1       -0.3545
     18 C           3.3210   -1.7710    0.0000 C.3     1  LIG1        0.1422
     19 C           4.0710   -1.0210    0.0000 C.3     1  LIG1        0.0346
     20 C           3.6500   -0.1580    0.0000 C.3     1  LIG1        0.0339
@<TRIPOS>BOND
     1     1     2    1
     2     1     5   am
     3     1    15    1
     4     2     3    1
     5     2    14    2
     6     3     4    1
     7     4     5    1
     8     4     7    2
     9     5     6    2
    10     7     8    1
    11     8     9    1
    12     8    13    1
    13     9    10    1
    14    10    11    2
    15    11    12    1
    16    12    13    1
    17    15    16    1
    18    16    17    1
    19    16    20    1
    20    17    18    1
    21    18    19    1
    22    19    20    1
