@<TRIPOS>MOLECULE
30962_ChemDiv_6401-0090
 23 26 0 0 0
SMALL
GASTEIGER
Energy = 0

@<TRIPOS>ATOM
      1 C          -1.0790   -0.1920    0.0000 C.ar    1  LIG1        0.0897
      2 C          -1.5790   -1.0540    0.0000 C.ar    1  LIG1        0.0874
      3 N          -2.5710   -1.0500    0.0000 N.ar    1  LIG1       -0.2776
      4 C          -3.0710   -0.1830    0.0000 C.ar    1  LIG1        0.3339
      5 N          -2.5670    0.6790    0.0000 N.ar    1  LIG1       -0.2467
      6 C          -1.5630    0.6790    0.0000 C.ar    1  LIG1        0.2671
      7 O          -1.0630    1.5460    0.0000 O.2     1  LIG1       -0.2667
      8 C          -3.0670    1.5460    0.0000 C.3     1  LIG1        0.1382
      9 O          -4.0750   -0.1830    0.0000 O.2     1  LIG1       -0.2462
     10 C          -3.0830   -1.9170    0.0000 C.3     1  LIG1        0.1351
     11 C          -0.9130   -1.8080    0.0000 C.ar    1  LIG1        0.0978
     12 N           0.0000   -1.4040    0.0000 N.ar    1  LIG1       -0.3022
     13 C          -0.0920   -0.4040    0.0000 C.ar    1  LIG1        0.0701
     14 C           0.7130    0.1750    0.0000 C.ar    1  LIG1        0.0166
     15 C           1.6250   -0.2380    0.0000 C.ar    1  LIG1        0.0059
     16 C           1.7330   -1.2380    0.0000 C.ar    1  LIG1        0.0191
     17 C           0.9130   -1.8170    0.0000 C.ar    1  LIG1        0.0801
     18 C           2.4290    0.3420    0.0000 C.ar    1  LIG1        0.0370
     19 C           2.3380    1.3330    0.0000 C.ar    1  LIG1        0.1387
     20 C           1.4290    1.7420    0.0000 C.ar    1  LIG1        0.0369
     21 C           0.6250    1.1630    0.0000 C.ar    1  LIG1        0.0046
     22 O           3.1540    1.9210    0.0000 O.3     1  LIG1       -0.4714
     23 C           4.0710    1.5130    0.0000 C.3     1  LIG1        0.2525
@<TRIPOS>BOND
     1     1     2   ar
     2     1     6   ar
     3     1    13   ar
     4     2     3   ar
     5     2    11   ar
     6     3     4   ar
     7     3    10    1
     8     4     5   ar
     9     4     9    2
    10     5     6   ar
    11     5     8    1
    12     6     7    2
    13    11    12   ar
    14    12    13   ar
    15    12    17   ar
    16    13    14   ar
    17    14    15   ar
    18    14    21   ar
    19    15    16   ar
    20    15    18   ar
    21    16    17   ar
    22    18    19   ar
    23    19    20   ar
    24    19    22    1
    25    20    21   ar
    26    22    23    1
