@<TRIPOS>MOLECULE
30960_ChemDiv_4707-0057
 29 32 0 0 0
SMALL
GASTEIGER
Energy = 0

@<TRIPOS>ATOM
      1 N           1.9460   -0.0580    0.0000 N.am    1  LIG1        0.1606
      2 C           2.7960   -0.5380    0.0000 C.2     1  LIG1        0.4667
      3 C           2.8130   -1.5420    0.0000 C.3     1  LIG1        0.2182
      4 C           1.9460   -2.0210    0.0000 C.2     1  LIG1        0.2648
      5 N           1.0790   -1.5290    0.0000 N.am    1  LIG1       -0.1068
      6 C           1.0790   -0.5380    0.0000 C.2     1  LIG1        0.3990
      7 S           0.2210   -0.0420    0.0000 S.3     1  LIG1       -0.0118
      8 C           0.2210    0.9630    0.0000 C.3     1  LIG1        0.1564
      9 C          -0.6290    1.4710    0.0000 C.2     1  LIG1        0.2589
     10 N          -0.6290    2.4380    0.0000 N.am    1  LIG1       -0.1536
     11 C          -1.4920    2.9380    0.0000 C.ar    1  LIG1        0.1852
     12 N          -1.5080    3.9000    0.0000 N.ar    1  LIG1       -0.2272
     13 C          -2.5210    4.1750    0.0000 C.ar    1  LIG1        0.0630
     14 C          -3.0420    3.3290    0.0000 C.ar    1  LIG1        0.0235
     15 S          -2.4210    2.5290    0.0000 S.2     1  LIG1       -0.0544
     16 C          -4.0370    3.3330    0.0000 C.3     1  LIG1        0.0343
     17 C          -4.5130    4.2380    0.0000 C.3     1  LIG1        0.0057
     18 C          -3.9920    5.0880    0.0000 C.3     1  LIG1        0.0067
     19 C          -3.0080    5.0540    0.0000 C.3     1  LIG1        0.0461
     20 O          -1.4920    0.9630    0.0000 O.2     1  LIG1       -0.2720
     21 O           1.9290   -3.0170    0.0000 O.2     1  LIG1       -0.2721
     22 C           3.6790   -2.0380    0.0000 C.3     1  LIG1        0.0503
     23 C           3.6790   -3.0580    0.0000 C.ar    1  LIG1       -0.0210
     24 C           2.7670   -3.5540    0.0000 C.ar    1  LIG1       -0.0042
     25 C           2.7670   -4.5630    0.0000 C.ar    1  LIG1       -0.0003
     26 C           3.6420   -5.0880    0.0000 C.ar    1  LIG1       -0.0000
     27 C           4.4960   -4.5790    0.0000 C.ar    1  LIG1       -0.0003
     28 C           4.5080   -3.5790    0.0000 C.ar    1  LIG1       -0.0042
     29 O           3.6460   -0.0130    0.0000 O.2     1  LIG1       -0.2113
@<TRIPOS>BOND
     1     1     2   am
     2     1     6    2
     3     2     3    1
     4     2    29    2
     5     3     4    1
     6     3    22    1
     7     4     5   am
     8     4    21    2
     9     5     6    1
    10     6     7    1
    11     7     8    1
    12     8     9    1
    13     9    10   am
    14     9    20    2
    15    10    11    1
    16    11    12   ar
    17    11    15   ar
    18    12    13   ar
    19    13    14   ar
    20    13    19    1
    21    14    15   ar
    22    14    16    1
    23    16    17    1
    24    17    18    1
    25    18    19    1
    26    22    23    1
    27    23    24   ar
    28    23    28   ar
    29    24    25   ar
    30    25    26   ar
    31    26    27   ar
    32    27    28   ar
