@<TRIPOS>MOLECULE
30977_ChemDiv_4358-5655
 35 38 0 0 0
SMALL
GASTEIGER
Energy = 0

@<TRIPOS>ATOM
      1 S          -1.1960   -1.5290    0.0000 S.O2    1  LIG1        0.0633
      2 N          -2.0630   -1.0420    0.0000 N.3     1  LIG1       -0.1555
      3 C          -2.9290   -1.5290    0.0000 C.3     1  LIG1        0.0958
      4 C          -3.8540   -1.2000    0.0000 C.3     1  LIG1        0.0191
      5 C          -4.1630   -0.2500    0.0000 C.3     1  LIG1        0.0015
      6 C          -3.5960    0.5750    0.0000 C.3     1  LIG1        0.0015
      7 C          -2.6380    0.6790    0.0000 C.3     1  LIG1        0.0191
      8 C          -1.9330   -0.0380    0.0000 C.3     1  LIG1        0.0958
      9 C          -0.3080   -2.0420    0.0000 C.ar    1  LIG1        0.1222
     10 C          -0.3080   -3.0330    0.0000 C.ar    1  LIG1        0.0201
     11 C           0.5500   -3.5380    0.0000 C.ar    1  LIG1        0.0059
     12 C           1.4380   -3.0170    0.0000 C.ar    1  LIG1        0.0555
     13 C           2.3000   -3.5040    0.0000 C.2     1  LIG1        0.2690
     14 N           3.1830   -3.0170    0.0000 N.am    1  LIG1       -0.1754
     15 C           3.1830   -2.0420    0.0000 C.ar    1  LIG1        0.0738
     16 C           4.0290   -1.5290    0.0000 C.ar    1  LIG1        0.0179
     17 C           4.0290   -0.5250    0.0000 C.ar    1  LIG1        0.0182
     18 C           3.1830   -0.0380    0.0000 C.ar    1  LIG1        0.0894
     19 S           3.1420    0.9670    0.0000 S.O2    1  LIG1       -0.0568
     20 N           3.1420    1.9540    0.0000 N.pl3   1  LIG1       -0.5179
     21 C           2.2830    2.4460    0.0000 C.ar    1  LIG1        0.0161
     22 N           1.3920    2.0330    0.0000 N.ar    1  LIG1       -0.1014
     23 O           0.6580    2.7790    0.0000 O.2     1  LIG1       -0.3596
     24 C           1.1830    3.6380    0.0000 C.ar    1  LIG1        0.1529
     25 C           2.2130    3.4170    0.0000 C.ar    1  LIG1        0.0338
     26 C           0.7960    4.5250    0.0000 C.3     1  LIG1        0.0753
     27 O           2.1500    0.9380    0.0000 O.2     1  LIG1       -0.1841
     28 O           4.1580    0.9670    0.0000 O.2     1  LIG1       -0.1841
     29 C           2.3000   -0.5500    0.0000 C.ar    1  LIG1        0.0182
     30 C           2.3000   -1.5290    0.0000 C.ar    1  LIG1        0.0179
     31 O           2.3000   -4.5250    0.0000 O.2     1  LIG1       -0.2680
     32 C           1.4380   -2.0420    0.0000 C.ar    1  LIG1        0.0059
     33 C           0.5500   -1.5290    0.0000 C.ar    1  LIG1        0.0201
     34 O          -1.6880   -2.4040    0.0000 O.2     1  LIG1       -0.1528
     35 O          -0.7000   -0.6540    0.0000 O.2     1  LIG1       -0.1528
@<TRIPOS>BOND
     1     1     2    1
     2     1     9    1
     3     1    34    2
     4     1    35    2
     5     2     3    1
     6     2     8    1
     7     3     4    1
     8     4     5    1
     9     5     6    1
    10     6     7    1
    11     7     8    1
    12     9    10   ar
    13     9    33   ar
    14    10    11   ar
    15    11    12   ar
    16    12    13    1
    17    12    32   ar
    18    13    14   am
    19    13    31    2
    20    14    15    1
    21    15    16   ar
    22    15    30   ar
    23    16    17   ar
    24    17    18   ar
    25    18    19    1
    26    18    29   ar
    27    19    20    1
    28    19    27    2
    29    19    28    2
    30    20    21    1
    31    21    22   ar
    32    21    25   ar
    33    22    23   ar
    34    23    24   ar
    35    24    25   ar
    36    24    26    1
    37    29    30   ar
    38    32    33   ar
