@<TRIPOS>MOLECULE
30972_ChemDiv_C184-0056
 32 35 0 0 0
SMALL
GASTEIGER
Energy = 0

@<TRIPOS>ATOM
      1 C          -0.7330    0.7540    0.0000 C.ar    1  LIG1        0.4786
      2 S           0.2670    0.7540    0.0000 S.O2    1  LIG1        0.0953
      3 C           1.2670    0.7380    0.0000 C.3     1  LIG1        0.2507
      4 C           1.7630   -0.1380    0.0000 C.2     1  LIG1        0.2704
      5 N           2.7630   -0.1420    0.0000 N.am    1  LIG1       -0.1777
      6 C           3.2670    0.7080    0.0000 C.ar    1  LIG1        0.0735
      7 C           4.2670    0.6960    0.0000 C.ar    1  LIG1        0.0175
      8 C           4.7750    1.5540    0.0000 C.ar    1  LIG1        0.0127
      9 C           4.2790    2.4330    0.0000 C.ar    1  LIG1        0.0578
     10 CL          4.7960    3.2960    0.0000 Cl      1  LIG1       -0.0822
     11 C           3.2790    2.4380    0.0000 C.ar    1  LIG1        0.0127
     12 C           2.7750    1.5750    0.0000 C.ar    1  LIG1        0.0175
     13 O           1.2500   -0.9920    0.0000 O.2     1  LIG1       -0.2710
     14 O           0.2670    1.7540    0.0000 O.2     1  LIG1       -0.1613
     15 O           0.2670   -0.2460    0.0000 O.2     1  LIG1       -0.1613
     16 N          -1.3250   -0.0540    0.0000 N.ar    1  LIG1       -0.2260
     17 C          -2.2790    0.2580    0.0000 C.ar    1  LIG1        0.1630
     18 C          -2.2710    1.2580    0.0000 C.ar    1  LIG1        0.3178
     19 N          -1.3170    1.5580    0.0000 N.ar    1  LIG1        0.1179
     20 C          -3.0710    1.8460    0.0000 C.ar    1  LIG1        0.0719
     21 C          -2.9630    2.8420    0.0000 C.ar    1  LIG1        0.0062
     22 C          -3.7630    3.4330    0.0000 C.ar    1  LIG1        0.0002
     23 C          -4.6880    3.0290    0.0000 C.ar    1  LIG1        0.0000
     24 C          -4.8000    2.0380    0.0000 C.ar    1  LIG1        0.0002
     25 C          -3.9920    1.4380    0.0000 C.ar    1  LIG1        0.0062
     26 C          -1.0250   -1.0080    0.0000 C.ar    1  LIG1        0.0719
     27 C          -1.6960   -1.7500    0.0000 C.ar    1  LIG1        0.0291
     28 C          -1.3920   -2.6960    0.0000 C.ar    1  LIG1        0.0591
     29 CL         -2.0710   -3.4290    0.0000 Cl      1  LIG1       -0.0822
     30 C          -0.4170   -2.9170    0.0000 C.ar    1  LIG1        0.0115
     31 C           0.2580   -2.1670    0.0000 C.ar    1  LIG1        0.0024
     32 C          -0.0540   -1.2170    0.0000 C.ar    1  LIG1        0.0178
@<TRIPOS>BOND
     1     1     2    1
     2     1    16   ar
     3     1    19   ar
     4     2     3    1
     5     2    14    2
     6     2    15    2
     7     3     4    1
     8     4     5   am
     9     4    13    2
    10     5     6    1
    11     6     7   ar
    12     6    12   ar
    13     7     8   ar
    14     8     9   ar
    15     9    10    1
    16     9    11   ar
    17    11    12   ar
    18    16    17   ar
    19    16    26    1
    20    17    18   ar
    21    18    19   ar
    22    18    20    1
    23    20    21   ar
    24    20    25   ar
    25    21    22   ar
    26    22    23   ar
    27    23    24   ar
    28    24    25   ar
    29    26    27   ar
    30    26    32   ar
    31    27    28   ar
    32    28    29    1
    33    28    30   ar
    34    30    31   ar
    35    31    32   ar
