@<TRIPOS>MOLECULE
30979_ChemDiv_4358-5704
 23 26 0 0 0
SMALL
GASTEIGER
Energy = 0

@<TRIPOS>ATOM
      1 C          -2.2290   -0.4500    0.0000 C.3     1  LIG1        0.0789
      2 N          -1.1580   -0.4500    0.0000 N.am    1  LIG1       -0.2051
      3 C          -0.6580    0.3960    0.0000 C.2     1  LIG1        0.2647
      4 C           0.3170    0.3960    0.0000 C.ar    1  LIG1        0.0550
      5 C           0.8330    1.2710    0.0000 C.ar    1  LIG1        0.0048
      6 C           1.7960    1.2710    0.0000 C.ar    1  LIG1        0.0066
      7 C           2.2960    0.3960    0.0000 C.ar    1  LIG1        0.0757
      8 C           3.2580    0.3960    0.0000 C.2     1  LIG1        0.3413
      9 O           3.7750   -0.4500    0.0000 O.2     1  LIG1       -0.2449
     10 O           3.7540    1.2710    0.0000 O.3     1  LIG1       -0.4413
     11 C           4.7500    1.2710    0.0000 C.3     1  LIG1        0.2560
     12 C           1.7960   -0.4500    0.0000 C.ar    1  LIG1        0.0066
     13 C           0.8000   -0.4500    0.0000 C.ar    1  LIG1        0.0048
     14 O          -1.1580    1.2710    0.0000 O.2     1  LIG1       -0.2684
     15 C          -3.0630   -0.8130    0.0000 C.3     1  LIG1        0.0200
     16 C          -4.0580   -0.4500    0.0000 C.3     1  LIG1        0.0017
     17 C          -4.7540   -1.2670    0.0000 C.3     1  LIG1        0.0001
     18 C          -3.9170   -0.9500    0.0000 C.3     1  LIG1        0.0017
     19 C          -2.8920   -1.2670    0.0000 C.3     1  LIG1        0.0200
     20 C          -3.9170    0.0670    0.0000 C.3     1  LIG1        0.0001
     21 C          -3.2080    0.9080    0.0000 C.3     1  LIG1        0.0017
     22 C          -2.2290    0.4830    0.0000 C.3     1  LIG1        0.0200
     23 C          -4.0580    0.5170    0.0000 C.3     1  LIG1        0.0001
@<TRIPOS>BOND
     1     1     2    1
     2     1    15    1
     3     1    19    1
     4     1    22    1
     5     2     3   am
     6     3     4    1
     7     3    14    2
     8     4     5   ar
     9     4    13   ar
    10     5     6   ar
    11     6     7   ar
    12     7     8    1
    13     7    12   ar
    14     8     9    2
    15     8    10    1
    16    10    11    1
    17    12    13   ar
    18    15    16    1
    19    16    17    1
    20    16    23    1
    21    17    18    1
    22    18    19    1
    23    18    20    1
    24    20    21    1
    25    21    22    1
    26    21    23    1
