@<TRIPOS>MOLECULE
30978_ChemDiv_5471-0060
 19 21 0 0 0
SMALL
GASTEIGER
Energy = 0

@<TRIPOS>ATOM
      1 C          -1.1580    0.8040    0.0000 C.ar    1  LIG1        0.1852
      2 N          -1.7420    1.6130    0.0000 N.ar    1  LIG1       -0.2272
      3 C          -2.7000    1.3040    0.0000 C.ar    1  LIG1        0.0630
      4 C          -2.7000    0.3130    0.0000 C.ar    1  LIG1        0.0235
      5 S          -1.7420    0.0000    0.0000 S.2     1  LIG1       -0.0544
      6 C          -3.5580   -0.2000    0.0000 C.3     1  LIG1        0.0343
      7 C          -4.4330    0.3130    0.0000 C.3     1  LIG1        0.0057
      8 C          -4.4330    1.3040    0.0000 C.3     1  LIG1        0.0067
      9 C          -3.5580    1.8040    0.0000 C.3     1  LIG1        0.0461
     10 N          -0.1630    0.8040    0.0000 N.am    1  LIG1       -0.1536
     11 C           0.3540   -0.0500    0.0000 C.2     1  LIG1        0.2587
     12 O          -0.1630   -0.9250    0.0000 O.2     1  LIG1       -0.2720
     13 C           1.3420   -0.0500    0.0000 C.3     1  LIG1        0.1510
     14 S           1.8380   -0.9250    0.0000 S.3     1  LIG1       -0.0793
     15 C           2.8540   -0.9250    0.0000 C.2     1  LIG1        0.1277
     16 N           3.5250   -0.1880    0.0000 N.2     1  LIG1       -0.2572
     17 C           4.4290   -0.6000    0.0000 C.3     1  LIG1        0.1387
     18 C           4.3290   -1.5750    0.0000 C.3     1  LIG1        0.0904
     19 S           3.3540   -1.8000    0.0000 S.3     1  LIG1       -0.0871
@<TRIPOS>BOND
     1     1     2   ar
     2     1     5   ar
     3     1    10    1
     4     2     3   ar
     5     3     4   ar
     6     3     9    1
     7     4     5   ar
     8     4     6    1
     9     6     7    1
    10     7     8    1
    11     8     9    1
    12    10    11   am
    13    11    12    2
    14    11    13    1
    15    13    14    1
    16    14    15    1
    17    15    16    2
    18    15    19    1
    19    16    17    1
    20    17    18    1
    21    18    19    1
