@<TRIPOS>MOLECULE
30981_ChemDiv_K783-0734
 19 21 0 0 0
SMALL
GASTEIGER
Energy = 0

@<TRIPOS>ATOM
      1 C          -0.2330    3.2040    0.0000 C.2     1  LIG1        0.0729
      2 C          -0.4670    2.2250    0.0000 C.ar    1  LIG1        0.0140
      3 C           0.2500    1.5380    0.0000 C.ar    1  LIG1        0.0010
      4 C           0.0170    0.5670    0.0000 C.ar    1  LIG1        0.0017
      5 C          -0.9460    0.2830    0.0000 C.ar    1  LIG1        0.0402
      6 C          -1.6630    0.9790    0.0000 C.ar    1  LIG1        0.0017
      7 C          -1.4330    1.9460    0.0000 C.ar    1  LIG1        0.0010
      8 C          -1.1790   -0.6830    0.0000 C.3     1  LIG1        0.2283
      9 N          -0.4630   -1.3710    0.0000 N.4     1  LIG1        0.4519
     10 C          -0.6960   -2.3420    0.0000 C.3     1  LIG1        0.2013
     11 C           0.0330   -3.0380    0.0000 C.3     1  LIG1        0.0673
     12 C           0.8830   -2.5960    0.0000 C.3     1  LIG1        0.0279
     13 C           1.6580   -3.0630    0.0000 C.2     1  LIG1       -0.0308
     14 C           1.2460   -3.8880    0.0000 C.2     1  LIG1       -0.0310
     15 C           0.5170   -3.5080    0.0000 C.3     1  LIG1        0.0222
     16 C           0.6580   -1.7630    0.0000 C.3     1  LIG1        0.0089
     17 C          -0.3420   -3.8210    0.0000 C.3     1  LIG1        0.0108
     18 O          -0.9630    3.8920    0.0000 O.co2   1  LIG1       -0.5446
     19 O           0.7210    3.4830    0.0000 O.co2   1  LIG1       -0.5446
@<TRIPOS>BOND
     1     1     2    1
     2     1    18   ar
     3     1    19   ar
     4     2     3   ar
     5     2     7   ar
     6     3     4   ar
     7     4     5   ar
     8     5     6   ar
     9     5     8    1
    10     6     7   ar
    11     8     9    1
    12     9    10    1
    13    10    11    1
    14    11    12    1
    15    11    17    1
    16    12    13    1
    17    12    16    1
    18    13    14    2
    19    14    15    1
    20    15    16    1
    21    15    17    1
