@<TRIPOS>MOLECULE
30988_ChemDiv_5228-5371
 21 23 0 0 0
SMALL
GASTEIGER
Energy = 0

@<TRIPOS>ATOM
      1 C          -0.4290   -0.2500    0.0000 C.ar    1  LIG1        0.1593
      2 N          -0.4290    0.7170    0.0000 N.ar    1  LIG1       -0.2575
      3 C           0.3960    1.1960    0.0000 C.ar    1  LIG1        0.2615
      4 C           1.2460    0.7460    0.0000 C.ar    1  LIG1        0.0311
      5 C           1.2500   -0.2330    0.0000 C.ar    1  LIG1       -0.0087
      6 C           0.4210   -0.7210    0.0000 C.ar    1  LIG1        0.0987
      7 C           0.4210   -1.6960    0.0000 C.1     1  LIG1        0.1031
      8 N          -0.4290   -2.1960    0.0000 N.1     1  LIG1       -0.1907
      9 C           2.0960   -0.7000    0.0000 C.3     1  LIG1        0.0317
     10 C           2.0750    1.2330    0.0000 C.3     1  LIG1        0.0309
     11 C           2.9170    0.7670    0.0000 C.3     1  LIG1        0.0048
     12 C           2.9330   -0.2000    0.0000 C.3     1  LIG1        0.0003
     13 C           3.7750   -0.6710    0.0000 C.3     1  LIG1        0.0000
     14 O           0.3960    2.2000    0.0000 O.2     1  LIG1       -0.2669
     15 C          -2.1130    0.7000    0.0000 C.ar    1  LIG1        0.0858
     16 C          -2.1130   -0.2630    0.0000 C.ar    1  LIG1        0.0991
     17 N          -1.2500   -0.7380    0.0000 N.ar    1  LIG1       -0.2257
     18 C          -2.9250   -0.7500    0.0000 C.ar    1  LIG1        0.0206
     19 C          -3.7750   -0.2830    0.0000 C.ar    1  LIG1        0.0016
     20 C          -3.7790    0.6960    0.0000 C.ar    1  LIG1        0.0016
     21 C          -2.9630    1.1920    0.0000 C.ar    1  LIG1        0.0192
@<TRIPOS>BOND
     1     1     2   ar
     2     1     6   ar
     3     1    17   ar
     4     2     3   ar
     5     2    15   ar
     6     3     4   ar
     7     3    14    2
     8     4     5   ar
     9     4    10    1
    10     5     6   ar
    11     5     9    1
    12     6     7    1
    13     7     8    3
    14    10    11    1
    15    11    12    1
    16    12    13    1
    17    15    16   ar
    18    15    21   ar
    19    16    17   ar
    20    16    18   ar
    21    18    19   ar
    22    19    20   ar
    23    20    21   ar
