@<TRIPOS>MOLECULE
30980_ChemDiv_4708-0187
 30 33 0 0 0
SMALL
GASTEIGER
Energy = 0

@<TRIPOS>ATOM
      1 N          -1.6920   -0.5500    0.0000 N.ar    1  LIG1       -0.2783
      2 C          -1.6920   -1.5290    0.0000 C.ar    1  LIG1        0.1579
      3 C          -0.8460   -2.0000    0.0000 C.ar    1  LIG1        0.0986
      4 C          -0.0040   -1.5290    0.0000 C.ar    1  LIG1       -0.0106
      5 C          -0.0040   -0.5500    0.0000 C.ar    1  LIG1        0.0055
      6 C          -0.8460   -0.0580    0.0000 C.ar    1  LIG1        0.1132
      7 N          -0.8460    0.9420    0.0000 N.pl3   1  LIG1       -0.2837
      8 C           0.0250    1.4540    0.0000 C.3     1  LIG1        0.1554
      9 C           0.0250    2.4540    0.0000 C.3     1  LIG1        0.1608
     10 N          -0.8460    2.9460    0.0000 N.4     1  LIG1        0.3847
     11 C          -1.7130    2.4540    0.0000 C.3     1  LIG1        0.1608
     12 C          -1.7130    1.4380    0.0000 C.3     1  LIG1        0.1554
     13 C          -0.8460    3.9420    0.0000 C.3     1  LIG1        0.2024
     14 C           0.8420   -0.0670    0.0000 C.3     1  LIG1        0.0405
     15 C           1.6630   -0.5500    0.0000 C.3     1  LIG1        0.1143
     16 C           2.5170   -0.0670    0.0000 C.2     1  LIG1        0.3173
     17 O           2.5170    0.9040    0.0000 O.2     1  LIG1       -0.2501
     18 O           3.3630   -0.5500    0.0000 O.3     1  LIG1       -0.4485
     19 C           4.1830   -0.0670    0.0000 C.3     1  LIG1        0.2086
     20 C           5.0460   -0.5500    0.0000 C.3     1  LIG1        0.0513
     21 C           0.8420   -2.0000    0.0000 C.3     1  LIG1        0.0316
     22 C          -0.8460   -2.9790    0.0000 C.1     1  LIG1        0.1031
     23 N          -0.8460   -3.9380    0.0000 N.1     1  LIG1       -0.1907
     24 N          -2.5420   -2.0000    0.0000 N.ar    1  LIG1       -0.2258
     25 C          -3.3670   -1.5290    0.0000 C.ar    1  LIG1        0.0990
     26 C          -3.3670   -0.5500    0.0000 C.ar    1  LIG1        0.0841
     27 C          -4.2290   -0.0580    0.0000 C.ar    1  LIG1        0.0191
     28 C          -5.0500   -0.5500    0.0000 C.ar    1  LIG1        0.0016
     29 C          -5.0500   -1.5290    0.0000 C.ar    1  LIG1        0.0016
     30 C          -4.2290   -2.0000    0.0000 C.ar    1  LIG1        0.0206
@<TRIPOS>BOND
     1     1     2   ar
     2     1     6   ar
     3     1    26   ar
     4     2     3   ar
     5     2    24   ar
     6     3     4   ar
     7     3    22    1
     8     4     5   ar
     9     4    21    1
    10     5     6   ar
    11     5    14    1
    12     6     7    1
    13     7     8    1
    14     7    12    1
    15     8     9    1
    16     9    10    1
    17    10    11    1
    18    10    13    1
    19    11    12    1
    20    14    15    1
    21    15    16    1
    22    16    17    2
    23    16    18    1
    24    18    19    1
    25    19    20    1
    26    22    23    3
    27    24    25   ar
    28    25    26   ar
    29    25    30   ar
    30    26    27   ar
    31    27    28   ar
    32    28    29   ar
    33    29    30   ar
