@<TRIPOS>MOLECULE
30989_ChemDiv_4364-0013
 23 25 0 0 0
SMALL
GASTEIGER
Energy = 0

@<TRIPOS>ATOM
      1 N           0.4540    1.4830    0.0000 N.am    1  LIG1       -0.2737
      2 C           1.4580    1.4920    0.0000 C.2     1  LIG1        0.2835
      3 C           1.9710    0.6330    0.0000 C.3     1  LIG1        0.2255
      4 N           2.9710    0.6460    0.0000 N.4     1  LIG1        0.3939
      5 C           3.4750   -0.2170    0.0000 C.3     1  LIG1        0.2033
      6 C           3.4580    1.5080    0.0000 C.3     1  LIG1        0.2033
      7 O           1.9580    2.3580    0.0000 O.2     1  LIG1       -0.2684
      8 C           0.0290    0.5750    0.0000 C.3     1  LIG1        0.1022
      9 C          -0.9540    0.3420    0.0000 C.3     1  LIG1        0.0640
     10 C          -1.7420    0.9630    0.0000 C.ar    1  LIG1       -0.0206
     11 C          -1.7580    1.9540    0.0000 C.ar    1  LIG1       -0.0241
     12 C          -0.9710    2.6000    0.0000 C.3     1  LIG1        0.0475
     13 C           0.0170    2.3790    0.0000 C.3     1  LIG1        0.0983
     14 C          -2.6130    2.4540    0.0000 C.ar    1  LIG1       -0.0045
     15 C          -3.4790    1.9540    0.0000 C.ar    1  LIG1       -0.0003
     16 C          -3.4790    0.9630    0.0000 C.ar    1  LIG1       -0.0003
     17 C          -2.6130    0.4630    0.0000 C.ar    1  LIG1       -0.0042
     18 C          -1.1580   -0.6290    0.0000 C.ar    1  LIG1       -0.0168
     19 C          -2.1080   -0.9330    0.0000 C.ar    1  LIG1       -0.0039
     20 C          -2.3250   -1.9130    0.0000 C.ar    1  LIG1       -0.0003
     21 C          -1.5960   -2.5960    0.0000 C.ar    1  LIG1       -0.0000
     22 C          -0.6380   -2.2790    0.0000 C.ar    1  LIG1       -0.0003
     23 C          -0.4290   -1.3080    0.0000 C.ar    1  LIG1       -0.0039
@<TRIPOS>BOND
     1     1     2   am
     2     1     8    1
     3     1    13    1
     4     2     3    1
     5     2     7    2
     6     3     4    1
     7     4     5    1
     8     4     6    1
     9     8     9    1
    10     9    10    1
    11     9    18    1
    12    10    11   ar
    13    10    17   ar
    14    11    12    1
    15    11    14   ar
    16    12    13    1
    17    14    15   ar
    18    15    16   ar
    19    16    17   ar
    20    18    19   ar
    21    18    23   ar
    22    19    20   ar
    23    20    21   ar
    24    21    22   ar
    25    22    23   ar
