@<TRIPOS>MOLECULE
30986_ChemDiv_4708-0251
 20 23 0 0 0
SMALL
GASTEIGER
Energy = 0

@<TRIPOS>ATOM
      1 N          -0.4420   -0.3540    0.0000 N.ar    1  LIG1       -0.3047
      2 C           0.4210    0.1580    0.0000 C.ar    1  LIG1        0.1560
      3 C           0.4210    1.1580    0.0000 C.ar    1  LIG1        0.0985
      4 C          -0.4420    1.6460    0.0000 C.ar    1  LIG1       -0.0133
      5 C          -1.2920    1.1580    0.0000 C.ar    1  LIG1       -0.0246
      6 C          -1.2920    0.1580    0.0000 C.ar    1  LIG1       -0.0243
      7 O          -2.1750   -0.3540    0.0000 O.co2   1  LIG1       -0.8610
      8 C          -2.1580    1.6460    0.0000 C.3     1  LIG1        0.0263
      9 C          -2.1580    2.6460    0.0000 C.3     1  LIG1        0.0050
     10 C          -1.2920    3.1540    0.0000 C.3     1  LIG1        0.0050
     11 C          -0.4420    2.6460    0.0000 C.3     1  LIG1        0.0268
     12 C           1.3040    1.6630    0.0000 C.1     1  LIG1        0.1031
     13 N           2.1710    2.1750    0.0000 N.1     1  LIG1       -0.1907
     14 N           1.1710   -0.5080    0.0000 N.ar    1  LIG1       -0.2258
     15 C           0.7710   -1.4250    0.0000 C.ar    1  LIG1        0.0990
     16 C          -0.2250   -1.3250    0.0000 C.ar    1  LIG1        0.0817
     17 C          -0.8000   -2.1380    0.0000 C.ar    1  LIG1        0.0191
     18 C          -0.3830   -3.0420    0.0000 C.ar    1  LIG1        0.0016
     19 C           0.6170   -3.1500    0.0000 C.ar    1  LIG1        0.0016
     20 C           1.1880   -2.3380    0.0000 C.ar    1  LIG1        0.0206
@<TRIPOS>BOND
     1     1     2   ar
     2     1     6   ar
     3     1    16   ar
     4     2     3   ar
     5     2    14   ar
     6     3     4   ar
     7     3    12    1
     8     4     5   ar
     9     4    11    1
    10     5     6   ar
    11     5     8    1
    12     6     7    1
    13     8     9    1
    14     9    10    1
    15    10    11    1
    16    12    13    3
    17    14    15   ar
    18    15    16   ar
    19    15    20   ar
    20    16    17   ar
    21    17    18   ar
    22    18    19   ar
    23    19    20   ar
