@<TRIPOS>MOLECULE
30983_ChemDiv_K786-0838
 24 27 0 0 0
SMALL
GASTEIGER
Energy = 0

@<TRIPOS>ATOM
      1 C          -1.6500   -0.3080    0.0000 C.3     1  LIG1        0.0185
      2 C          -0.7880   -0.8080    0.0000 C.3     1  LIG1        0.0956
      3 N           0.0750   -0.3080    0.0000 N.am    1  LIG1       -0.2034
      4 C           0.9380   -0.8000    0.0000 C.2     1  LIG1        0.2648
      5 C           1.8000   -0.2920    0.0000 C.ar    1  LIG1        0.0561
      6 C           2.6630   -0.7880    0.0000 C.ar    1  LIG1        0.0184
      7 C           2.6710   -1.7920    0.0000 C.2     1  LIG1        0.0730
      8 O           1.8170   -2.2880    0.0000 O.co2   1  LIG1       -0.5446
      9 O           3.5420   -2.2750    0.0000 O.co2   1  LIG1       -0.5446
     10 C           3.5250   -0.2790    0.0000 C.ar    1  LIG1        0.0013
     11 C           3.5080    0.7210    0.0000 C.ar    1  LIG1        0.0000
     12 C           2.6420    1.2080    0.0000 C.ar    1  LIG1        0.0001
     13 C           1.7830    0.7040    0.0000 C.ar    1  LIG1        0.0046
     14 O           0.9540   -1.8000    0.0000 O.2     1  LIG1       -0.2684
     15 C          -0.7880   -1.8040    0.0000 C.3     1  LIG1        0.0234
     16 C          -2.5080   -0.8000    0.0000 C.3     1  LIG1        0.0017
     17 C          -3.2960   -0.1880    0.0000 C.3     1  LIG1        0.0001
     18 C          -2.9170    0.6750    0.0000 C.3     1  LIG1        0.0000
     19 C          -2.1380    1.1630    0.0000 C.3     1  LIG1        0.0001
     20 C          -1.3670    0.5750    0.0000 C.3     1  LIG1        0.0017
     21 C          -2.3130    2.2920    0.0000 C.3     1  LIG1        0.0000
     22 C          -2.6920    1.3460    0.0000 C.3     1  LIG1        0.0001
     23 C          -1.8750    0.7210    0.0000 C.3     1  LIG1        0.0017
     24 C          -3.5460    0.8420    0.0000 C.3     1  LIG1        0.0000
@<TRIPOS>BOND
     1     1     2    1
     2     1    16    1
     3     1    20    1
     4     1    23    1
     5     2     3    1
     6     2    15    1
     7     3     4   am
     8     4     5    1
     9     4    14    2
    10     5     6   ar
    11     5    13   ar
    12     6     7    1
    13     6    10   ar
    14     7     8   ar
    15     7     9   ar
    16    10    11   ar
    17    11    12   ar
    18    12    13   ar
    19    16    17    1
    20    17    18    1
    21    17    24    1
    22    18    19    1
    23    19    20    1
    24    19    21    1
    25    21    22    1
    26    22    23    1
    27    22    24    1
