@<TRIPOS>MOLECULE
30994_ChemDiv_C184-0895
 36 40 0 0 0
SMALL
GASTEIGER
Energy = 0

@<TRIPOS>ATOM
      1 C           0.7420    0.3420    0.0000 C.ar    1  LIG1        0.4786
      2 S           0.7420    1.3420    0.0000 S.O2    1  LIG1        0.0953
      3 C           0.7380    2.3420    0.0000 C.3     1  LIG1        0.2507
      4 C          -0.1380    2.8250    0.0000 C.2     1  LIG1        0.2704
      5 N          -1.0040    2.3250    0.0000 N.am    1  LIG1       -0.1777
      6 C          -1.8710    2.8130    0.0000 C.ar    1  LIG1        0.0736
      7 C          -2.7290    2.3000    0.0000 C.ar    1  LIG1        0.0197
      8 C          -3.6000    2.7960    0.0000 C.ar    1  LIG1        0.0382
      9 C          -3.6080    3.7960    0.0000 C.ar    1  LIG1        0.1388
     10 C          -2.7460    4.2960    0.0000 C.ar    1  LIG1        0.0382
     11 C          -1.8830    3.8130    0.0000 C.ar    1  LIG1        0.0197
     12 O          -4.4880    4.2830    0.0000 O.3     1  LIG1       -0.4714
     13 C          -5.3500    3.7790    0.0000 C.3     1  LIG1        0.2525
     14 O          -0.1420    3.8250    0.0000 O.2     1  LIG1       -0.2710
     15 O          -0.2580    1.3250    0.0000 O.2     1  LIG1       -0.1613
     16 O           1.7420    1.3420    0.0000 O.2     1  LIG1       -0.1613
     17 N           1.5540   -0.2500    0.0000 N.ar    1  LIG1       -0.2261
     18 C           1.2420   -1.2040    0.0000 C.ar    1  LIG1        0.1630
     19 C           0.2420   -1.2040    0.0000 C.ar    1  LIG1        0.3179
     20 N          -0.0630   -0.2500    0.0000 N.ar    1  LIG1        0.1179
     21 C          -0.3500   -2.0080    0.0000 C.ar    1  LIG1        0.0751
     22 C          -1.3420   -1.9040    0.0000 C.ar    1  LIG1        0.0464
     23 C          -1.9420   -2.7170    0.0000 C.ar    1  LIG1        0.1766
     24 C          -1.5210   -3.6290    0.0000 C.ar    1  LIG1        0.1764
     25 O          -2.2670   -4.2960    0.0000 O.3     1  LIG1       -0.4346
     26 C          -3.1380   -3.7960    0.0000 C.3     1  LIG1        0.4294
     27 O          -2.9330   -2.8210    0.0000 O.3     1  LIG1       -0.4346
     28 C          -0.5210   -3.7330    0.0000 C.ar    1  LIG1        0.0404
     29 C           0.0580   -2.9170    0.0000 C.ar    1  LIG1        0.0095
     30 C           2.5000    0.0540    0.0000 C.ar    1  LIG1        0.0712
     31 C           2.7130    1.0290    0.0000 C.ar    1  LIG1        0.0201
     32 C           3.6500    1.3420    0.0000 C.ar    1  LIG1        0.0311
     33 C           4.4040    0.6630    0.0000 C.ar    1  LIG1        0.1402
     34 C           4.1960   -0.3130    0.0000 C.ar    1  LIG1        0.0311
     35 C           3.2420   -0.6130    0.0000 C.ar    1  LIG1        0.0201
     36 F           5.3500    0.9750    0.0000 F       1  LIG1       -0.2042
@<TRIPOS>BOND
     1     1     2    1
     2     1    17   ar
     3     1    20   ar
     4     2     3    1
     5     2    15    2
     6     2    16    2
     7     3     4    1
     8     4     5   am
     9     4    14    2
    10     5     6    1
    11     6     7   ar
    12     6    11   ar
    13     7     8   ar
    14     8     9   ar
    15     9    10   ar
    16     9    12    1
    17    10    11   ar
    18    12    13    1
    19    17    18   ar
    20    17    30    1
    21    18    19   ar
    22    19    20   ar
    23    19    21    1
    24    21    22   ar
    25    21    29   ar
    26    22    23   ar
    27    23    24   ar
    28    23    27    1
    29    24    25    1
    30    24    28   ar
    31    25    26    1
    32    26    27    1
    33    28    29   ar
    34    30    31   ar
    35    30    35   ar
    36    31    32   ar
    37    32    33   ar
    38    33    34   ar
    39    33    36    1
    40    34    35   ar
