@<TRIPOS>MOLECULE
30998_ChemDiv_K242-0433
 36 39 0 0 0
SMALL
GASTEIGER
Energy = 0

@<TRIPOS>ATOM
      1 C          -0.5750    0.7250    0.0000 C.ar    1  LIG1        0.3971
      2 N          -0.0750   -0.1460    0.0000 N.ar    1  LIG1       -0.2364
      3 C          -0.7420   -0.8880    0.0000 C.ar    1  LIG1        0.1623
      4 C          -1.6500   -0.4830    0.0000 C.ar    1  LIG1        0.3167
      5 N          -1.5500    0.5130    0.0000 N.ar    1  LIG1        0.1043
      6 C          -2.5130   -0.9830    0.0000 C.ar    1  LIG1        0.0721
      7 C          -2.5130   -1.9960    0.0000 C.ar    1  LIG1        0.0093
      8 C          -3.3750   -2.4960    0.0000 C.ar    1  LIG1        0.0371
      9 C          -4.2420   -1.9960    0.0000 C.ar    1  LIG1        0.1386
     10 C          -4.2420   -0.9830    0.0000 C.ar    1  LIG1        0.0371
     11 C          -3.3750   -0.4830    0.0000 C.ar    1  LIG1        0.0093
     12 O          -5.1040   -2.4830    0.0000 O.3     1  LIG1       -0.4755
     13 C          -5.1040   -3.4830    0.0000 C.3     1  LIG1        0.2055
     14 C          -5.9710   -3.9830    0.0000 C.3     1  LIG1        0.0512
     15 C           0.9250   -0.2420    0.0000 C.ar    1  LIG1        0.0702
     16 C           1.3330   -1.1630    0.0000 C.ar    1  LIG1        0.0174
     17 C           2.3290   -1.2580    0.0000 C.ar    1  LIG1       -0.0028
     18 C           2.9080   -0.4500    0.0000 C.ar    1  LIG1       -0.0218
     19 C           2.5000    0.4710    0.0000 C.ar    1  LIG1       -0.0028
     20 C           1.5000    0.5670    0.0000 C.ar    1  LIG1        0.0174
     21 C           3.9080   -0.5460    0.0000 C.3     1  LIG1        0.0310
     22 S          -0.1670    1.6330    0.0000 S.3     1  LIG1       -0.0099
     23 C           0.8170    1.7420    0.0000 C.3     1  LIG1        0.1547
     24 C           1.2290    2.6540    0.0000 C.2     1  LIG1        0.2373
     25 N           2.2210    2.7630    0.0000 N.am    1  LIG1       -0.2753
     26 C           2.8130    1.9540    0.0000 C.3     1  LIG1        0.1150
     27 C           3.8000    2.0580    0.0000 C.3     1  LIG1        0.1182
     28 N           4.1960    2.9710    0.0000 N.am    1  LIG1       -0.2425
     29 C           5.1960    3.0750    0.0000 C.2     1  LIG1        0.4050
     30 O           5.6040    3.9880    0.0000 O.2     1  LIG1       -0.2262
     31 O           5.7830    2.2710    0.0000 O.3     1  LIG1       -0.4345
     32 C           5.3750    1.3500    0.0000 C.3     1  LIG1        0.2102
     33 C           5.9670    0.5460    0.0000 C.3     1  LIG1        0.0513
     34 C           3.6210    3.7830    0.0000 C.3     1  LIG1        0.1182
     35 C           2.6210    3.6790    0.0000 C.3     1  LIG1        0.1150
     36 O           0.6380    3.4670    0.0000 O.2     1  LIG1       -0.2739
@<TRIPOS>BOND
     1     1     2   ar
     2     1     5   ar
     3     1    22    1
     4     2     3   ar
     5     2    15    1
     6     3     4   ar
     7     4     5   ar
     8     4     6    1
     9     6     7   ar
    10     6    11   ar
    11     7     8   ar
    12     8     9   ar
    13     9    10   ar
    14     9    12    1
    15    10    11   ar
    16    12    13    1
    17    13    14    1
    18    15    16   ar
    19    15    20   ar
    20    16    17   ar
    21    17    18   ar
    22    18    19   ar
    23    18    21    1
    24    19    20   ar
    25    22    23    1
    26    23    24    1
    27    24    25   am
    28    24    36    2
    29    25    26    1
    30    25    35    1
    31    26    27    1
    32    27    28    1
    33    28    29   am
    34    28    34    1
    35    29    30    2
    36    29    31    1
    37    31    32    1
    38    32    33    1
    39    34    35    1
