@<TRIPOS>MOLECULE
30992_ChemDiv_4711-0033
 24 28 0 0 0
SMALL
GASTEIGER
Energy = 0

@<TRIPOS>ATOM
      1 N          -0.0250   -1.3460    0.0000 N.ar    1  LIG1       -0.1631
      2 N          -0.0250   -0.3710    0.0000 N.ar    1  LIG1       -0.1621
      3 C          -0.8880    0.1170    0.0000 C.ar    1  LIG1        0.1013
      4 C          -1.7460   -0.3710    0.0000 C.ar    1  LIG1        0.0240
      5 C          -1.7460   -1.3460    0.0000 C.ar    1  LIG1        0.0592
      6 C          -0.8880   -1.8330    0.0000 C.ar    1  LIG1        0.2809
      7 O          -0.8880   -2.8250    0.0000 O.2     1  LIG1       -0.2653
      8 C          -2.6080   -1.8330    0.0000 C.ar    1  LIG1        0.0048
      9 C          -3.4580   -1.3460    0.0000 C.ar    1  LIG1        0.0002
     10 C          -3.4580   -0.3710    0.0000 C.ar    1  LIG1        0.0001
     11 C          -2.6080    0.1170    0.0000 C.ar    1  LIG1        0.0017
     12 C          -2.3830    1.1080    0.0000 C.ar    1  LIG1        0.0016
     13 C          -1.1330    1.1080    0.0000 C.ar    1  LIG1        0.0193
     14 C          -0.7630    1.9670    0.0000 C.ar    1  LIG1        0.0016
     15 C          -1.2750    2.8290    0.0000 C.ar    1  LIG1        0.0000
     16 C          -2.2630    2.8290    0.0000 C.ar    1  LIG1        0.0000
     17 C          -2.7630    1.9670    0.0000 C.ar    1  LIG1        0.0000
     18 C           0.8330   -1.8330    0.0000 C.3     1  LIG1        0.2782
     19 N           1.6830   -1.3330    0.0000 N.4     1  LIG1        0.4007
     20 C           2.6210   -1.7880    0.0000 C.3     1  LIG1        0.1742
     21 C           3.4540   -1.3130    0.0000 C.3     1  LIG1        0.2048
     22 O           3.4540   -0.2790    0.0000 O.3     1  LIG1       -0.3411
     23 C           2.5460    0.1920    0.0000 C.3     1  LIG1        0.2048
     24 C           1.7040   -0.3040    0.0000 C.3     1  LIG1        0.1742
@<TRIPOS>BOND
     1     1     2   ar
     2     1     6   ar
     3     1    18    1
     4     2     3   ar
     5     3     4   ar
     6     3    13   ar
     7     4     5   ar
     8     4    11   ar
     9     5     6   ar
    10     5     8   ar
    11     6     7    2
    12     8     9   ar
    13     9    10   ar
    14    10    11   ar
    15    11    12   ar
    16    12    13   ar
    17    12    17   ar
    18    13    14   ar
    19    14    15   ar
    20    15    16   ar
    21    16    17   ar
    22    18    19    1
    23    19    20    1
    24    19    24    1
    25    20    21    1
    26    21    22    1
    27    22    23    1
    28    23    24    1
