@<TRIPOS>MOLECULE
30991_ChemDiv_4364-0142
 26 28 0 0 0
SMALL
GASTEIGER
Energy = 0

@<TRIPOS>ATOM
      1 C          -1.5710    0.4130    0.0000 C.3     1  LIG1        0.2169
      2 C          -0.6420    0.7540    0.0000 C.1     1  LIG1       -0.0483
      3 C           0.2710    1.0960    0.0000 C.1     1  LIG1       -0.0275
      4 C           1.1790    1.4250    0.0000 C.3     1  LIG1        0.1877
      5 N           2.3290    0.9000    0.0000 N.4     1  LIG1        0.3140
      6 C           2.3290   -0.2670    0.0000 C.3     1  LIG1        0.1992
      7 C           3.1750   -0.7420    0.0000 C.2     1  LIG1        0.3167
      8 O           4.0210   -0.2670    0.0000 O.2     1  LIG1       -0.2652
      9 N           3.1750   -1.7210    0.0000 N.am    1  LIG1       -0.0826
     10 C           3.1330    0.3460    0.0000 C.3     1  LIG1        0.1104
     11 C           3.8960    0.9630    0.0000 C.3     1  LIG1        0.0672
     12 C           3.5670    1.8750    0.0000 C.3     1  LIG1        0.0672
     13 C           2.5920    1.8330    0.0000 C.3     1  LIG1        0.1104
     14 C          -1.7460   -0.5500    0.0000 C.ar    1  LIG1        0.0204
     15 C          -1.0330   -1.2000    0.0000 C.ar    1  LIG1       -0.0006
     16 C          -1.2290   -2.1540    0.0000 C.ar    1  LIG1       -0.0002
     17 C          -2.1380   -2.4630    0.0000 C.ar    1  LIG1       -0.0000
     18 C          -2.8750   -1.8130    0.0000 C.ar    1  LIG1       -0.0002
     19 C          -2.6790   -0.8500    0.0000 C.ar    1  LIG1       -0.0006
     20 C          -2.3330    1.0130    0.0000 C.ar    1  LIG1        0.0204
     21 C          -2.3330    1.9880    0.0000 C.ar    1  LIG1       -0.0006
     22 C          -3.1790    2.4670    0.0000 C.ar    1  LIG1       -0.0002
     23 C          -4.0250    1.9880    0.0000 C.ar    1  LIG1       -0.0000
     24 C          -4.0250    1.0130    0.0000 C.ar    1  LIG1       -0.0002
     25 C          -3.1790    0.5130    0.0000 C.ar    1  LIG1       -0.0006
     26 O          -2.6750   -0.0460    0.0000 O.3     1  LIG1       -0.2032
@<TRIPOS>BOND
     1     1     2    1
     2     1    14    1
     3     1    20    1
     4     1    26    1
     5     2     3    3
     6     3     4    1
     7     4     5    1
     8     5     6    1
     9     5    10    1
    10     5    13    1
    11     6     7    1
    12     7     8    2
    13     7     9   am
    14    10    11    1
    15    11    12    1
    16    12    13    1
    17    14    15   ar
    18    14    19   ar
    19    15    16   ar
    20    16    17   ar
    21    17    18   ar
    22    18    19   ar
    23    20    21   ar
    24    20    25   ar
    25    21    22   ar
    26    22    23   ar
    27    23    24   ar
    28    24    25   ar
