@<TRIPOS>MOLECULE
30997_ChemDiv_5511-0305
 24 27 0 0 0
SMALL
GASTEIGER
Energy = 0

@<TRIPOS>ATOM
      1 C          -1.3580   -0.2580    0.0000 C.2     1  LIG1        0.0566
      2 C          -0.7580   -1.0500    0.0000 C.2     1  LIG1        0.2690
      3 N          -1.3580   -1.8920    0.0000 N.am    1  LIG1       -0.1754
      4 C          -2.3080   -1.5750    0.0000 C.ar    1  LIG1        0.0738
      5 C          -2.3250   -0.5670    0.0000 C.ar    1  LIG1        0.0203
      6 C          -3.1750   -0.0790    0.0000 C.ar    1  LIG1        0.0081
      7 C          -4.0370   -0.5670    0.0000 C.ar    1  LIG1        0.0347
      8 C          -4.0370   -1.5750    0.0000 C.ar    1  LIG1        0.0080
      9 C          -3.1750   -2.0710    0.0000 C.ar    1  LIG1        0.0171
     10 BR         -4.9080   -0.0790    0.0000 Br      1  LIG1       -0.0490
     11 O           0.2250   -1.0500    0.0000 O.2     1  LIG1       -0.2680
     12 C          -1.0580    0.7000    0.0000 C.2     1  LIG1        0.0046
     13 C          -0.0920    0.9130    0.0000 C.ar    1  LIG1        0.0003
     14 C           0.5750    0.1630    0.0000 C.ar    1  LIG1        0.0031
     15 C           1.5540    0.3830    0.0000 C.ar    1  LIG1        0.0369
     16 C           1.8580    1.3250    0.0000 C.ar    1  LIG1        0.1384
     17 O           2.8250    1.5460    0.0000 O.3     1  LIG1       -0.4792
     18 C           3.5040    0.8080    0.0000 C.3     1  LIG1        0.1659
     19 C           3.2920   -0.1830    0.0000 C.3     1  LIG1        0.0435
     20 C           4.1540   -0.6830    0.0000 C.3     1  LIG1        0.0038
     21 C           4.9040   -0.0170    0.0000 C.3     1  LIG1        0.0038
     22 C           4.4960    0.9040    0.0000 C.3     1  LIG1        0.0435
     23 C           1.1790    2.0750    0.0000 C.ar    1  LIG1        0.0369
     24 C           0.2130    1.8540    0.0000 C.ar    1  LIG1        0.0031
@<TRIPOS>BOND
     1     1     2    1
     2     1     5    1
     3     1    12    2
     4     2     3   am
     5     2    11    2
     6     3     4    1
     7     4     5   ar
     8     4     9   ar
     9     5     6   ar
    10     6     7   ar
    11     7     8   ar
    12     7    10    1
    13     8     9   ar
    14    12    13    1
    15    13    14   ar
    16    13    24   ar
    17    14    15   ar
    18    15    16   ar
    19    16    17    1
    20    16    23   ar
    21    17    18    1
    22    18    19    1
    23    18    22    1
    24    19    20    1
    25    20    21    1
    26    21    22    1
    27    23    24   ar
