@<TRIPOS>MOLECULE
30990_ChemDiv_8015-4851
 26 30 0 0 0
SMALL
GASTEIGER
Energy = 0

@<TRIPOS>ATOM
      1 N          -0.4290    1.1080    0.0000 N.ar    1  LIG1       -0.2845
      2 C           0.3750    1.5790    0.0000 C.ar    1  LIG1        0.1574
      3 C           1.2670    1.0920    0.0000 C.ar    1  LIG1        0.0986
      4 C           1.2670    0.1080    0.0000 C.ar    1  LIG1       -0.0117
      5 C           0.4040   -0.3920    0.0000 C.ar    1  LIG1       -0.0029
      6 C          -0.4170    0.1080    0.0000 C.ar    1  LIG1        0.0938
      7 S          -1.2960   -0.4040    0.0000 S.3     1  LIG1       -0.0313
      8 C          -1.2960   -1.4130    0.0000 C.ar    1  LIG1        0.1987
      9 N          -2.1170   -2.0130    0.0000 N.ar    1  LIG1       -0.2857
     10 C          -1.8040   -2.9670    0.0000 C.ar    1  LIG1        0.2031
     11 N          -0.7920   -2.9750    0.0000 N.ar    1  LIG1       -0.1250
     12 N          -0.4790   -2.0130    0.0000 N.ar    1  LIG1       -0.1216
     13 C          -2.9920   -1.5040    0.0000 C.3     1  LIG1        0.1341
     14 C           0.4040   -1.3920    0.0000 C.3     1  LIG1        0.0281
     15 C           1.2670   -1.8880    0.0000 C.3     1  LIG1        0.0051
     16 C           2.1290   -1.3880    0.0000 C.3     1  LIG1        0.0050
     17 C           2.1290   -0.3920    0.0000 C.3     1  LIG1        0.0269
     18 C           2.1290    1.5920    0.0000 C.1     1  LIG1        0.1031
     19 N           2.9880    2.0920    0.0000 N.1     1  LIG1       -0.1907
     20 N           0.3750    2.5130    0.0000 N.ar    1  LIG1       -0.2258
     21 C          -1.2330    2.5130    0.0000 C.ar    1  LIG1        0.0990
     22 C          -1.2330    1.5790    0.0000 C.ar    1  LIG1        0.0834
     23 C          -2.0290    1.1080    0.0000 C.ar    1  LIG1        0.0191
     24 C          -2.8210    1.5790    0.0000 C.ar    1  LIG1        0.0016
     25 C          -2.8210    2.5130    0.0000 C.ar    1  LIG1        0.0016
     26 C          -2.0290    2.9790    0.0000 C.ar    1  LIG1        0.0206
@<TRIPOS>BOND
     1     1     2   ar
     2     1     6   ar
     3     1    22   ar
     4     2     3   ar
     5     2    20   ar
     6     3     4   ar
     7     3    18    1
     8     4     5   ar
     9     4    17    1
    10     5     6   ar
    11     5    14    1
    12     6     7    1
    13     7     8    1
    14     8     9   ar
    15     8    12   ar
    16     9    10   ar
    17     9    13    1
    18    10    11   ar
    19    11    12   ar
    20    14    15    1
    21    15    16    1
    22    16    17    1
    23    18    19    3
    24    20    21   ar
    25    21    22   ar
    26    21    26   ar
    27    22    23   ar
    28    23    24   ar
    29    24    25   ar
    30    25    26   ar
