@<TRIPOS>MOLECULE
30993_ChemDiv_4481-0074
 22 24 0 0 0
SMALL
GASTEIGER
Energy = 0

@<TRIPOS>ATOM
      1 C          -0.6170    0.0040    0.0000 C.ar    1  LIG1        0.1469
      2 N          -1.2170   -0.7830    0.0000 N.ar    1  LIG1       -0.2251
      3 C          -2.1540   -0.4790    0.0000 C.ar    1  LIG1        0.1178
      4 C          -2.1540    0.5290    0.0000 C.ar    1  LIG1        0.0820
      5 N          -1.2040    0.8330    0.0000 N.ar    1  LIG1       -0.3093
      6 C          -0.8830    1.7830    0.0000 C.3     1  LIG1        0.1319
      7 C          -3.0330    1.0290    0.0000 C.ar    1  LIG1        0.0394
      8 C          -3.9000    0.5290    0.0000 C.ar    1  LIG1        0.1005
      9 N          -3.8880   -0.4790    0.0000 N.ar    1  LIG1       -0.2406
     10 C          -3.0330   -0.9630    0.0000 C.ar    1  LIG1        0.1194
     11 C           0.3880    0.0040    0.0000 C.ar    1  LIG1        0.0713
     12 C           0.8960    0.8670    0.0000 C.ar    1  LIG1        0.1448
     13 C           1.9000    0.8670    0.0000 C.ar    1  LIG1        0.0770
     14 C           2.3960    0.0000    0.0000 C.ar    1  LIG1        0.1754
     15 C           1.8830   -0.8630    0.0000 C.ar    1  LIG1        0.1727
     16 C           0.8790   -0.8460    0.0000 C.ar    1  LIG1        0.0461
     17 O           2.3670   -1.7380    0.0000 O.3     1  LIG1       -0.4684
     18 C           1.8710   -2.6000    0.0000 C.3     1  LIG1        0.2526
     19 O           3.3960   -0.0170    0.0000 O.3     1  LIG1       -0.4683
     20 C           3.8960   -0.8790    0.0000 C.3     1  LIG1        0.2526
     21 O           0.3960    1.7420    0.0000 O.3     1  LIG1       -0.4712
     22 C           0.8960    2.6040    0.0000 C.3     1  LIG1        0.2525
@<TRIPOS>BOND
     1     1     2   ar
     2     1     5   ar
     3     1    11    1
     4     2     3   ar
     5     3     4   ar
     6     3    10   ar
     7     4     5   ar
     8     4     7   ar
     9     5     6    1
    10     7     8   ar
    11     8     9   ar
    12     9    10   ar
    13    11    12   ar
    14    11    16   ar
    15    12    13   ar
    16    12    21    1
    17    13    14   ar
    18    14    15   ar
    19    14    19    1
    20    15    16   ar
    21    15    17    1
    22    17    18    1
    23    19    20    1
    24    21    22    1
