@<TRIPOS>MOLECULE
30996_ChemDiv_K242-0036
 28 31 0 0 0
SMALL
GASTEIGER
Energy = 0

@<TRIPOS>ATOM
      1 C          -0.2960    1.0000    0.0000 C.ar    1  LIG1        0.3971
      2 N          -0.3630   -0.0040    0.0000 N.ar    1  LIG1       -0.2364
      3 C          -1.3380   -0.2500    0.0000 C.ar    1  LIG1        0.1623
      4 C          -1.8790    0.6040    0.0000 C.ar    1  LIG1        0.3167
      5 N          -1.2250    1.3670    0.0000 N.ar    1  LIG1        0.1043
      6 C          -2.8830    0.6710    0.0000 C.ar    1  LIG1        0.0719
      7 C          -3.3250    1.5750    0.0000 C.ar    1  LIG1        0.0062
      8 C          -4.3170    1.6420    0.0000 C.ar    1  LIG1        0.0002
      9 C          -4.8790    0.8170    0.0000 C.ar    1  LIG1        0.0000
     10 C          -4.4500   -0.0960    0.0000 C.ar    1  LIG1        0.0002
     11 C          -3.4460   -0.1670    0.0000 C.ar    1  LIG1        0.0062
     12 C           0.4040   -0.6540    0.0000 C.ar    1  LIG1        0.0702
     13 C           0.2210   -1.6420    0.0000 C.ar    1  LIG1        0.0182
     14 C           0.9960   -2.2880    0.0000 C.ar    1  LIG1        0.0082
     15 C           1.9420   -1.9380    0.0000 C.ar    1  LIG1        0.0347
     16 C           2.1080   -0.9500    0.0000 C.ar    1  LIG1        0.0082
     17 C           1.3420   -0.3080    0.0000 C.ar    1  LIG1        0.0182
     18 BR          2.7000   -2.5920    0.0000 Br      1  LIG1       -0.0490
     19 S           0.5540    1.5290    0.0000 S.3     1  LIG1       -0.0099
     20 C           1.4380    1.0580    0.0000 C.3     1  LIG1        0.1547
     21 C           2.2920    1.5920    0.0000 C.2     1  LIG1        0.2372
     22 N           3.1830    1.1210    0.0000 N.am    1  LIG1       -0.2788
     23 C           4.0330    1.6540    0.0000 C.3     1  LIG1        0.0934
     24 C           4.8460    1.1420    0.0000 C.3     1  LIG1        0.0216
     25 C           4.8750    0.1380    0.0000 C.3     1  LIG1        0.0035
     26 C           4.1000   -0.3540    0.0000 C.3     1  LIG1        0.0216
     27 C           3.2170    0.1170    0.0000 C.3     1  LIG1        0.0934
     28 O           2.2580    2.5960    0.0000 O.2     1  LIG1       -0.2739
@<TRIPOS>BOND
     1     1     2   ar
     2     1     5   ar
     3     1    19    1
     4     2     3   ar
     5     2    12    1
     6     3     4   ar
     7     4     5   ar
     8     4     6    1
     9     6     7   ar
    10     6    11   ar
    11     7     8   ar
    12     8     9   ar
    13     9    10   ar
    14    10    11   ar
    15    12    13   ar
    16    12    17   ar
    17    13    14   ar
    18    14    15   ar
    19    15    16   ar
    20    15    18    1
    21    16    17   ar
    22    19    20    1
    23    20    21    1
    24    21    22   am
    25    21    28    2
    26    22    23    1
    27    22    27    1
    28    23    24    1
    29    24    25    1
    30    25    26    1
    31    26    27    1
