@<TRIPOS>MOLECULE
31007_ChemDiv_4486-0152
 32 35 0 0 0
SMALL
GASTEIGER
Energy = 0

@<TRIPOS>ATOM
      1 S           1.5580   -2.5290    0.0000 S.O2    1  LIG1        0.0935
      2 C           2.0670   -1.6750    0.0000 C.ar    1  LIG1        0.1251
      3 C           1.5580   -0.8210    0.0000 C.ar    1  LIG1        0.0213
      4 C           2.0670    0.0630    0.0000 C.ar    1  LIG1        0.0180
      5 C           3.0580    0.0630    0.0000 C.ar    1  LIG1        0.0735
      6 N           3.5630    0.9170    0.0000 N.am    1  LIG1       -0.1785
      7 C           3.0580    1.7710    0.0000 C.2     1  LIG1        0.2571
      8 O           3.5630    2.6580    0.0000 O.2     1  LIG1       -0.2720
      9 C           2.0670    1.7710    0.0000 C.3     1  LIG1        0.1535
     10 S           1.5580    0.9170    0.0000 S.3     1  LIG1       -0.0469
     11 C           0.5670    0.9170    0.0000 C.ar    1  LIG1        0.2591
     12 N          -0.0210    1.7420    0.0000 N.ar    1  LIG1       -0.2027
     13 C          -0.9710    1.4210    0.0000 C.ar    1  LIG1        0.1193
     14 C          -0.9710    0.4420    0.0000 C.ar    1  LIG1        0.1651
     15 O          -0.0210    0.1290    0.0000 O.2     1  LIG1       -0.4300
     16 C          -1.8330   -0.0630    0.0000 C.ar    1  LIG1        0.0362
     17 C          -1.8330   -1.0750    0.0000 C.ar    1  LIG1        0.0031
     18 C          -2.7000   -1.5460    0.0000 C.ar    1  LIG1        0.0001
     19 C          -3.5670   -1.0750    0.0000 C.ar    1  LIG1        0.0000
     20 C          -3.5670   -0.0630    0.0000 C.ar    1  LIG1        0.0001
     21 C          -2.7000    0.4420    0.0000 C.ar    1  LIG1        0.0031
     22 C          -1.8330    1.9290    0.0000 C.ar    1  LIG1        0.0208
     23 C          -2.7000    1.4210    0.0000 C.ar    1  LIG1        0.0016
     24 C          -3.5670    1.9290    0.0000 C.ar    1  LIG1        0.0000
     25 C          -3.5670    2.9420    0.0000 C.ar    1  LIG1        0.0000
     26 C          -2.7000    3.4170    0.0000 C.ar    1  LIG1        0.0000
     27 C          -1.8330    2.9420    0.0000 C.ar    1  LIG1        0.0016
     28 C           3.5630   -0.8210    0.0000 C.ar    1  LIG1        0.0180
     29 C           3.0580   -1.6750    0.0000 C.ar    1  LIG1        0.0213
     30 O           0.6920   -2.0250    0.0000 O.2     1  LIG1       -0.1503
     31 O           2.4250   -3.0330    0.0000 O.2     1  LIG1       -0.1503
     32 N           1.0500   -3.4130    0.0000 N.3     1  LIG1        0.0392
@<TRIPOS>BOND
     1     1     2    1
     2     1    30    2
     3     1    31    2
     4     1    32    1
     5     2     3   ar
     6     2    29   ar
     7     3     4   ar
     8     4     5   ar
     9     5     6    1
    10     5    28   ar
    11     6     7   am
    12     7     8    2
    13     7     9    1
    14     9    10    1
    15    10    11    1
    16    11    12   ar
    17    11    15   ar
    18    12    13   ar
    19    13    14   ar
    20    13    22    1
    21    14    15   ar
    22    14    16    1
    23    16    17   ar
    24    16    21   ar
    25    17    18   ar
    26    18    19   ar
    27    19    20   ar
    28    20    21   ar
    29    22    23   ar
    30    22    27   ar
    31    23    24   ar
    32    24    25   ar
    33    25    26   ar
    34    26    27   ar
    35    28    29   ar
