@<TRIPOS>MOLECULE
31002_ChemDiv_K242-1018
 33 37 0 0 0
SMALL
GASTEIGER
Energy = 0

@<TRIPOS>ATOM
      1 C           0.8670   -0.1130    0.0000 C.ar    1  LIG1        0.3971
      2 N           1.3710   -0.9750    0.0000 N.ar    1  LIG1       -0.2364
      3 C           0.7000   -1.7170    0.0000 C.ar    1  LIG1        0.1623
      4 C          -0.2130   -1.3170    0.0000 C.ar    1  LIG1        0.3168
      5 N          -0.1130   -0.3250    0.0000 N.ar    1  LIG1        0.1043
      6 C          -1.0750   -1.8210    0.0000 C.ar    1  LIG1        0.0751
      7 C          -1.9500   -1.3250    0.0000 C.ar    1  LIG1        0.0464
      8 C          -2.8080   -1.8380    0.0000 C.ar    1  LIG1        0.1766
      9 C          -2.8170   -2.8330    0.0000 C.ar    1  LIG1        0.1764
     10 O          -3.7710   -3.1380    0.0000 O.3     1  LIG1       -0.4346
     11 C          -4.3540   -2.3250    0.0000 C.3     1  LIG1        0.4294
     12 O          -3.7540   -1.5170    0.0000 O.3     1  LIG1       -0.4346
     13 C          -1.9500   -3.3290    0.0000 C.ar    1  LIG1        0.0404
     14 C          -1.0750   -2.8330    0.0000 C.ar    1  LIG1        0.0095
     15 C           2.3540   -1.0790    0.0000 C.ar    1  LIG1        0.0702
     16 C           2.9420   -0.2750    0.0000 C.ar    1  LIG1        0.0177
     17 C           3.9290   -0.3710    0.0000 C.ar    1  LIG1        0.0015
     18 C           4.3500   -1.2790    0.0000 C.ar    1  LIG1        0.0001
     19 C           3.7630   -2.0960    0.0000 C.ar    1  LIG1        0.0015
     20 C           2.7630   -1.9880    0.0000 C.ar    1  LIG1        0.0177
     21 S           1.2630    0.8000    0.0000 S.3     1  LIG1       -0.0098
     22 C           2.2630    0.9080    0.0000 C.3     1  LIG1        0.1566
     23 C           2.6670    1.8250    0.0000 C.2     1  LIG1        0.2572
     24 N           2.0750    2.6290    0.0000 N.am    1  LIG1       -0.1785
     25 C           1.0790    2.5250    0.0000 C.ar    1  LIG1        0.0736
     26 C           0.6880    1.6130    0.0000 C.ar    1  LIG1        0.0197
     27 C          -0.3130    1.5000    0.0000 C.ar    1  LIG1        0.0382
     28 C          -0.9040    2.3130    0.0000 C.ar    1  LIG1        0.1388
     29 C          -0.5040    3.2210    0.0000 C.ar    1  LIG1        0.0382
     30 C           0.4920    3.3330    0.0000 C.ar    1  LIG1        0.0197
     31 O          -1.8920    2.1960    0.0000 O.3     1  LIG1       -0.4714
     32 C          -2.2960    1.2790    0.0000 C.3     1  LIG1        0.2525
     33 O           3.6580    1.9330    0.0000 O.2     1  LIG1       -0.2720
@<TRIPOS>BOND
     1     1     2   ar
     2     1     5   ar
     3     1    21    1
     4     2     3   ar
     5     2    15    1
     6     3     4   ar
     7     4     5   ar
     8     4     6    1
     9     6     7   ar
    10     6    14   ar
    11     7     8   ar
    12     8     9   ar
    13     8    12    1
    14     9    10    1
    15     9    13   ar
    16    10    11    1
    17    11    12    1
    18    13    14   ar
    19    15    16   ar
    20    15    20   ar
    21    16    17   ar
    22    17    18   ar
    23    18    19   ar
    24    19    20   ar
    25    21    22    1
    26    22    23    1
    27    23    24   am
    28    23    33    2
    29    24    25    1
    30    25    26   ar
    31    25    30   ar
    32    26    27   ar
    33    27    28   ar
    34    28    29   ar
    35    28    31    1
    36    29    30   ar
    37    31    32    1
