@<TRIPOS>MOLECULE
31005_ChemDiv_4486-0086
 21 23 0 0 0
SMALL
GASTEIGER
Energy = 0

@<TRIPOS>ATOM
      1 C          -0.8460    0.1250    0.0000 C.ar    1  LIG1        0.1193
      2 C          -1.1630   -0.8130    0.0000 C.ar    1  LIG1        0.1651
      3 O          -0.3540   -1.3880    0.0000 O.2     1  LIG1       -0.4300
      4 C           0.4460   -0.8250    0.0000 C.ar    1  LIG1        0.2596
      5 N           0.1420    0.1250    0.0000 N.ar    1  LIG1       -0.2027
      6 S           1.3750   -1.1790    0.0000 S.3     1  LIG1       -0.0402
      7 C           2.1670   -0.5460    0.0000 C.3     1  LIG1        0.1714
      8 C           3.0830   -0.9040    0.0000 C.1     1  LIG1        0.0856
      9 N           3.9920   -1.2580    0.0000 N.1     1  LIG1       -0.1949
     10 C          -2.0920   -1.1790    0.0000 C.ar    1  LIG1        0.0362
     11 C          -2.2460   -2.1880    0.0000 C.ar    1  LIG1        0.0031
     12 C          -3.1960   -2.5460    0.0000 C.ar    1  LIG1        0.0001
     13 C          -3.9960   -1.9290    0.0000 C.ar    1  LIG1        0.0000
     14 C          -3.8130   -0.8960    0.0000 C.ar    1  LIG1        0.0001
     15 C          -2.8750   -0.5330    0.0000 C.ar    1  LIG1        0.0031
     16 C          -1.5130    0.8750    0.0000 C.ar    1  LIG1        0.0208
     17 C          -2.4830    0.6500    0.0000 C.ar    1  LIG1        0.0016
     18 C          -3.1500    1.3920    0.0000 C.ar    1  LIG1        0.0000
     19 C          -2.8290    2.3460    0.0000 C.ar    1  LIG1        0.0000
     20 C          -1.8790    2.5500    0.0000 C.ar    1  LIG1        0.0000
     21 C          -1.1960    1.8330    0.0000 C.ar    1  LIG1        0.0016
@<TRIPOS>BOND
     1     1     2   ar
     2     1     5   ar
     3     1    16    1
     4     2     3   ar
     5     2    10    1
     6     3     4   ar
     7     4     5   ar
     8     4     6    1
     9     6     7    1
    10     7     8    1
    11     8     9    3
    12    10    11   ar
    13    10    15   ar
    14    11    12   ar
    15    12    13   ar
    16    13    14   ar
    17    14    15   ar
    18    16    17   ar
    19    16    21   ar
    20    17    18   ar
    21    18    19   ar
    22    19    20   ar
    23    20    21   ar
