@<TRIPOS>MOLECULE
31001_ChemDiv_4483-2407
 41 45 0 0 0
SMALL
GASTEIGER
Energy = 0

@<TRIPOS>ATOM
      1 N          -2.1750   -1.4290    0.0000 N.am    1  LIG1       -0.2081
      2 C          -2.7500   -2.2500    0.0000 C.2     1  LIG1        0.2354
      3 C          -3.6830   -1.9460    0.0000 C.3     1  LIG1        0.0907
      4 C          -3.6830   -0.9460    0.0000 C.3     1  LIG1        0.0907
      5 C          -2.7500   -0.6210    0.0000 C.2     1  LIG1        0.2354
      6 O          -2.4500    0.3500    0.0000 O.2     1  LIG1       -0.2741
      7 C          -4.5580   -0.4380    0.0000 C.3     1  LIG1        0.0353
      8 C          -5.4040   -0.9460    0.0000 C.2     1  LIG1       -0.0302
      9 C          -5.4040   -1.9460    0.0000 C.2     1  LIG1       -0.0302
     10 C          -4.5580   -2.4290    0.0000 C.3     1  LIG1        0.0353
     11 O          -2.4500   -3.2080    0.0000 O.2     1  LIG1       -0.2741
     12 C          -1.2130   -1.2790    0.0000 C.ar    1  LIG1        0.0611
     13 C          -0.8460   -0.3170    0.0000 C.ar    1  LIG1        0.0218
     14 C           0.1460   -0.1670    0.0000 C.ar    1  LIG1        0.0771
     15 C           0.5080    0.8040    0.0000 C.2     1  LIG1        0.3417
     16 O          -0.1540    1.5540    0.0000 O.3     1  LIG1       -0.4368
     17 C           0.2130    2.4920    0.0000 C.3     1  LIG1        0.2769
     18 C          -0.4580    3.2460    0.0000 C.2     1  LIG1        0.2170
     19 O          -0.0920    4.1790    0.0000 O.2     1  LIG1       -0.2874
     20 C          -1.4210    3.0960    0.0000 C.ar    1  LIG1        0.0385
     21 C          -1.7830    2.1580    0.0000 C.ar    1  LIG1        0.0030
     22 C          -2.7500    1.9710    0.0000 C.ar    1  LIG1        0.0001
     23 C          -3.4080    2.7960    0.0000 C.ar    1  LIG1        0.0000
     24 C          -3.0500    3.7290    0.0000 C.ar    1  LIG1        0.0001
     25 C          -2.0540    3.8790    0.0000 C.ar    1  LIG1        0.0030
     26 O           1.4750    0.9830    0.0000 O.2     1  LIG1       -0.2449
     27 C           0.7830   -0.9460    0.0000 C.ar    1  LIG1        0.0130
     28 C           0.3920   -1.8830    0.0000 C.ar    1  LIG1        0.0771
     29 C           0.9960   -2.7330    0.0000 C.2     1  LIG1        0.3417
     30 O           1.9880   -2.6380    0.0000 O.3     1  LIG1       -0.4368
     31 C           2.5630   -3.4540    0.0000 C.3     1  LIG1        0.2769
     32 C           3.5290   -3.3630    0.0000 C.2     1  LIG1        0.2170
     33 O           4.1040   -4.1790    0.0000 O.2     1  LIG1       -0.2874
     34 C           3.9830   -2.4880    0.0000 C.ar    1  LIG1        0.0385
     35 C           3.4130   -1.6750    0.0000 C.ar    1  LIG1        0.0030
     36 C           3.8290   -0.7710    0.0000 C.ar    1  LIG1        0.0001
     37 C           4.8250   -0.6750    0.0000 C.ar    1  LIG1        0.0000
     38 C           5.4000   -1.5250    0.0000 C.ar    1  LIG1        0.0001
     39 C           4.9750   -2.4000    0.0000 C.ar    1  LIG1        0.0030
     40 O           0.5670   -3.6380    0.0000 O.2     1  LIG1       -0.2449
     41 C          -0.5750   -2.0330    0.0000 C.ar    1  LIG1        0.0218
@<TRIPOS>BOND
     1     1     2   am
     2     1     5   am
     3     1    12    1
     4     2     3    1
     5     2    11    2
     6     3     4    1
     7     3    10    1
     8     4     5    1
     9     4     7    1
    10     5     6    2
    11     7     8    1
    12     8     9    2
    13     9    10    1
    14    12    13   ar
    15    12    41   ar
    16    13    14   ar
    17    14    15    1
    18    14    27   ar
    19    15    16    1
    20    15    26    2
    21    16    17    1
    22    17    18    1
    23    18    19    2
    24    18    20    1
    25    20    21   ar
    26    20    25   ar
    27    21    22   ar
    28    22    23   ar
    29    23    24   ar
    30    24    25   ar
    31    27    28   ar
    32    28    29    1
    33    28    41   ar
    34    29    30    1
    35    29    40    2
    36    30    31    1
    37    31    32    1
    38    32    33    2
    39    32    34    1
    40    34    35   ar
    41    34    39   ar
    42    35    36   ar
    43    36    37   ar
    44    37    38   ar
    45    38    39   ar
