@<TRIPOS>MOLECULE
31000_ChemDiv_K242-0707
 30 33 0 0 0
SMALL
GASTEIGER
Energy = 0

@<TRIPOS>ATOM
      1 N           0.2880   -1.3420    0.0000 N.ar    1  LIG1       -0.2334
      2 C          -0.5170   -0.7460    0.0000 C.ar    1  LIG1        0.3972
      3 N          -1.3380   -1.3290    0.0000 N.ar    1  LIG1        0.1043
      4 C          -1.0330   -2.2830    0.0000 C.ar    1  LIG1        0.3167
      5 C          -0.0380   -2.2920    0.0000 C.ar    1  LIG1        0.1624
      6 C          -1.5960   -3.1000    0.0000 C.ar    1  LIG1        0.0719
      7 C          -2.5960   -3.0380    0.0000 C.ar    1  LIG1        0.0062
      8 C          -3.1580   -3.8580    0.0000 C.ar    1  LIG1        0.0002
      9 C          -2.7170   -4.7670    0.0000 C.ar    1  LIG1        0.0000
     10 C          -1.7170   -4.8420    0.0000 C.ar    1  LIG1        0.0002
     11 C          -1.1540   -4.0130    0.0000 C.ar    1  LIG1        0.0062
     12 S          -0.5170    0.2540    0.0000 S.3     1  LIG1       -0.0098
     13 C          -1.3830    0.7540    0.0000 C.3     1  LIG1        0.1566
     14 C          -1.3830    1.7670    0.0000 C.2     1  LIG1        0.2589
     15 N          -2.2460    2.2670    0.0000 N.am    1  LIG1       -0.1535
     16 C          -2.2460    3.2670    0.0000 C.ar    1  LIG1        0.1859
     17 N          -2.9960    3.9500    0.0000 N.ar    1  LIG1       -0.2209
     18 C          -2.5960    4.8420    0.0000 C.ar    1  LIG1        0.1079
     19 C          -1.5960    4.7500    0.0000 C.ar    1  LIG1        0.0588
     20 S          -1.3830    3.7670    0.0000 S.2     1  LIG1       -0.0491
     21 O          -0.5170    2.2670    0.0000 O.2     1  LIG1       -0.2720
     22 C           1.2420   -1.0830    0.0000 C.ar    1  LIG1        0.1049
     23 C           1.5000   -0.1290    0.0000 C.ar    1  LIG1        0.0322
     24 C           2.4710    0.1290    0.0000 C.ar    1  LIG1        0.0593
     25 C           3.1540   -0.5540    0.0000 C.ar    1  LIG1        0.0146
     26 C           2.8960   -1.5250    0.0000 C.ar    1  LIG1        0.0393
     27 C           1.9380   -1.7830    0.0000 C.ar    1  LIG1        0.1549
     28 O           1.6830   -2.7630    0.0000 O.3     1  LIG1       -0.4700
     29 C           0.7130   -3.0250    0.0000 C.3     1  LIG1        0.2525
     30 CL          2.7580    1.1000    0.0000 Cl      1  LIG1       -0.0822
@<TRIPOS>BOND
     1     1     2   ar
     2     1     5   ar
     3     1    22    1
     4     2     3   ar
     5     2    12    1
     6     3     4   ar
     7     4     5   ar
     8     4     6    1
     9     6     7   ar
    10     6    11   ar
    11     7     8   ar
    12     8     9   ar
    13     9    10   ar
    14    10    11   ar
    15    12    13    1
    16    13    14    1
    17    14    15   am
    18    14    21    2
    19    15    16    1
    20    16    17   ar
    21    16    20   ar
    22    17    18   ar
    23    18    19   ar
    24    19    20   ar
    25    22    23   ar
    26    22    27   ar
    27    23    24   ar
    28    24    25   ar
    29    24    30    1
    30    25    26   ar
    31    26    27   ar
    32    27    28    1
    33    28    29    1
