@<TRIPOS>MOLECULE
31009_ChemDiv_4364-0161
 29 31 0 0 0
SMALL
GASTEIGER
Energy = 0

@<TRIPOS>ATOM
      1 N           2.2960   -1.5000    0.0000 N.am    1  LIG1       -0.1809
      2 C           1.3500   -1.7080    0.0000 C.2     1  LIG1        0.2360
      3 C           1.2420   -2.6920    0.0000 C.3     1  LIG1        0.0954
      4 C           2.1380   -3.1000    0.0000 C.3     1  LIG1        0.0954
      5 C           2.8170   -2.3670    0.0000 C.2     1  LIG1        0.2360
      6 O           3.8170   -2.4710    0.0000 O.2     1  LIG1       -0.2743
      7 O           0.5880   -1.0330    0.0000 O.2     1  LIG1       -0.2743
      8 C           2.8170   -0.6250    0.0000 C.3     1  LIG1        0.2210
      9 N           2.2960    0.2380    0.0000 N.4     1  LIG1        0.3250
     10 C           1.8080    1.1000    0.0000 C.3     1  LIG1        0.1592
     11 C           0.8080    1.1000    0.0000 C.3     1  LIG1        0.2690
     12 O           0.3170    1.9670    0.0000 O.3     1  LIG1       -0.4401
     13 C          -0.6830    1.9670    0.0000 C.2     1  LIG1        0.3489
     14 C          -1.1960    1.1000    0.0000 C.3     1  LIG1        0.2332
     15 C          -2.0580    1.5920    0.0000 C.ar    1  LIG1        0.0153
     16 C          -2.9330    1.1000    0.0000 C.ar    1  LIG1       -0.0014
     17 C          -3.8210    1.5920    0.0000 C.ar    1  LIG1       -0.0002
     18 C          -3.8210    2.5880    0.0000 C.ar    1  LIG1       -0.0000
     19 C          -2.9330    3.1040    0.0000 C.ar    1  LIG1       -0.0002
     20 C          -2.0580    2.5880    0.0000 C.ar    1  LIG1       -0.0014
     21 C          -1.6790    0.2080    0.0000 C.3     1  LIG1        0.0425
     22 C          -1.3920   -0.7420    0.0000 C.3     1  LIG1        0.0033
     23 C          -2.2210   -1.2830    0.0000 C.3     1  LIG1        0.0001
     24 C          -2.9830   -0.7420    0.0000 C.3     1  LIG1        0.0001
     25 C          -2.6830    0.2080    0.0000 C.3     1  LIG1        0.0033
     26 O          -0.3000    0.5920    0.0000 O.3     1  LIG1       -0.2097
     27 O          -1.1960    2.8330    0.0000 O.2     1  LIG1       -0.2470
     28 C           3.1630    0.7500    0.0000 C.3     1  LIG1        0.1729
     29 C           1.4330   -0.2540    0.0000 C.3     1  LIG1        0.1729
@<TRIPOS>BOND
     1     1     2   am
     2     1     5   am
     3     1     8    1
     4     2     3    1
     5     2     7    2
     6     3     4    1
     7     4     5    1
     8     5     6    2
     9     8     9    1
    10     9    10    1
    11     9    28    1
    12     9    29    1
    13    10    11    1
    14    11    12    1
    15    12    13    1
    16    13    14    1
    17    13    27    2
    18    14    15    1
    19    14    21    1
    20    14    26    1
    21    15    16   ar
    22    15    20   ar
    23    16    17   ar
    24    17    18   ar
    25    18    19   ar
    26    19    20   ar
    27    21    22    1
    28    21    25    1
    29    22    23    1
    30    23    24    1
    31    24    25    1
