@<TRIPOS>MOLECULE
31008_ChemDiv_4567-0751
 31 33 0 0 0
SMALL
GASTEIGER
Energy = 0

@<TRIPOS>ATOM
      1 C           1.7210    0.5290    0.0000 C.ar    1  LIG1        0.1441
      2 C           1.7380   -0.4630    0.0000 C.ar    1  LIG1        0.2953
      3 N           2.6670   -0.7670    0.0000 N.ar    1  LIG1       -0.2134
      4 N           3.2540    0.0420    0.0000 N.ar    1  LIG1       -0.2646
      5 C           2.6670    0.8460    0.0000 C.ar    1  LIG1        0.0746
      6 C           2.9670    1.8000    0.0000 C.3     1  LIG1        0.0532
      7 C           4.2670    0.0420    0.0000 C.3     1  LIG1        0.1518
      8 C           2.9830   -1.7210    0.0000 C.ar    1  LIG1        0.0841
      9 C           2.3000   -2.4630    0.0000 C.ar    1  LIG1        0.0192
     10 C           2.6290   -3.4170    0.0000 C.ar    1  LIG1        0.0015
     11 C           3.6130   -3.6250    0.0000 C.ar    1  LIG1        0.0001
     12 C           4.2790   -2.8710    0.0000 C.ar    1  LIG1        0.0015
     13 C           3.9630   -1.9290    0.0000 C.ar    1  LIG1        0.0192
     14 O           0.9080   -1.0540    0.0000 O.2     1  LIG1       -0.2637
     15 N           0.8960    1.1290    0.0000 N.am    1  LIG1       -0.1716
     16 C           0.0420    0.6290    0.0000 C.2     1  LIG1        0.2678
     17 C          -0.8210    1.1290    0.0000 C.3     1  LIG1        0.2021
     18 N          -1.6960    0.6290    0.0000 N.pl3   1  LIG1       -0.1819
     19 S          -1.6960   -0.3830    0.0000 S.O2    1  LIG1        0.0593
     20 O          -1.1960   -1.2330    0.0000 O.2     1  LIG1       -0.1542
     21 O          -0.7250   -0.6290    0.0000 O.2     1  LIG1       -0.1542
     22 C          -2.5580   -0.8710    0.0000 C.3     1  LIG1        0.1999
     23 C          -2.5580    1.1290    0.0000 C.ar    1  LIG1        0.1028
     24 C          -2.5580    2.1170    0.0000 C.ar    1  LIG1        0.1534
     25 O          -1.7080    2.6250    0.0000 O.3     1  LIG1       -0.4701
     26 C          -1.7080    3.6290    0.0000 C.3     1  LIG1        0.2525
     27 C          -3.4250    2.6250    0.0000 C.ar    1  LIG1        0.0382
     28 C          -4.2830    2.1170    0.0000 C.ar    1  LIG1        0.0032
     29 C          -4.2830    1.1290    0.0000 C.ar    1  LIG1        0.0015
     30 C          -3.4250    0.6290    0.0000 C.ar    1  LIG1        0.0192
     31 O           0.0420   -0.3830    0.0000 O.2     1  LIG1       -0.2711
@<TRIPOS>BOND
     1     1     2   ar
     2     1     5   ar
     3     1    15    1
     4     2     3   ar
     5     2    14    2
     6     3     4   ar
     7     3     8    1
     8     4     5   ar
     9     4     7    1
    10     5     6    1
    11     8     9   ar
    12     8    13   ar
    13     9    10   ar
    14    10    11   ar
    15    11    12   ar
    16    12    13   ar
    17    15    16   am
    18    16    17    1
    19    16    31    2
    20    17    18    1
    21    18    19    1
    22    18    23    1
    23    19    20    2
    24    19    21    2
    25    19    22    1
    26    23    24   ar
    27    23    30   ar
    28    24    25    1
    29    24    27   ar
    30    25    26    1
    31    27    28   ar
    32    28    29   ar
    33    29    30   ar
