@<TRIPOS>MOLECULE
31011_ChemDiv_4364-0166
 22 24 0 0 0
SMALL
GASTEIGER
Energy = 0

@<TRIPOS>ATOM
      1 N          -0.8670    0.0080    0.0000 N.3     1  LIG1       -0.2201
      2 C          -0.0170    0.5080    0.0000 C.3     1  LIG1        0.2228
      3 N           0.8630    0.0080    0.0000 N.4     1  LIG1        0.3939
      4 C           1.7290    0.5080    0.0000 C.3     1  LIG1        0.1714
      5 C           2.5960    0.0080    0.0000 C.ar    1  LIG1        0.0733
      6 C           3.4630    0.5080    0.0000 C.ar    1  LIG1        0.1972
      7 O           3.4630    1.5080    0.0000 O.3     1  LIG1       -0.2867
      8 C           4.3290    0.0080    0.0000 C.ar    1  LIG1        0.0419
      9 C           4.3290   -0.9920    0.0000 C.ar    1  LIG1        0.0033
     10 C           3.4630   -1.4920    0.0000 C.ar    1  LIG1        0.0001
     11 C           2.5960   -0.9920    0.0000 C.ar    1  LIG1        0.0046
     12 C           0.8630   -0.9920    0.0000 C.3     1  LIG1        0.1425
     13 C          -0.0170   -1.5040    0.0000 C.3     1  LIG1        0.0803
     14 C          -0.8670   -0.9920    0.0000 C.3     1  LIG1        0.0839
     15 C          -1.7500    0.5080    0.0000 C.3     1  LIG1        0.1072
     16 C          -2.6000    0.0080    0.0000 C.ar    1  LIG1        0.0330
     17 C          -3.4670    0.4960    0.0000 C.ar    1  LIG1        0.1930
     18 O          -3.4830    1.4960    0.0000 O.3     1  LIG1       -0.2869
     19 C          -4.3330    0.0080    0.0000 C.ar    1  LIG1        0.0417
     20 C          -4.3330   -0.9920    0.0000 C.ar    1  LIG1        0.0033
     21 C          -3.4670   -1.5040    0.0000 C.ar    1  LIG1       -0.0001
     22 C          -2.6000   -0.9920    0.0000 C.ar    1  LIG1        0.0003
@<TRIPOS>BOND
     1     1     2    1
     2     1    14    1
     3     1    15    1
     4     2     3    1
     5     3     4    1
     6     3    12    1
     7     4     5    1
     8     5     6   ar
     9     5    11   ar
    10     6     7    1
    11     6     8   ar
    12     8     9   ar
    13     9    10   ar
    14    10    11   ar
    15    12    13    1
    16    13    14    1
    17    15    16    1
    18    16    17   ar
    19    16    22   ar
    20    17    18    1
    21    17    19   ar
    22    19    20   ar
    23    20    21   ar
    24    21    22   ar
