@<TRIPOS>MOLECULE
31019_ChemDiv_4364-0358
 18 20 0 0 0
SMALL
GASTEIGER
Energy = 0

@<TRIPOS>ATOM
      1 C           0.0080    0.2540    0.0000 C.2     1  LIG1        0.3414
      2 O           0.9040   -0.2500    0.0000 O.3     1  LIG1       -0.4430
      3 C           1.8000    0.2540    0.0000 C.3     1  LIG1        0.2256
      4 C           2.6960   -0.2500    0.0000 C.3     1  LIG1        0.1827
      5 N           3.5920    0.2540    0.0000 N.4     1  LIG1        0.3801
      6 C           3.0000    0.9460    0.0000 C.3     1  LIG1        0.1388
      7 C           2.2580    0.7330    0.0000 C.3     1  LIG1        0.0667
      8 C           1.8000    1.2880    0.0000 C.3     1  LIG1        0.0581
      9 C           2.6960    1.8170    0.0000 C.3     1  LIG1        0.0667
     10 C           3.5920    1.2880    0.0000 C.3     1  LIG1        0.1388
     11 C          -0.8920   -0.2500    0.0000 C.ar    1  LIG1        0.0779
     12 C          -1.8040    0.2540    0.0000 C.ar    1  LIG1        0.0361
     13 C          -2.6830   -0.2500    0.0000 C.ar    1  LIG1        0.1404
     14 F          -3.5960    0.2540    0.0000 F       1  LIG1       -0.2042
     15 C          -2.6830   -1.3040    0.0000 C.ar    1  LIG1        0.0296
     16 C          -1.8040   -1.8130    0.0000 C.ar    1  LIG1        0.0025
     17 C          -0.8920   -1.3040    0.0000 C.ar    1  LIG1        0.0066
     18 O           0.0080    1.2880    0.0000 O.2     1  LIG1       -0.2449
@<TRIPOS>BOND
     1     1     2    1
     2     1    11    1
     3     1    18    2
     4     2     3    1
     5     3     4    1
     6     3     8    1
     7     4     5    1
     8     5     6    1
     9     5    10    1
    10     6     7    1
    11     7     8    1
    12     8     9    1
    13     9    10    1
    14    11    12   ar
    15    11    17   ar
    16    12    13   ar
    17    13    14    1
    18    13    15   ar
    19    15    16   ar
    20    16    17   ar
