@<TRIPOS>MOLECULE
31017_ChemDiv_4900-0038
 18 21 0 0 0
SMALL
GASTEIGER
Energy = 0

@<TRIPOS>ATOM
      1 N           0.2710   -1.2580    0.0000 N.ar    1  LIG1       -0.3173
      2 C           0.9790   -0.5790    0.0000 C.ar    1  LIG1        0.1428
      3 C           0.7580    0.3920    0.0000 C.ar    1  LIG1        0.0070
      4 C          -0.2880    0.3920    0.0000 C.ar    1  LIG1        0.0166
      5 C          -0.6130   -0.6580    0.0000 C.ar    1  LIG1        0.0601
      6 C          -1.5580   -0.8710    0.0000 C.ar    1  LIG1        0.0203
      7 C          -2.2540   -0.1500    0.0000 C.ar    1  LIG1        0.0384
      8 C          -1.9710    0.8210    0.0000 C.ar    1  LIG1        0.1388
      9 C          -0.9790    1.0420    0.0000 C.ar    1  LIG1        0.0381
     10 O          -2.6500    1.5500    0.0000 O.3     1  LIG1       -0.4714
     11 C          -2.3670    2.5080    0.0000 C.3     1  LIG1        0.2525
     12 C           1.4790    1.0790    0.0000 C.3     1  LIG1        0.0859
     13 C           2.4130    0.7880    0.0000 C.3     1  LIG1        0.2680
     14 N           2.6460   -0.1750    0.0000 N.2     1  LIG1       -0.0606
     15 C           1.9250   -0.8500    0.0000 C.2     1  LIG1        0.3719
     16 N           2.1290   -1.8170    0.0000 N.pl3   1  LIG1       -0.0282
     17 C           1.4210   -2.5040    0.0000 C.3     1  LIG1        0.2755
     18 C           0.4880   -2.2080    0.0000 C.3     1  LIG1        0.1616
@<TRIPOS>BOND
     1     1     2   ar
     2     1     5   ar
     3     1    18    1
     4     2     3   ar
     5     2    15    1
     6     3     4   ar
     7     3    12    1
     8     4     5   ar
     9     4     9   ar
    10     5     6   ar
    11     6     7   ar
    12     7     8   ar
    13     8     9   ar
    14     8    10    1
    15    10    11    1
    16    12    13    1
    17    13    14    1
    18    14    15    2
    19    15    16    1
    20    16    17    1
    21    17    18    1
