@<TRIPOS>MOLECULE
31014_ChemDiv_5025-0009
 37 41 0 0 0
SMALL
GASTEIGER
Energy = 0

@<TRIPOS>ATOM
      1 C           2.3130    1.7580    0.0000 C.ar    1  LIG1        0.1656
      2 C           2.3710    2.7500    0.0000 C.ar    1  LIG1        0.1383
      3 C           3.3420    3.0080    0.0000 C.ar    1  LIG1        0.0382
      4 C           3.8710    2.1750    0.0000 C.ar    1  LIG1        0.0626
      5 N           3.2500    1.3960    0.0000 N.ar    1  LIG1       -0.3110
      6 C           3.5080    0.4250    0.0000 C.3     1  LIG1        0.1122
      7 C           2.7960   -0.2750    0.0000 C.3     1  LIG1        0.0509
      8 C           3.0630   -1.2460    0.0000 C.ar    1  LIG1       -0.0202
      9 C           2.3420   -1.9420    0.0000 C.ar    1  LIG1       -0.0042
     10 C           2.6000   -2.9040    0.0000 C.ar    1  LIG1       -0.0003
     11 C           3.5670   -3.1670    0.0000 C.ar    1  LIG1       -0.0000
     12 C           4.2750   -2.4540    0.0000 C.ar    1  LIG1       -0.0003
     13 C           4.0170   -1.4880    0.0000 C.ar    1  LIG1       -0.0042
     14 C           4.8790    2.2210    0.0000 C.ar    1  LIG1        0.0173
     15 C           5.3500    3.0920    0.0000 C.ar    1  LIG1        0.0015
     16 C           4.7960    3.9380    0.0000 C.ar    1  LIG1        0.0001
     17 C           3.7960    3.9040    0.0000 C.ar    1  LIG1        0.0031
     18 N           1.5330    3.2960    0.0000 N.ar    1  LIG1       -0.1429
     19 N           0.6420    2.8420    0.0000 N.ar    1  LIG1       -0.1217
     20 C           0.5880    1.8580    0.0000 C.ar    1  LIG1        0.2123
     21 N           1.4290    1.3130    0.0000 N.ar    1  LIG1       -0.2008
     22 S          -0.3210    1.4080    0.0000 S.3     1  LIG1       -0.0641
     23 C          -1.1540    1.9670    0.0000 C.3     1  LIG1        0.1521
     24 C          -2.0500    1.5290    0.0000 C.2     1  LIG1        0.2588
     25 N          -2.8710    2.1000    0.0000 N.am    1  LIG1       -0.1521
     26 C          -3.7790    1.6630    0.0000 C.ar    1  LIG1        0.2077
     27 S          -3.8670    0.6670    0.0000 S.2     1  LIG1       -0.0325
     28 C          -4.8330    0.4250    0.0000 C.ar    1  LIG1        0.1236
     29 N          -5.3540    1.2750    0.0000 N.ar    1  LIG1       -0.1434
     30 N          -4.7130    2.0420    0.0000 N.ar    1  LIG1       -0.1239
     31 C          -5.2130   -0.5040    0.0000 C.3     1  LIG1        0.1638
     32 C          -4.5920   -1.2920    0.0000 C.2     1  LIG1        0.3237
     33 O          -3.5920   -1.1380    0.0000 O.2     1  LIG1       -0.2496
     34 O          -4.9540   -2.2130    0.0000 O.3     1  LIG1       -0.4482
     35 C          -4.3380   -3.0000    0.0000 C.3     1  LIG1        0.2086
     36 C          -4.7130   -3.9330    0.0000 C.3     1  LIG1        0.0513
     37 O          -2.1250    0.5420    0.0000 O.2     1  LIG1       -0.2720
@<TRIPOS>BOND
     1     1     2   ar
     2     1     5   ar
     3     1    21   ar
     4     2     3   ar
     5     2    18   ar
     6     3     4   ar
     7     3    17   ar
     8     4     5   ar
     9     4    14   ar
    10     5     6    1
    11     6     7    1
    12     7     8    1
    13     8     9   ar
    14     8    13   ar
    15     9    10   ar
    16    10    11   ar
    17    11    12   ar
    18    12    13   ar
    19    14    15   ar
    20    15    16   ar
    21    16    17   ar
    22    18    19   ar
    23    19    20   ar
    24    20    21   ar
    25    20    22    1
    26    22    23    1
    27    23    24    1
    28    24    25   am
    29    24    37    2
    30    25    26    1
    31    26    27   ar
    32    26    30   ar
    33    27    28   ar
    34    28    29   ar
    35    28    31    1
    36    29    30   ar
    37    31    32    1
    38    32    33    2
    39    32    34    1
    40    34    35    1
    41    35    36    1
