@<TRIPOS>MOLECULE
31012_ChemDiv_4715-0130
 30 33 0 0 0
SMALL
GASTEIGER
Energy = 0

@<TRIPOS>ATOM
      1 C           3.2170    0.1210    0.0000 C.ar    1  LIG1        0.1656
      2 C           3.7130    1.0040    0.0000 C.ar    1  LIG1        0.1383
      3 C           4.7130    0.7790    0.0000 C.ar    1  LIG1        0.0382
      4 C           4.8040   -0.2210    0.0000 C.ar    1  LIG1        0.0627
      5 N           3.8920   -0.6170    0.0000 N.ar    1  LIG1       -0.3094
      6 C           3.6960   -1.6080    0.0000 C.3     1  LIG1        0.1319
      7 C           5.7080   -0.6330    0.0000 C.ar    1  LIG1        0.0173
      8 C           6.5380   -0.0670    0.0000 C.ar    1  LIG1        0.0015
      9 C           6.4170    0.9580    0.0000 C.ar    1  LIG1        0.0001
     10 C           5.5170    1.3500    0.0000 C.ar    1  LIG1        0.0031
     11 N           3.2170    1.8540    0.0000 N.ar    1  LIG1       -0.1429
     12 N           2.2290    1.8540    0.0000 N.ar    1  LIG1       -0.1217
     13 C           1.7170    1.0040    0.0000 C.ar    1  LIG1        0.2123
     14 N           2.2290    0.1210    0.0000 N.ar    1  LIG1       -0.2008
     15 S           0.6920    1.0040    0.0000 S.3     1  LIG1       -0.0641
     16 C           0.1920    1.8540    0.0000 C.3     1  LIG1        0.1521
     17 C          -0.8080    1.8540    0.0000 C.2     1  LIG1        0.2588
     18 N          -1.3080    1.0040    0.0000 N.am    1  LIG1       -0.1521
     19 C          -2.3130    1.0040    0.0000 C.ar    1  LIG1        0.2077
     20 S          -2.9250    0.1830    0.0000 S.2     1  LIG1       -0.0325
     21 C          -3.8630    0.5920    0.0000 C.ar    1  LIG1        0.1236
     22 N          -3.8330    1.5540    0.0000 N.ar    1  LIG1       -0.1434
     23 N          -2.8130    1.8210    0.0000 N.ar    1  LIG1       -0.1239
     24 C          -4.7210    0.1000    0.0000 C.3     1  LIG1        0.1638
     25 C          -4.7210   -0.9040    0.0000 C.2     1  LIG1        0.3237
     26 O          -3.8460   -1.4040    0.0000 O.2     1  LIG1       -0.2496
     27 O          -5.5920   -1.3170    0.0000 O.3     1  LIG1       -0.4482
     28 C          -5.6630   -2.3080    0.0000 C.3     1  LIG1        0.2086
     29 C          -6.5380   -2.7290    0.0000 C.3     1  LIG1        0.0513
     30 O          -1.3080    2.7330    0.0000 O.2     1  LIG1       -0.2720
@<TRIPOS>BOND
     1     1     2   ar
     2     1     5   ar
     3     1    14   ar
     4     2     3   ar
     5     2    11   ar
     6     3     4   ar
     7     3    10   ar
     8     4     5   ar
     9     4     7   ar
    10     5     6    1
    11     7     8   ar
    12     8     9   ar
    13     9    10   ar
    14    11    12   ar
    15    12    13   ar
    16    13    14   ar
    17    13    15    1
    18    15    16    1
    19    16    17    1
    20    17    18   am
    21    17    30    2
    22    18    19    1
    23    19    20   ar
    24    19    23   ar
    25    20    21   ar
    26    21    22   ar
    27    21    24    1
    28    22    23   ar
    29    24    25    1
    30    25    26    2
    31    25    27    1
    32    27    28    1
    33    28    29    1
