@<TRIPOS>MOLECULE
31015_ChemDiv_4364-0216
 19 22 0 0 0
SMALL
GASTEIGER
Energy = 0

@<TRIPOS>ATOM
      1 C           0.7790   -0.1830    0.0000 C.ar    1  LIG1        0.1391
      2 N           0.1830   -0.9880    0.0000 N.ar    1  LIG1       -0.3175
      3 C          -0.7630   -0.6790    0.0000 C.ar    1  LIG1        0.0601
      4 C          -0.7630    0.3130    0.0000 C.ar    1  LIG1        0.0166
      5 C           0.1830    0.6250    0.0000 C.ar    1  LIG1        0.0069
      6 C           0.6000    1.5330    0.0000 C.3     1  LIG1        0.0859
      7 C           1.5880    1.6380    0.0000 C.3     1  LIG1        0.2679
      8 N           2.1670    0.8250    0.0000 N.2     1  LIG1       -0.0636
      9 C           1.7710   -0.0790    0.0000 C.2     1  LIG1        0.3342
     10 N           2.3500   -0.8750    0.0000 N.pl3   1  LIG1       -0.1839
     11 C           1.7710   -1.7960    0.0000 C.3     1  LIG1        0.2270
     12 C           0.6960   -1.7960    0.0000 C.3     1  LIG1        0.1570
     13 C           3.3330   -0.8540    0.0000 C.3     1  LIG1        0.2536
     14 C          -1.6210    0.8080    0.0000 C.ar    1  LIG1        0.0381
     15 C          -2.4790    0.3130    0.0000 C.ar    1  LIG1        0.1388
     16 C          -2.4790   -0.6790    0.0000 C.ar    1  LIG1        0.0384
     17 C          -1.6210   -1.1830    0.0000 C.ar    1  LIG1        0.0203
     18 O          -3.3380    0.8080    0.0000 O.3     1  LIG1       -0.4714
     19 C          -3.3380    1.8000    0.0000 C.3     1  LIG1        0.2525
@<TRIPOS>BOND
     1     1     2   ar
     2     1     5   ar
     3     1     9    1
     4     2     3   ar
     5     2    12    1
     6     3     4   ar
     7     3    17   ar
     8     4     5   ar
     9     4    14   ar
    10     5     6    1
    11     6     7    1
    12     7     8    1
    13     8     9    2
    14     9    10    1
    15    10    11    1
    16    10    13    1
    17    11    12    1
    18    14    15   ar
    19    15    16   ar
    20    15    18    1
    21    16    17   ar
    22    18    19    1
