@<TRIPOS>MOLECULE
31010_ChemDiv_5966-0051
 23 26 0 0 0
SMALL
GASTEIGER
Energy = 0

@<TRIPOS>ATOM
      1 N           0.3670   -1.1500    0.0000 N.ar    1  LIG1       -0.1631
      2 N           0.0960    0.1750    0.0000 N.ar    1  LIG1       -0.1621
      3 C          -0.8830    0.3130    0.0000 C.ar    1  LIG1        0.1013
      4 C          -1.4880   -0.4710    0.0000 C.ar    1  LIG1        0.0240
      5 C          -1.3210   -1.4500    0.0000 C.ar    1  LIG1        0.0592
      6 C          -0.4000   -1.7790    0.0000 C.ar    1  LIG1        0.2809
      7 O          -0.2250   -2.7580    0.0000 O.2     1  LIG1       -0.2653
      8 C          -2.0710   -2.0750    0.0000 C.ar    1  LIG1        0.0048
      9 C          -2.9960   -1.7380    0.0000 C.ar    1  LIG1        0.0002
     10 C          -3.1710   -0.7670    0.0000 C.ar    1  LIG1        0.0001
     11 C          -2.4170   -0.1380    0.0000 C.ar    1  LIG1        0.0017
     12 C          -2.3710    0.8540    0.0000 C.ar    1  LIG1        0.0016
     13 C          -1.4380    1.1250    0.0000 C.ar    1  LIG1        0.0193
     14 C          -1.2000    2.0880    0.0000 C.ar    1  LIG1        0.0016
     15 C          -1.9040    2.7630    0.0000 C.ar    1  LIG1        0.0000
     16 C          -2.8380    2.4830    0.0000 C.ar    1  LIG1        0.0000
     17 C          -3.0790    1.5460    0.0000 C.ar    1  LIG1        0.0000
     18 C           1.2960   -1.4750    0.0000 C.3     1  LIG1        0.2780
     19 N           2.0460   -0.8330    0.0000 N.4     1  LIG1        0.3967
     20 C           2.9790   -1.1500    0.0000 C.3     1  LIG1        0.1416
     21 C           3.1670   -2.1250    0.0000 C.3     1  LIG1        0.0689
     22 C           1.8580    0.1460    0.0000 C.3     1  LIG1        0.1416
     23 C           2.5630    0.8540    0.0000 C.3     1  LIG1        0.0689
@<TRIPOS>BOND
     1     1     2   ar
     2     1     6   ar
     3     1    18    1
     4     2     3   ar
     5     3     4   ar
     6     3    13   ar
     7     4     5   ar
     8     4    11   ar
     9     5     6   ar
    10     5     8   ar
    11     6     7    2
    12     8     9   ar
    13     9    10   ar
    14    10    11   ar
    15    11    12   ar
    16    12    13   ar
    17    12    17   ar
    18    13    14   ar
    19    14    15   ar
    20    15    16   ar
    21    16    17   ar
    22    18    19    1
    23    19    20    1
    24    19    22    1
    25    20    21    1
    26    22    23    1
