@<TRIPOS>MOLECULE
31028_ChemDiv_4567-2114
 28 30 0 0 0
SMALL
GASTEIGER
Energy = 0

@<TRIPOS>ATOM
      1 S          -0.7790   -1.0790    0.0000 S.O2    1  LIG1        0.0592
      2 N          -0.7790   -0.0670    0.0000 N.pl3   1  LIG1       -0.1872
      3 C           0.0960    0.4330    0.0000 C.3     1  LIG1        0.1735
      4 C           0.9500   -0.0670    0.0000 C.2     1  LIG1        0.2653
      5 N           1.8170    0.4330    0.0000 N.am    1  LIG1       -0.1777
      6 C           2.6920   -0.0500    0.0000 C.ar    1  LIG1        0.0766
      7 C           3.5540    0.4380    0.0000 C.ar    1  LIG1        0.0568
      8 C           4.4080   -0.0500    0.0000 C.ar    1  LIG1        0.1777
      9 C           4.4080   -1.0380    0.0000 C.ar    1  LIG1        0.1765
     10 O           5.3750   -1.3540    0.0000 O.3     1  LIG1       -0.4346
     11 C           5.9670   -0.5380    0.0000 C.3     1  LIG1        0.4294
     12 O           5.3750    0.2580    0.0000 O.3     1  LIG1       -0.4346
     13 C           3.5540   -1.5630    0.0000 C.ar    1  LIG1        0.0415
     14 C           2.6920   -1.0580    0.0000 C.ar    1  LIG1        0.0199
     15 O           0.9500   -1.0790    0.0000 O.2     1  LIG1       -0.2711
     16 C           0.0960    1.4380    0.0000 C.3     1  LIG1        0.0333
     17 C          -1.6580    0.4330    0.0000 C.ar    1  LIG1        0.0691
     18 C          -2.5130   -0.0670    0.0000 C.ar    1  LIG1        0.0192
     19 C          -3.3750    0.4330    0.0000 C.ar    1  LIG1        0.0382
     20 C          -3.3750    1.4380    0.0000 C.ar    1  LIG1        0.1386
     21 C          -2.5130    1.9380    0.0000 C.ar    1  LIG1        0.0382
     22 C          -1.6580    1.4380    0.0000 C.ar    1  LIG1        0.0192
     23 O          -4.2500    1.9380    0.0000 O.3     1  LIG1       -0.4755
     24 C          -5.1170    1.4250    0.0000 C.3     1  LIG1        0.2055
     25 C          -5.9710    1.9380    0.0000 C.3     1  LIG1        0.0512
     26 O          -0.2830   -1.9330    0.0000 O.2     1  LIG1       -0.1542
     27 O           0.1790   -1.3250    0.0000 O.2     1  LIG1       -0.1542
     28 C          -1.6420   -1.5670    0.0000 C.3     1  LIG1        0.1999
@<TRIPOS>BOND
     1     1     2    1
     2     1    26    2
     3     1    27    2
     4     1    28    1
     5     2     3    1
     6     2    17    1
     7     3     4    1
     8     3    16    1
     9     4     5   am
    10     4    15    2
    11     5     6    1
    12     6     7   ar
    13     6    14   ar
    14     7     8   ar
    15     8     9   ar
    16     8    12    1
    17     9    10    1
    18     9    13   ar
    19    10    11    1
    20    11    12    1
    21    13    14   ar
    22    17    18   ar
    23    17    22   ar
    24    18    19   ar
    25    19    20   ar
    26    20    21   ar
    27    20    23    1
    28    21    22   ar
    29    23    24    1
    30    24    25    1
