@<TRIPOS>MOLECULE
31020_ChemDiv_4724-4092
 22 25 0 0 0
SMALL
GASTEIGER
Energy = 0

@<TRIPOS>ATOM
      1 N           0.5250   -0.7290    0.0000 N.ar    1  LIG1       -0.3086
      2 C          -0.2830   -1.3130    0.0000 C.ar    1  LIG1        0.0637
      3 C           0.0380   -2.2670    0.0000 C.ar    1  LIG1        0.0187
      4 C           1.0290   -2.2670    0.0000 C.ar    1  LIG1        0.0146
      5 C           1.3330   -1.3130    0.0000 C.ar    1  LIG1        0.0418
      6 C           2.2880   -1.0080    0.0000 C.3     1  LIG1        0.0504
      7 C          -1.2330   -1.0080    0.0000 C.ar    1  LIG1        0.0161
      8 C          -1.4380   -0.0210    0.0000 C.ar    1  LIG1        0.0014
      9 C          -2.3920    0.2880    0.0000 C.ar    1  LIG1        0.0000
     10 C          -3.1380   -0.3790    0.0000 C.ar    1  LIG1        0.0000
     11 C          -2.9330   -1.3580    0.0000 C.ar    1  LIG1        0.0000
     12 C          -1.9670   -1.6750    0.0000 C.ar    1  LIG1        0.0014
     13 C           0.5210    0.2830    0.0000 C.ar    1  LIG1        0.0814
     14 C           1.3920    0.7750    0.0000 C.ar    1  LIG1        0.0973
     15 N           2.2580    0.2670    0.0000 N.ar    1  LIG1       -0.2424
     16 C           3.1330    0.7710    0.0000 C.ar    1  LIG1        0.0989
     17 C           3.1330    1.7630    0.0000 C.ar    1  LIG1        0.0207
     18 C           2.2670    2.2580    0.0000 C.ar    1  LIG1        0.0031
     19 C           1.3920    1.7630    0.0000 C.ar    1  LIG1        0.0191
     20 C           0.5250    2.2710    0.0000 C.ar    1  LIG1        0.0016
     21 C          -0.3290    1.7710    0.0000 C.ar    1  LIG1        0.0016
     22 C          -0.3290    0.7750    0.0000 C.ar    1  LIG1        0.0190
@<TRIPOS>BOND
     1     1     2   ar
     2     1     5   ar
     3     1    13    1
     4     2     3   ar
     5     2     7    1
     6     3     4   ar
     7     4     5   ar
     8     5     6    1
     9     7     8   ar
    10     7    12   ar
    11     8     9   ar
    12     9    10   ar
    13    10    11   ar
    14    11    12   ar
    15    13    14   ar
    16    13    22   ar
    17    14    15   ar
    18    14    19   ar
    19    15    16   ar
    20    16    17   ar
    21    17    18   ar
    22    18    19   ar
    23    19    20   ar
    24    20    21   ar
    25    21    22   ar
