@<TRIPOS>MOLECULE
31031_ChemDiv_4491-0385
 25 28 0 0 0
SMALL
GASTEIGER
Energy = 0

@<TRIPOS>ATOM
      1 C          -0.8750    0.2460    0.0000 C.ar    1  LIG1        0.1349
      2 N          -0.0080   -0.2500    0.0000 N.ar    1  LIG1       -0.2119
      3 C          -0.0080   -1.2540    0.0000 C.ar    1  LIG1        0.1636
      4 N          -0.8750   -1.7540    0.0000 N.ar    1  LIG1       -0.2265
      5 C          -1.7330   -1.2540    0.0000 C.ar    1  LIG1        0.0856
      6 C          -1.7330   -0.2540    0.0000 C.ar    1  LIG1        0.0493
      7 C          -2.6040    0.2460    0.0000 C.ar    1  LIG1        0.0043
      8 C          -3.4670   -0.2630    0.0000 C.ar    1  LIG1        0.0002
      9 C          -3.4670   -1.2670    0.0000 C.ar    1  LIG1        0.0015
     10 C          -2.6040   -1.7670    0.0000 C.ar    1  LIG1        0.0192
     11 C           0.8580   -1.7500    0.0000 C.ar    1  LIG1        0.0359
     12 C           0.8670   -2.7500    0.0000 C.ar    1  LIG1        0.0039
     13 C           1.7290   -3.2420    0.0000 C.ar    1  LIG1        0.0115
     14 C           2.6000   -2.7420    0.0000 C.ar    1  LIG1        0.0577
     15 C           2.5830   -1.7330    0.0000 C.ar    1  LIG1        0.0115
     16 C           1.7210   -1.2420    0.0000 C.ar    1  LIG1        0.0039
     17 CL          3.4630   -3.2420    0.0000 Cl      1  LIG1       -0.0822
     18 N          -0.8880    1.2460    0.0000 N.pl3   1  LIG1       -0.2882
     19 C          -1.7500    1.7460    0.0000 C.3     1  LIG1        0.1216
     20 C          -1.7500    2.7460    0.0000 C.3     1  LIG1        0.1350
     21 O          -0.8920    3.2460    0.0000 O.3     1  LIG1       -0.3552
     22 C          -0.0210    2.7460    0.0000 C.3     1  LIG1        0.1350
     23 C          -0.0210    1.7500    0.0000 C.3     1  LIG1        0.1216
     24 C           0.8420    3.2460    0.0000 C.3     1  LIG1        0.0339
     25 C          -2.6290    3.2460    0.0000 C.3     1  LIG1        0.0339
@<TRIPOS>BOND
     1     1     2   ar
     2     1     6   ar
     3     1    18    1
     4     2     3   ar
     5     3     4   ar
     6     3    11    1
     7     4     5   ar
     8     5     6   ar
     9     5    10   ar
    10     6     7   ar
    11     7     8   ar
    12     8     9   ar
    13     9    10   ar
    14    11    12   ar
    15    11    16   ar
    16    12    13   ar
    17    13    14   ar
    18    14    15   ar
    19    14    17    1
    20    15    16   ar
    21    18    19    1
    22    18    23    1
    23    19    20    1
    24    20    21    1
    25    20    25    1
    26    21    22    1
    27    22    23    1
    28    22    24    1
