@<TRIPOS>MOLECULE
31030_ChemDiv_4567-2452
 32 35 0 0 0
SMALL
GASTEIGER
Energy = 0

@<TRIPOS>ATOM
      1 S          -2.1670    0.4920    0.0000 S.O2    1  LIG1       -0.0577
      2 C          -3.0330    0.9960    0.0000 C.ar    1  LIG1        0.0925
      3 C          -3.8830    0.5080    0.0000 C.ar    1  LIG1        0.0569
      4 C          -4.7710    0.9960    0.0000 C.ar    1  LIG1        0.1736
      5 C          -4.7710    2.0080    0.0000 C.ar    1  LIG1        0.1725
      6 O          -5.6210    2.5040    0.0000 O.3     1  LIG1       -0.4684
      7 C          -6.4790    2.0080    0.0000 C.3     1  LIG1        0.2526
      8 C          -6.4830    0.9960    0.0000 C.3     1  LIG1        0.2526
      9 O          -5.6210    0.5080    0.0000 O.3     1  LIG1       -0.4683
     10 C          -3.8830    2.5040    0.0000 C.ar    1  LIG1        0.0413
     11 C          -3.0290    2.0080    0.0000 C.ar    1  LIG1        0.0202
     12 N          -1.2920    0.9920    0.0000 N.pl3   1  LIG1       -0.5358
     13 C          -0.4290    0.4920    0.0000 C.ar    1  LIG1       -0.1122
     14 C          -0.4290   -0.5170    0.0000 C.ar    1  LIG1       -0.0226
     15 C           0.4250   -1.0080    0.0000 C.ar    1  LIG1        0.0150
     16 C           1.2880   -0.5170    0.0000 C.ar    1  LIG1        0.0892
     17 S           2.1630   -1.0040    0.0000 S.O2    1  LIG1       -0.0578
     18 N           3.0250   -0.5040    0.0000 N.pl3   1  LIG1       -0.5360
     19 C           3.8920   -1.0040    0.0000 C.ar    1  LIG1       -0.1155
     20 C           4.7420   -0.5040    0.0000 C.ar    1  LIG1       -0.0333
     21 C           5.6130   -1.0040    0.0000 C.ar    1  LIG1        0.0520
     22 CL          6.4830   -0.4920    0.0000 Cl      1  LIG1       -0.0826
     23 C           5.6290   -1.9920    0.0000 C.ar    1  LIG1        0.0110
     24 C           4.7580   -2.5000    0.0000 C.ar    1  LIG1       -0.0010
     25 C           3.8790   -1.9920    0.0000 C.ar    1  LIG1       -0.0241
     26 C           4.7420    0.5080    0.0000 C.3     1  LIG1        0.0300
     27 O           2.6670   -1.8710    0.0000 O.2     1  LIG1       -0.1842
     28 O           1.6670   -1.8710    0.0000 O.2     1  LIG1       -0.1842
     29 C           1.2880    0.5080    0.0000 C.ar    1  LIG1        0.0150
     30 C           0.4250    0.9960    0.0000 C.ar    1  LIG1       -0.0226
     31 O          -2.6710   -0.3710    0.0000 O.2     1  LIG1       -0.1842
     32 O          -1.6790   -0.3710    0.0000 O.2     1  LIG1       -0.1842
@<TRIPOS>BOND
     1     1     2    1
     2     1    12    1
     3     1    31    2
     4     1    32    2
     5     2     3   ar
     6     2    11   ar
     7     3     4   ar
     8     4     5   ar
     9     4     9    1
    10     5     6    1
    11     5    10   ar
    12     6     7    1
    13     7     8    1
    14     8     9    1
    15    10    11   ar
    16    12    13    1
    17    13    14   ar
    18    13    30   ar
    19    14    15   ar
    20    15    16   ar
    21    16    17    1
    22    16    29   ar
    23    17    18    1
    24    17    27    2
    25    17    28    2
    26    18    19    1
    27    19    20   ar
    28    19    25   ar
    29    20    21   ar
    30    20    26    1
    31    21    22    1
    32    21    23   ar
    33    23    24   ar
    34    24    25   ar
    35    29    30   ar
