@<TRIPOS>MOLECULE
31035_ChemDiv_5348-0001
 16 18 0 0 0
SMALL
GASTEIGER
Energy = 0

@<TRIPOS>ATOM
      1 N           0.6670    0.3920    0.0000 N.pl3   1  LIG1       -0.3172
      2 C          -0.3130    0.7130    0.0000 C.ar    1  LIG1        0.1617
      3 C          -0.3130    1.7420    0.0000 C.ar    1  LIG1        0.0421
      4 C           0.6580    2.0580    0.0000 C.3     1  LIG1        0.1104
      5 C           1.2670    1.2250    0.0000 C.3     1  LIG1        0.2609
      6 C          -1.2040    2.2540    0.0000 C.ar    1  LIG1        0.0016
      7 C          -2.0960    1.7420    0.0000 C.ar    1  LIG1        0.0001
      8 C          -2.0960    0.7130    0.0000 C.ar    1  LIG1        0.0059
      9 C          -1.2040    0.1880    0.0000 C.ar    1  LIG1        0.0626
     10 C           0.0080   -0.4290    0.0000 C.3     1  LIG1        0.3175
     11 C           0.3750   -1.3920    0.0000 C.3     1  LIG1        0.1889
     12 N           1.3920   -1.5540    0.0000 N.4     1  LIG1        0.3165
     13 C           2.0330   -0.7500    0.0000 C.3     1  LIG1        0.1889
     14 C           1.6630    0.2040    0.0000 C.3     1  LIG1        0.3175
     15 C           1.0630   -2.2500    0.0000 C.3     1  LIG1        0.1713
     16 C           2.0920   -1.8380    0.0000 C.3     1  LIG1        0.1713
@<TRIPOS>BOND
     1     1     2    1
     2     1     5    1
     3     1    10    1
     4     1    14    1
     5     2     3   ar
     6     2     9   ar
     7     3     4    1
     8     3     6   ar
     9     4     5    1
    10     6     7   ar
    11     7     8   ar
    12     8     9   ar
    13    10    11    1
    14    11    12    1
    15    12    13    1
    16    12    15    1
    17    12    16    1
    18    13    14    1
