@<TRIPOS>MOLECULE
31037_ChemDiv_8016-9032
 15 16 0 0 0
SMALL
GASTEIGER
Energy = 0

@<TRIPOS>ATOM
      1 N           1.5630   -0.5540    0.0000 N.am    1  LIG1       -0.2586
      2 C           0.6040   -0.2460    0.0000 C.ar    1  LIG1        0.0499
      3 C           0.6000    0.7580    0.0000 C.ar    1  LIG1       -0.0067
      4 C          -0.2710    1.2460    0.0000 C.ar    1  LIG1       -0.0019
      5 C          -1.1250    0.7500    0.0000 C.ar    1  LIG1        0.0138
      6 C          -1.9960    1.2460    0.0000 C.2     1  LIG1        0.0729
      7 O          -1.9960    2.2500    0.0000 O.co2   1  LIG1       -0.5446
      8 O          -2.8580    0.7500    0.0000 O.co2   1  LIG1       -0.5446
      9 C          -1.1330   -0.2540    0.0000 C.ar    1  LIG1        0.0024
     10 C          -0.2630   -0.7540    0.0000 C.ar    1  LIG1        0.0146
     11 C           1.5500    1.0670    0.0000 C.3     1  LIG1        0.0495
     12 C           2.1420    0.2630    0.0000 C.3     1  LIG1        0.1029
     13 C           1.8750   -1.5000    0.0000 C.2     1  LIG1        0.2298
     14 O           1.2130   -2.2460    0.0000 O.2     1  LIG1       -0.2745
     15 C           2.8540   -1.7000    0.0000 C.3     1  LIG1        0.0952
@<TRIPOS>BOND
     1     1     2    1
     2     1    12    1
     3     1    13   am
     4     2     3   ar
     5     2    10   ar
     6     3     4   ar
     7     3    11    1
     8     4     5   ar
     9     5     6    1
    10     5     9   ar
    11     6     7   ar
    12     6     8   ar
    13     9    10   ar
    14    11    12    1
    15    13    14    2
    16    13    15    1
