@<TRIPOS>MOLECULE
31036_ChemDiv_4567-2745
 23 24 0 0 0
SMALL
GASTEIGER
Energy = 0

@<TRIPOS>ATOM
      1 S          -1.6880   -1.5790    0.0000 S.O2    1  LIG1        0.0593
      2 N          -1.6880   -0.5670    0.0000 N.pl3   1  LIG1       -0.1820
      3 C          -2.5500   -0.0670    0.0000 C.ar    1  LIG1        0.1028
      4 C          -2.5500    0.9210    0.0000 C.ar    1  LIG1        0.1534
      5 O          -1.7040    1.4290    0.0000 O.3     1  LIG1       -0.4701
      6 C          -1.7040    2.4330    0.0000 C.3     1  LIG1        0.2525
      7 C          -3.4210    1.4290    0.0000 C.ar    1  LIG1        0.0382
      8 C          -4.2750    0.9210    0.0000 C.ar    1  LIG1        0.0032
      9 C          -4.2750   -0.0670    0.0000 C.ar    1  LIG1        0.0015
     10 C          -3.4210   -0.5670    0.0000 C.ar    1  LIG1        0.0192
     11 C          -0.8130   -0.0670    0.0000 C.3     1  LIG1        0.2018
     12 C           0.0500   -0.5670    0.0000 C.2     1  LIG1        0.2635
     13 N           0.9000   -0.0670    0.0000 N.am    1  LIG1       -0.2013
     14 C           1.7790   -0.5670    0.0000 C.3     1  LIG1        0.1446
     15 C           2.6540   -0.0630    0.0000 C.3     1  LIG1        0.1369
     16 O           3.4580   -0.6540    0.0000 O.3     1  LIG1       -0.3544
     17 C           4.2710   -0.0630    0.0000 C.3     1  LIG1        0.1422
     18 C           3.9460    0.9000    0.0000 C.3     1  LIG1        0.0346
     19 C           2.9540    0.9000    0.0000 C.3     1  LIG1        0.0340
     20 O           0.0500   -1.5790    0.0000 O.2     1  LIG1       -0.2714
     21 O          -0.7210   -1.8250    0.0000 O.2     1  LIG1       -0.1542
     22 O          -1.1880   -2.4290    0.0000 O.2     1  LIG1       -0.1542
     23 C          -2.5500   -2.0670    0.0000 C.3     1  LIG1        0.1999
@<TRIPOS>BOND
     1     1     2    1
     2     1    21    2
     3     1    22    2
     4     1    23    1
     5     2     3    1
     6     2    11    1
     7     3     4   ar
     8     3    10   ar
     9     4     5    1
    10     4     7   ar
    11     5     6    1
    12     7     8   ar
    13     8     9   ar
    14     9    10   ar
    15    11    12    1
    16    12    13   am
    17    12    20    2
    18    13    14    1
    19    14    15    1
    20    15    16    1
    21    15    19    1
    22    16    17    1
    23    17    18    1
    24    18    19    1
