@<TRIPOS>MOLECULE
31039_ChemDiv_C607-0667
 27 30 0 0 0
SMALL
GASTEIGER
Energy = 0

@<TRIPOS>ATOM
      1 N          -2.0170    0.9210    0.0000 N.am    1  LIG1       -0.2586
      2 C          -1.0580    1.2380    0.0000 C.ar    1  LIG1        0.0499
      3 C          -1.0670    2.2380    0.0000 C.ar    1  LIG1       -0.0067
      4 C          -0.1960    2.7380    0.0000 C.ar    1  LIG1        0.0001
      5 C           0.6670    2.2380    0.0000 C.ar    1  LIG1        0.0404
      6 C           1.5330    2.7420    0.0000 C.2     1  LIG1        0.2296
      7 C           2.4040    2.2540    0.0000 C.3     1  LIG1        0.2089
      8 N           2.4080    1.2540    0.0000 N.4     1  LIG1        0.3860
      9 C           1.5460    0.7500    0.0000 C.3     1  LIG1        0.1611
     10 C           1.5460   -0.2420    0.0000 C.3     1  LIG1        0.1555
     11 N           2.4080   -0.7460    0.0000 N.pl3   1  LIG1       -0.2824
     12 C           2.4080   -1.7460    0.0000 C.ar    1  LIG1        0.1320
     13 N           3.2790   -2.2380    0.0000 N.ar    1  LIG1       -0.2292
     14 C           3.2880   -3.2330    0.0000 C.ar    1  LIG1        0.1003
     15 C           2.4170   -3.7380    0.0000 C.ar    1  LIG1        0.0208
     16 C           1.5460   -3.2420    0.0000 C.ar    1  LIG1        0.0045
     17 C           1.5460   -2.2420    0.0000 C.ar    1  LIG1        0.0343
     18 C           3.2790   -0.2420    0.0000 C.3     1  LIG1        0.1555
     19 C           3.2790    0.7630    0.0000 C.3     1  LIG1        0.1611
     20 O           1.5330    3.7420    0.0000 O.2     1  LIG1       -0.2851
     21 C           0.6670    1.2380    0.0000 C.ar    1  LIG1        0.0043
     22 C          -0.1960    0.7420    0.0000 C.ar    1  LIG1        0.0147
     23 C          -2.0170    2.5420    0.0000 C.3     1  LIG1        0.0495
     24 C          -2.6040    1.7330    0.0000 C.3     1  LIG1        0.1029
     25 C          -2.3170   -0.0290    0.0000 C.2     1  LIG1        0.2298
     26 O          -1.6380   -0.7710    0.0000 O.2     1  LIG1       -0.2745
     27 C          -3.2920   -0.2460    0.0000 C.3     1  LIG1        0.0952
@<TRIPOS>BOND
     1     1     2    1
     2     1    24    1
     3     1    25   am
     4     2     3   ar
     5     2    22   ar
     6     3     4   ar
     7     3    23    1
     8     4     5   ar
     9     5     6    1
    10     5    21   ar
    11     6     7    1
    12     6    20    2
    13     7     8    1
    14     8     9    1
    15     8    19    1
    16     9    10    1
    17    10    11    1
    18    11    12    1
    19    11    18    1
    20    12    13   ar
    21    12    17   ar
    22    13    14   ar
    23    14    15   ar
    24    15    16   ar
    25    16    17   ar
    26    18    19    1
    27    21    22   ar
    28    23    24    1
    29    25    26    2
    30    25    27    1
