@<TRIPOS>MOLECULE
31032_ChemDiv_4567-2823
 34 37 0 0 0
SMALL
GASTEIGER
Energy = 0

@<TRIPOS>ATOM
      1 S           2.5880   -0.2580    0.0000 S.O2    1  LIG1       -0.0577
      2 N           3.4540    0.2420    0.0000 N.pl3   1  LIG1       -0.5334
      3 C           4.3210   -0.2580    0.0000 C.ar    1  LIG1       -0.0744
      4 C           4.3080   -1.2500    0.0000 C.ar    1  LIG1        0.0160
      5 C           5.1880   -1.7580    0.0000 C.ar    1  LIG1        0.1371
      6 C           6.0580   -1.2500    0.0000 C.ar    1  LIG1        0.0399
      7 C           6.0460   -0.2580    0.0000 C.ar    1  LIG1        0.0381
      8 C           5.1710    0.2420    0.0000 C.ar    1  LIG1        0.1169
      9 O           5.1710    1.2540    0.0000 O.3     1  LIG1       -0.4733
     10 C           4.3000    1.7380    0.0000 C.3     1  LIG1        0.2524
     11 O           5.1880   -2.7500    0.0000 O.3     1  LIG1       -0.4715
     12 C           6.0580   -3.2500    0.0000 C.3     1  LIG1        0.2525
     13 C           1.7170    0.2250    0.0000 C.ar    1  LIG1        0.0892
     14 C           1.7170    1.2540    0.0000 C.ar    1  LIG1        0.0150
     15 C           0.8500    1.7420    0.0000 C.ar    1  LIG1       -0.0226
     16 C           0.0000    1.2380    0.0000 C.ar    1  LIG1       -0.1122
     17 N          -0.8670    1.7380    0.0000 N.pl3   1  LIG1       -0.5358
     18 S          -1.7420    1.2380    0.0000 S.O2    1  LIG1       -0.0577
     19 C          -2.6080    1.7420    0.0000 C.ar    1  LIG1        0.0925
     20 C          -3.4580    1.2540    0.0000 C.ar    1  LIG1        0.0569
     21 C          -4.3460    1.7420    0.0000 C.ar    1  LIG1        0.1736
     22 C          -4.3460    2.7540    0.0000 C.ar    1  LIG1        0.1725
     23 O          -5.1960    3.2540    0.0000 O.3     1  LIG1       -0.4684
     24 C          -6.0540    2.7540    0.0000 C.3     1  LIG1        0.2526
     25 C          -6.0580    1.7420    0.0000 C.3     1  LIG1        0.2526
     26 O          -5.1960    1.2540    0.0000 O.3     1  LIG1       -0.4683
     27 C          -3.4580    3.2540    0.0000 C.ar    1  LIG1        0.0413
     28 C          -2.6040    2.7540    0.0000 C.ar    1  LIG1        0.0202
     29 O          -2.2460    0.3750    0.0000 O.2     1  LIG1       -0.1842
     30 O          -1.2540    0.3750    0.0000 O.2     1  LIG1       -0.1842
     31 C           0.0000    0.2250    0.0000 C.ar    1  LIG1       -0.0226
     32 C           0.8500   -0.2630    0.0000 C.ar    1  LIG1        0.0150
     33 O           3.0960   -1.1250    0.0000 O.2     1  LIG1       -0.1842
     34 O           2.0960   -1.1250    0.0000 O.2     1  LIG1       -0.1842
@<TRIPOS>BOND
     1     1     2    1
     2     1    13    1
     3     1    33    2
     4     1    34    2
     5     2     3    1
     6     3     4   ar
     7     3     8   ar
     8     4     5   ar
     9     5     6   ar
    10     5    11    1
    11     6     7   ar
    12     7     8   ar
    13     8     9    1
    14     9    10    1
    15    11    12    1
    16    13    14   ar
    17    13    32   ar
    18    14    15   ar
    19    15    16   ar
    20    16    17    1
    21    16    31   ar
    22    17    18    1
    23    18    19    1
    24    18    29    2
    25    18    30    2
    26    19    20   ar
    27    19    28   ar
    28    20    21   ar
    29    21    22   ar
    30    21    26    1
    31    22    23    1
    32    22    27   ar
    33    23    24    1
    34    24    25    1
    35    25    26    1
    36    27    28   ar
    37    31    32   ar
