@<TRIPOS>MOLECULE
31038_ChemDiv_4577-0301
 24 26 0 0 0
SMALL
GASTEIGER
Energy = 0

@<TRIPOS>ATOM
      1 S          -1.4420   -1.5790    0.0000 S.O2    1  LIG1        0.0593
      2 N          -1.4420   -0.5670    0.0000 N.pl3   1  LIG1       -0.1820
      3 C          -2.3040   -0.0670    0.0000 C.ar    1  LIG1        0.1028
      4 C          -2.3040    0.9210    0.0000 C.ar    1  LIG1        0.1534
      5 O          -1.4580    1.4330    0.0000 O.3     1  LIG1       -0.4701
      6 C          -1.4580    2.4380    0.0000 C.3     1  LIG1        0.2525
      7 C          -3.1750    1.4330    0.0000 C.ar    1  LIG1        0.0382
      8 C          -4.0330    0.9210    0.0000 C.ar    1  LIG1        0.0032
      9 C          -4.0330   -0.0670    0.0000 C.ar    1  LIG1        0.0015
     10 C          -3.1750   -0.5670    0.0000 C.ar    1  LIG1        0.0192
     11 C          -0.5670   -0.0670    0.0000 C.3     1  LIG1        0.2018
     12 C           0.2960   -0.5670    0.0000 C.2     1  LIG1        0.2634
     13 N           1.1500   -0.0670    0.0000 N.am    1  LIG1       -0.2057
     14 C           2.0290   -0.5670    0.0000 C.3     1  LIG1        0.0953
     15 C           2.9000   -0.1290    0.0000 C.3     1  LIG1        0.0200
     16 C           2.9630    1.5710    0.0000 C.3     1  LIG1        0.0018
     17 C           3.1460    0.6630    0.0000 C.3     1  LIG1        0.0018
     18 C           2.4210    0.1750    0.0000 C.3     1  LIG1        0.0217
     19 C           4.0290    0.1580    0.0000 C.3     1  LIG1        0.0001
     20 C           3.6960   -0.5500    0.0000 C.3     1  LIG1        0.0017
     21 O           0.2960   -1.5790    0.0000 O.2     1  LIG1       -0.2714
     22 O          -0.9420   -2.4330    0.0000 O.2     1  LIG1       -0.1542
     23 O          -0.4710   -1.8250    0.0000 O.2     1  LIG1       -0.1542
     24 C          -2.3040   -2.0670    0.0000 C.3     1  LIG1        0.1999
@<TRIPOS>BOND
     1     1     2    1
     2     1    22    2
     3     1    23    2
     4     1    24    1
     5     2     3    1
     6     2    11    1
     7     3     4   ar
     8     3    10   ar
     9     4     5    1
    10     4     7   ar
    11     5     6    1
    12     7     8   ar
    13     8     9   ar
    14     9    10   ar
    15    11    12    1
    16    12    13   am
    17    12    21    2
    18    13    14    1
    19    14    15    1
    20    14    18    1
    21    15    16    1
    22    15    20    1
    23    16    17    1
    24    17    18    1
    25    17    19    1
    26    19    20    1
