@<TRIPOS>MOLECULE
31041_ChemDiv_4385-0154
 25 27 0 0 0
SMALL
GASTEIGER
Energy = 0

@<TRIPOS>ATOM
      1 C          -2.9460   -0.7250    0.0000 C.3     1  LIG1        0.0377
      2 C          -2.1000   -0.2330    0.0000 C.ar    1  LIG1       -0.0188
      3 C          -1.2670   -0.7080    0.0000 C.ar    1  LIG1       -0.0009
      4 C          -0.4080   -0.2330    0.0000 C.ar    1  LIG1        0.0366
      5 C          -0.4080    0.7460    0.0000 C.ar    1  LIG1        0.1387
      6 O           0.4330    1.2420    0.0000 O.3     1  LIG1       -0.4725
      7 C           1.2880    0.7540    0.0000 C.3     1  LIG1        0.2443
      8 C           2.1250    1.2460    0.0000 C.3     1  LIG1        0.2514
      9 C           2.9710    0.7540    0.0000 C.3     1  LIG1        0.1758
     10 N           3.7960    1.2460    0.0000 N.4     1  LIG1        0.3794
     11 C           3.7960    2.2250    0.0000 C.3     1  LIG1        0.1389
     12 C           4.6420    2.7000    0.0000 C.3     1  LIG1        0.0688
     13 C           5.4750    1.2460    0.0000 C.3     1  LIG1        0.0688
     14 C           4.6420    0.7540    0.0000 C.3     1  LIG1        0.1389
     15 O           2.1250    2.2080    0.0000 O.3     1  LIG1       -0.2127
     16 C          -1.2670    1.2210    0.0000 C.ar    1  LIG1        0.0366
     17 C          -2.1000    0.7460    0.0000 C.ar    1  LIG1       -0.0009
     18 C          -3.7880   -1.2250    0.0000 C.ar    1  LIG1       -0.0190
     19 C          -3.7880   -2.2040    0.0000 C.ar    1  LIG1       -0.0040
     20 C          -4.6330   -2.6960    0.0000 C.ar    1  LIG1       -0.0003
     21 C          -5.4710   -2.2040    0.0000 C.ar    1  LIG1       -0.0000
     22 C          -5.4790   -1.2420    0.0000 C.ar    1  LIG1       -0.0003
     23 C          -4.6330   -0.7500    0.0000 C.ar    1  LIG1       -0.0040
     24 C          -2.4460   -1.5710    0.0000 C.3     1  LIG1        0.0088
     25 C          -3.4380    0.1210    0.0000 C.3     1  LIG1        0.0088
@<TRIPOS>BOND
     1     1     2    1
     2     1    18    1
     3     1    24    1
     4     1    25    1
     5     2     3   ar
     6     2    17   ar
     7     3     4   ar
     8     4     5   ar
     9     5     6    1
    10     5    16   ar
    11     6     7    1
    12     7     8    1
    13     8     9    1
    14     8    15    1
    15     9    10    1
    16    10    11    1
    17    10    14    1
    18    11    12    1
    19    12    13    1
    20    13    14    1
    21    16    17   ar
    22    18    19   ar
    23    18    23   ar
    24    19    20   ar
    25    20    21   ar
    26    21    22   ar
    27    22    23   ar
