@<TRIPOS>MOLECULE
31047_ChemDiv_4395-0414
 28 31 0 0 0
SMALL
GASTEIGER
Energy = 0

@<TRIPOS>ATOM
      1 N          -0.8670   -2.7420    0.0000 N.ar    1  LIG1       -0.2423
      2 C          -0.8540   -1.7540    0.0000 C.ar    1  LIG1        0.1004
      3 C          -1.7210   -1.2290    0.0000 C.ar    1  LIG1        0.1179
      4 N          -2.6040   -1.7380    0.0000 N.ar    1  LIG1       -0.2407
      5 C          -2.6040   -2.7250    0.0000 C.ar    1  LIG1        0.0989
      6 C          -1.7460   -3.2500    0.0000 C.ar    1  LIG1        0.0989
      7 C          -1.7460   -4.2380    0.0000 C.ar    1  LIG1        0.0206
      8 C          -2.6210   -4.7330    0.0000 C.ar    1  LIG1        0.0016
      9 C          -3.4880   -4.2290    0.0000 C.ar    1  LIG1        0.0016
     10 C          -3.4710   -3.2250    0.0000 C.ar    1  LIG1        0.0206
     11 C          -0.0080   -1.2540    0.0000 C.ar    1  LIG1        0.0194
     12 C           0.8630   -1.7580    0.0000 C.ar    1  LIG1        0.0047
     13 C           1.7290   -1.2710    0.0000 C.ar    1  LIG1        0.0376
     14 C           1.7460   -0.2460    0.0000 C.ar    1  LIG1        0.1486
     15 O           2.6170    0.2380    0.0000 O.3     1  LIG1       -0.4216
     16 C           2.6330    1.2500    0.0000 C.2     1  LIG1        0.3665
     17 O           3.4830    1.7330    0.0000 O.2     1  LIG1       -0.2455
     18 C           1.7630    1.7330    0.0000 C.3     1  LIG1        0.3145
     19 O           1.7710    2.7210    0.0000 O.3     1  LIG1       -0.4641
     20 C           0.8830    3.2290    0.0000 C.ar    1  LIG1        0.1353
     21 C           0.8830    4.2250    0.0000 C.ar    1  LIG1        0.0121
     22 C           1.7710    4.7330    0.0000 C.3     1  LIG1        0.0342
     23 C           0.0330    4.7330    0.0000 C.ar    1  LIG1       -0.0013
     24 C          -0.8130    4.2250    0.0000 C.ar    1  LIG1       -0.0001
     25 C          -0.8130    3.2290    0.0000 C.ar    1  LIG1        0.0031
     26 C           0.0330    2.7330    0.0000 C.ar    1  LIG1        0.0366
     27 C           0.8790    0.2420    0.0000 C.ar    1  LIG1        0.0376
     28 C           0.0080   -0.2460    0.0000 C.ar    1  LIG1        0.0047
@<TRIPOS>BOND
     1     1     2   ar
     2     1     6   ar
     3     2     3   ar
     4     2    11    1
     5     3     4   ar
     6     4     5   ar
     7     5     6   ar
     8     5    10   ar
     9     6     7   ar
    10     7     8   ar
    11     8     9   ar
    12     9    10   ar
    13    11    12   ar
    14    11    28   ar
    15    12    13   ar
    16    13    14   ar
    17    14    15    1
    18    14    27   ar
    19    15    16    1
    20    16    17    2
    21    16    18    1
    22    18    19    1
    23    19    20    1
    24    20    21   ar
    25    20    26   ar
    26    21    22    1
    27    21    23   ar
    28    23    24   ar
    29    24    25   ar
    30    25    26   ar
    31    27    28   ar
