@<TRIPOS>MOLECULE
31049_ChemDiv_4401-0061
 17 20 0 0 0
SMALL
GASTEIGER
Energy = 0

@<TRIPOS>ATOM
      1 N           0.7290   -0.8670    0.0000 N.ar    1  LIG1       -0.2785
      2 C           1.3170   -0.0790    0.0000 C.ar    1  LIG1        0.0440
      3 C           0.7460    0.7460    0.0000 C.ar    1  LIG1       -0.0088
      4 C          -0.2080    0.4420    0.0000 C.ar    1  LIG1        0.0128
      5 C          -0.2170   -0.5460    0.0000 C.ar    1  LIG1        0.0644
      6 C          -1.0920   -1.0460    0.0000 C.ar    1  LIG1        0.0170
      7 C          -1.9540   -0.5330    0.0000 C.ar    1  LIG1       -0.0028
      8 C          -1.9380    0.4630    0.0000 C.ar    1  LIG1       -0.0218
      9 C          -1.0580    0.9460    0.0000 C.ar    1  LIG1       -0.0031
     10 C          -2.8080    0.9580    0.0000 C.3     1  LIG1        0.0310
     11 C           1.1500    1.6460    0.0000 C.3     1  LIG1        0.0276
     12 C           2.1540    1.7290    0.0000 C.3     1  LIG1        0.0053
     13 C           2.7330    0.9250    0.0000 C.3     1  LIG1        0.0124
     14 C           2.3130    0.0210    0.0000 C.3     1  LIG1        0.1011
     15 C           2.8040   -0.8380    0.0000 C.3     1  LIG1        0.2097
     16 N           2.2960   -1.6880    0.0000 N.4     1  LIG1        0.4687
     17 C           1.2130   -1.7250    0.0000 C.3     1  LIG1        0.3211
@<TRIPOS>BOND
     1     1     2   ar
     2     1     5   ar
     3     1    17    1
     4     2     3   ar
     5     2    14    1
     6     3     4   ar
     7     3    11    1
     8     4     5   ar
     9     4     9   ar
    10     5     6   ar
    11     6     7   ar
    12     7     8   ar
    13     8     9   ar
    14     8    10    1
    15    11    12    1
    16    12    13    1
    17    13    14    1
    18    14    15    1
    19    15    16    1
    20    16    17    1
