@<TRIPOS>MOLECULE
31046_ChemDiv_4748-0771
 16 17 0 0 0
SMALL
GASTEIGER
Energy = 0

@<TRIPOS>ATOM
      1 C           0.0080   -0.2670    0.0000 C.ar    1  LIG1        0.1406
      2 C           0.0250    0.7500    0.0000 C.ar    1  LIG1        0.0960
      3 C          -0.8330    1.2380    0.0000 C.ar    1  LIG1       -0.0083
      4 C          -1.7040    0.7630    0.0000 C.ar    1  LIG1        0.0112
      5 C          -1.7170   -0.2380    0.0000 C.ar    1  LIG1        0.0605
      6 N          -0.8630   -0.7460    0.0000 N.ar    1  LIG1       -0.2343
      7 C          -2.6040   -0.7460    0.0000 C.3     1  LIG1        0.0521
      8 C          -0.8460    2.2540    0.0000 C.3     1  LIG1        0.0319
      9 C           0.8960    1.2580    0.0000 C.1     1  LIG1        0.1029
     10 N           1.7670    1.7750    0.0000 N.1     1  LIG1       -0.1907
     11 N           0.8790   -0.7630    0.0000 N.pl3   1  LIG1       -0.2909
     12 C           0.8580   -1.7420    0.0000 C.3     1  LIG1        0.1038
     13 C           1.7290   -2.2500    0.0000 C.3     1  LIG1        0.0790
     14 S           2.5960   -1.7580    0.0000 S.3     1  LIG1       -0.1366
     15 C           2.6000   -0.7750    0.0000 C.3     1  LIG1        0.0790
     16 C           1.7290   -0.2670    0.0000 C.3     1  LIG1        0.1038
@<TRIPOS>BOND
     1     1     2   ar
     2     1     6   ar
     3     1    11    1
     4     2     3   ar
     5     2     9    1
     6     3     4   ar
     7     3     8    1
     8     4     5   ar
     9     5     6   ar
    10     5     7    1
    11     9    10    3
    12    11    12    1
    13    11    16    1
    14    12    13    1
    15    13    14    1
    16    14    15    1
    17    15    16    1
