@<TRIPOS>MOLECULE
31044_ChemDiv_4739-0226
 17 18 0 0 0
SMALL
GASTEIGER
Energy = 0

@<TRIPOS>ATOM
      1 N           1.7960    1.6500    0.0000 N.am    1  LIG1       -0.6005
      2 C           2.6630    1.1880    0.0000 C.2     1  LIG1        0.0669
      3 O           2.4710    0.1750    0.0000 O.3     1  LIG1       -0.4717
      4 C           1.4580    0.0670    0.0000 C.2     1  LIG1        0.1269
      5 C           1.0540    0.9750    0.0000 C.2     1  LIG1       -0.0495
      6 S           0.0790    1.1750    0.0000 S.2     1  LIG1       -0.0743
      7 C           0.9460   -0.7790    0.0000 C.2     1  LIG1        0.0360
      8 C          -0.0170   -0.7670    0.0000 C.ar    1  LIG1        0.0031
      9 C          -0.5380   -1.6460    0.0000 C.ar    1  LIG1        0.0014
     10 C          -1.5420   -1.6460    0.0000 C.ar    1  LIG1        0.0145
     11 C          -2.0540   -0.7790    0.0000 C.ar    1  LIG1        0.0479
     12 N          -3.0500   -0.7710    0.0000 N.pl3   1  LIG1       -0.3041
     13 C          -3.5540    0.1040    0.0000 C.3     1  LIG1        0.1122
     14 C          -3.5290   -1.6380    0.0000 C.3     1  LIG1        0.1122
     15 C          -1.5290    0.0790    0.0000 C.ar    1  LIG1        0.0145
     16 C          -0.5250    0.0790    0.0000 C.ar    1  LIG1        0.0014
     17 S           3.5500    1.6380    0.0000 S.2     1  LIG1       -0.0370
@<TRIPOS>BOND
     1     1     2    1
     2     1     5    1
     3     2     3    1
     4     2    17    2
     5     3     4    1
     6     4     5    1
     7     4     7    2
     8     5     6    2
     9     7     8    1
    10     8     9   ar
    11     8    16   ar
    12     9    10   ar
    13    10    11   ar
    14    11    12    1
    15    11    15   ar
    16    12    13    1
    17    12    14    1
    18    15    16   ar
