@<TRIPOS>MOLECULE
31042_ChemDiv_4729-1361
 31 34 0 0 0
SMALL
GASTEIGER
Energy = 0

@<TRIPOS>ATOM
      1 N          -1.3330   -0.4290    0.0000 N.am    1  LIG1       -0.2031
      2 C          -0.3380   -0.5630    0.0000 C.2     1  LIG1        0.2419
      3 C           0.1040    0.3250    0.0000 C.3     1  LIG1        0.1581
      4 C          -0.6210    1.0500    0.0000 C.3     1  LIG1        0.2302
      5 C          -1.4920    0.5670    0.0000 C.2     1  LIG1        0.2927
      6 O          -2.4000    0.9880    0.0000 O.2     1  LIG1       -0.2677
      7 N          -0.4710    2.0290    0.0000 N.4     1  LIG1        0.4465
      8 C           0.4460    2.3830    0.0000 C.3     1  LIG1        0.1560
      9 C           1.2380    1.7880    0.0000 C.3     1  LIG1        0.1252
     10 C           2.1500    2.1630    0.0000 C.3     1  LIG1        0.1453
     11 N           2.3000    3.1580    0.0000 N.4     1  LIG1        0.3810
     12 C           3.2290    3.5170    0.0000 C.3     1  LIG1        0.1662
     13 C           4.0290    2.9170    0.0000 C.ar    1  LIG1        0.0344
     14 C           4.9580    3.2920    0.0000 C.ar    1  LIG1        0.0014
     15 C           5.7580    2.6670    0.0000 C.ar    1  LIG1       -0.0001
     16 C           5.6080    1.6960    0.0000 C.ar    1  LIG1       -0.0000
     17 C           4.6960    1.3170    0.0000 C.ar    1  LIG1       -0.0001
     18 C           3.8960    1.9210    0.0000 C.ar    1  LIG1        0.0014
     19 C           1.5040    3.7750    0.0000 C.3     1  LIG1        0.1453
     20 C           0.5750    3.3830    0.0000 C.3     1  LIG1        0.1252
     21 O           0.1460   -1.4540    0.0000 O.2     1  LIG1       -0.2739
     22 C          -2.0170   -1.1460    0.0000 C.ar    1  LIG1        0.0609
     23 C          -2.9960   -0.9250    0.0000 C.ar    1  LIG1        0.0167
     24 C          -3.6960   -1.6290    0.0000 C.ar    1  LIG1        0.0179
     25 C          -3.4130   -2.5880    0.0000 C.ar    1  LIG1        0.0734
     26 N          -4.1000   -3.2880    0.0000 N.am    1  LIG1       -0.1792
     27 C          -5.0750   -3.0670    0.0000 C.2     1  LIG1        0.2461
     28 O          -5.3460   -2.0920    0.0000 O.2     1  LIG1       -0.2730
     29 C          -5.7630   -3.7710    0.0000 C.3     1  LIG1        0.0968
     30 C          -2.4210   -2.8250    0.0000 C.ar    1  LIG1        0.0179
     31 C          -1.7330   -2.1210    0.0000 C.ar    1  LIG1        0.0167
@<TRIPOS>BOND
     1     1     2   am
     2     1     5   am
     3     1    22    1
     4     2     3    1
     5     2    21    2
     6     3     4    1
     7     4     5    1
     8     4     7    1
     9     5     6    2
    10     7     8    1
    11     8     9    1
    12     8    20    1
    13     9    10    1
    14    10    11    1
    15    11    12    1
    16    11    19    1
    17    12    13    1
    18    13    14   ar
    19    13    18   ar
    20    14    15   ar
    21    15    16   ar
    22    16    17   ar
    23    17    18   ar
    24    19    20    1
    25    22    23   ar
    26    22    31   ar
    27    23    24   ar
    28    24    25   ar
    29    25    26    1
    30    25    30   ar
    31    26    27   am
    32    27    28    2
    33    27    29    1
    34    30    31   ar
