@<TRIPOS>MOLECULE
31059_ChemDiv_C607-0717
 22 24 0 0 0
SMALL
GASTEIGER
Energy = 0

@<TRIPOS>ATOM
      1 N          -1.5790   -1.5630    0.0000 N.am    1  LIG1       -0.2586
      2 C          -0.6250   -1.2500    0.0000 C.ar    1  LIG1        0.0499
      3 C          -0.6250   -0.2540    0.0000 C.ar    1  LIG1       -0.0067
      4 C           0.2380    0.2460    0.0000 C.ar    1  LIG1       -0.0001
      5 C           1.1000   -0.2540    0.0000 C.ar    1  LIG1        0.0359
      6 C           1.9750    0.2500    0.0000 C.2     1  LIG1        0.1892
      7 C           1.9710    1.2500    0.0000 C.3     1  LIG1        0.1426
      8 N           1.1080    1.7500    0.0000 N.3     1  LIG1       -0.2561
      9 C           0.2380    1.2500    0.0000 C.3     1  LIG1        0.1362
     10 C          -0.6250    1.7500    0.0000 C.3     1  LIG1        0.1566
     11 N          -0.6250    2.7580    0.0000 N.4     1  LIG1        0.3842
     12 C           0.2460    3.2540    0.0000 C.3     1  LIG1        0.1566
     13 C           1.1080    2.7580    0.0000 C.3     1  LIG1        0.1362
     14 C          -1.5000    3.2630    0.0000 C.3     1  LIG1        0.2024
     15 O           2.8500   -0.2460    0.0000 O.2     1  LIG1       -0.2899
     16 C           1.1000   -1.2500    0.0000 C.ar    1  LIG1        0.0041
     17 C           0.2380   -1.7500    0.0000 C.ar    1  LIG1        0.0147
     18 C          -1.5790    0.0500    0.0000 C.3     1  LIG1        0.0495
     19 C          -2.1580   -0.7500    0.0000 C.3     1  LIG1        0.1029
     20 C          -1.8790   -2.5170    0.0000 C.2     1  LIG1        0.2298
     21 O          -2.8540   -2.7290    0.0000 O.2     1  LIG1       -0.2745
     22 C          -1.2130   -3.2580    0.0000 C.3     1  LIG1        0.0952
@<TRIPOS>BOND
     1     1     2    1
     2     1    19    1
     3     1    20   am
     4     2     3   ar
     5     2    17   ar
     6     3     4   ar
     7     3    18    1
     8     4     5   ar
     9     5     6    1
    10     5    16   ar
    11     6     7    1
    12     6    15    2
    13     7     8    1
    14     8     9    1
    15     8    13    1
    16     9    10    1
    17    10    11    1
    18    11    12    1
    19    11    14    1
    20    12    13    1
    21    16    17   ar
    22    18    19    1
    23    20    21    2
    24    20    22    1
