@<TRIPOS>MOLECULE
31063_ChemDiv_G004-0053
 24 26 0 0 0
SMALL
GASTEIGER
Energy = 0

@<TRIPOS>ATOM
      1 N          -1.9500   -0.3790    0.0000 N.am    1  LIG1       -0.2096
      2 C          -1.3580    0.4330    0.0000 C.3     1  LIG1        0.2384
      3 C          -1.9500    1.2460    0.0000 C.2     1  LIG1        0.2458
      4 C          -2.9040    0.9380    0.0000 C.ar    1  LIG1        0.0562
      5 C          -2.9040   -0.0670    0.0000 C.ar    1  LIG1        0.0622
      6 C          -3.7750   -0.5710    0.0000 C.ar    1  LIG1        0.0152
      7 C          -4.6460   -0.0670    0.0000 C.ar    1  LIG1        0.0013
      8 C          -4.6460    0.9380    0.0000 C.ar    1  LIG1        0.0002
      9 C          -3.7750    1.4420    0.0000 C.ar    1  LIG1        0.0044
     10 O          -1.4460    2.1170    0.0000 O.2     1  LIG1       -0.2833
     11 N          -0.3580    0.4330    0.0000 N.4     1  LIG1        0.3963
     12 C           0.1290   -0.4130    0.0000 C.3     1  LIG1        0.1634
     13 C           1.1290   -0.4290    0.0000 C.3     1  LIG1        0.1595
     14 N           1.6500    0.4170    0.0000 N.am    1  LIG1       -0.2338
     15 C           2.6170    0.4250    0.0000 C.2     1  LIG1        0.4052
     16 O           3.1130   -0.4420    0.0000 O.2     1  LIG1       -0.2262
     17 O           3.1330    1.2670    0.0000 O.3     1  LIG1       -0.4345
     18 C           4.1210    1.2670    0.0000 C.3     1  LIG1        0.2102
     19 C           4.6420    2.1250    0.0000 C.3     1  LIG1        0.0513
     20 C           1.1460    1.2880    0.0000 C.3     1  LIG1        0.1595
     21 C           0.1460    1.3040    0.0000 C.3     1  LIG1        0.1634
     22 C          -1.4460   -1.2500    0.0000 C.2     1  LIG1        0.2341
     23 O          -1.9500   -2.1210    0.0000 O.2     1  LIG1       -0.2744
     24 C          -0.4420   -1.2500    0.0000 C.3     1  LIG1        0.0953
@<TRIPOS>BOND
     1     1     2    1
     2     1     5    1
     3     1    22   am
     4     2     3    1
     5     2    11    1
     6     3     4    1
     7     3    10    2
     8     4     5   ar
     9     4     9   ar
    10     5     6   ar
    11     6     7   ar
    12     7     8   ar
    13     8     9   ar
    14    11    12    1
    15    11    21    1
    16    12    13    1
    17    13    14    1
    18    14    15   am
    19    14    20    1
    20    15    16    2
    21    15    17    1
    22    17    18    1
    23    18    19    1
    24    20    21    1
    25    22    23    2
    26    22    24    1
