@<TRIPOS>MOLECULE
31069_ChemDiv_4513-1457
 30 34 0 0 0
SMALL
GASTEIGER
Energy = 0

@<TRIPOS>ATOM
      1 N           3.3710    0.0960    0.0000 N.am    1  LIG1       -0.2296
      2 C           4.3580    0.1960    0.0000 C.2     1  LIG1        0.2313
      3 C           4.5670    1.1790    0.0000 C.3     1  LIG1        0.0857
      4 C           3.7000    1.6750    0.0000 C.3     1  LIG1        0.0857
      5 C           2.9580    1.0040    0.0000 C.2     1  LIG1        0.2313
      6 O           1.9960    1.2630    0.0000 O.2     1  LIG1       -0.2745
      7 C           3.7000    2.6790    0.0000 C.3     1  LIG1        0.0096
      8 C           4.5670    3.1790    0.0000 C.3     1  LIG1        0.0005
      9 C           5.4250    2.6790    0.0000 C.3     1  LIG1        0.0005
     10 C           5.4250    1.6750    0.0000 C.3     1  LIG1        0.0096
     11 O           5.0670   -0.4960    0.0000 O.2     1  LIG1       -0.2745
     12 C           2.8710   -0.7710    0.0000 C.3     1  LIG1        0.1056
     13 C           1.8790   -0.7710    0.0000 C.3     1  LIG1        0.0496
     14 C           1.3880   -1.6330    0.0000 C.2     1  LIG1       -0.0034
     15 C           0.3920   -1.6330    0.0000 C.2     1  LIG1        0.0006
     16 C           0.0830   -2.5920    0.0000 C.2     1  LIG1        0.0776
     17 N           0.8920   -3.1750    0.0000 N.2     1  LIG1       -0.2445
     18 C           1.6960   -2.5920    0.0000 C.2     1  LIG1        0.0943
     19 C          -0.8880   -2.8000    0.0000 C.2     1  LIG1        0.0216
     20 C          -1.5710   -2.0630    0.0000 C.2     1  LIG1        0.0343
     21 C          -1.2500   -1.1080    0.0000 C.2     1  LIG1        0.1210
     22 C          -0.2670   -0.9000    0.0000 C.3     1  LIG1        0.0914
     23 O          -1.9630   -0.3830    0.0000 O.2     1  LIG1       -0.4746
     24 C          -2.8250   -0.8880    0.0000 C.3     1  LIG1        0.2315
     25 C          -3.7040   -0.3830    0.0000 C.ar    1  LIG1        0.0211
     26 C          -3.6790    0.6250    0.0000 C.ar    1  LIG1       -0.0007
     27 C          -4.5580    1.1170    0.0000 C.ar    1  LIG1       -0.0002
     28 C          -5.4290    0.6250    0.0000 C.ar    1  LIG1       -0.0000
     29 C          -5.4130   -0.3920    0.0000 C.ar    1  LIG1       -0.0002
     30 C          -4.5460   -0.8880    0.0000 C.ar    1  LIG1       -0.0007
@<TRIPOS>BOND
     1     1     2   am
     2     1     5   am
     3     1    12    1
     4     2     3    1
     5     2    11    2
     6     3     4    1
     7     3    10    1
     8     4     5    1
     9     4     7    1
    10     5     6    2
    11     7     8    1
    12     8     9    1
    13     9    10    1
    14    12    13    1
    15    13    14    1
    16    14    15    2
    17    14    18    1
    18    15    16    1
    19    15    22    1
    20    16    17    1
    21    16    19    2
    22    17    18    2
    23    19    20    1
    24    20    21    2
    25    21    22    1
    26    21    23    1
    27    23    24    1
    28    24    25    1
    29    25    26   ar
    30    25    30   ar
    31    26    27   ar
    32    27    28   ar
    33    28    29   ar
    34    29    30   ar
