@<TRIPOS>MOLECULE
31065_ChemDiv_G004-1070
 25 28 0 0 0
SMALL
GASTEIGER
Energy = 0

@<TRIPOS>ATOM
      1 N          -1.9460   -0.3750    0.0000 N.am    1  LIG1       -0.2096
      2 C          -1.3500    0.4330    0.0000 C.3     1  LIG1        0.2384
      3 C          -1.9460    1.2460    0.0000 C.2     1  LIG1        0.2458
      4 C          -2.8960    0.9330    0.0000 C.ar    1  LIG1        0.0562
      5 C          -2.8960   -0.0670    0.0000 C.ar    1  LIG1        0.0622
      6 C          -3.7710   -0.5670    0.0000 C.ar    1  LIG1        0.0152
      7 C          -4.6330   -0.0670    0.0000 C.ar    1  LIG1        0.0013
      8 C          -4.6330    0.9330    0.0000 C.ar    1  LIG1        0.0002
      9 C          -3.7710    1.4420    0.0000 C.ar    1  LIG1        0.0044
     10 O          -1.4460    2.1170    0.0000 O.2     1  LIG1       -0.2833
     11 N          -0.3460    0.4330    0.0000 N.4     1  LIG1        0.3963
     12 C           0.1500   -0.4250    0.0000 C.3     1  LIG1        0.1633
     13 C           1.1420   -0.4250    0.0000 C.3     1  LIG1        0.1567
     14 N           1.6420    0.4420    0.0000 N.pl3   1  LIG1       -0.2667
     15 C           2.6380    0.4420    0.0000 C.ar    1  LIG1        0.2205
     16 N           3.1290    1.3040    0.0000 N.ar    1  LIG1       -0.2121
     17 C           4.1250    1.3040    0.0000 C.ar    1  LIG1        0.1034
     18 C           4.6290    0.4420    0.0000 C.ar    1  LIG1        0.0414
     19 C           4.1290   -0.4170    0.0000 C.ar    1  LIG1        0.1034
     20 N           3.1290   -0.4130    0.0000 N.ar    1  LIG1       -0.2121
     21 C           1.1420    1.3040    0.0000 C.3     1  LIG1        0.1567
     22 C           0.1540    1.3040    0.0000 C.3     1  LIG1        0.1633
     23 C          -1.4460   -1.2420    0.0000 C.2     1  LIG1        0.2341
     24 O          -1.9460   -2.1130    0.0000 O.2     1  LIG1       -0.2744
     25 C          -0.4380   -1.2420    0.0000 C.3     1  LIG1        0.0953
@<TRIPOS>BOND
     1     1     2    1
     2     1     5    1
     3     1    23   am
     4     2     3    1
     5     2    11    1
     6     3     4    1
     7     3    10    2
     8     4     5   ar
     9     4     9   ar
    10     5     6   ar
    11     6     7   ar
    12     7     8   ar
    13     8     9   ar
    14    11    12    1
    15    11    22    1
    16    12    13    1
    17    13    14    1
    18    14    15    1
    19    14    21    1
    20    15    16   ar
    21    15    20   ar
    22    16    17   ar
    23    17    18   ar
    24    18    19   ar
    25    19    20   ar
    26    21    22    1
    27    23    24    2
    28    23    25    1
