@<TRIPOS>MOLECULE
31073_ChemDiv_4418-0008
 33 36 0 0 0
SMALL
GASTEIGER
Energy = 0

@<TRIPOS>ATOM
      1 S           3.4670    0.2710    0.0000 S.O2    1  LIG1       -0.0559
      2 N           4.3330   -0.2290    0.0000 N.pl3   1  LIG1       -0.5049
      3 C           4.3330   -1.2330    0.0000 C.ar    1  LIG1        0.0581
      4 N           5.2040   -1.7290    0.0000 N.ar    1  LIG1       -0.2544
      5 C           5.2210   -2.7330    0.0000 C.ar    1  LIG1        0.0601
      6 C           4.3500   -3.2420    0.0000 C.ar    1  LIG1        0.0294
      7 C           3.4710   -2.7330    0.0000 C.ar    1  LIG1        0.0601
      8 N           3.4710   -1.7290    0.0000 N.ar    1  LIG1       -0.2544
      9 C           2.6040   -3.2420    0.0000 C.3     1  LIG1        0.0521
     10 C           6.0880   -3.2290    0.0000 C.3     1  LIG1        0.0521
     11 C           2.5920    0.7630    0.0000 C.ar    1  LIG1        0.0894
     12 C           1.7170    0.2710    0.0000 C.ar    1  LIG1        0.0182
     13 C           0.8460    0.7630    0.0000 C.ar    1  LIG1        0.0179
     14 C           0.8460    1.7630    0.0000 C.ar    1  LIG1        0.0735
     15 N          -0.0250    2.2500    0.0000 N.am    1  LIG1       -0.1776
     16 C          -0.8880    1.7630    0.0000 C.2     1  LIG1        0.2688
     17 C          -1.7540    2.2500    0.0000 C.3     1  LIG1        0.1975
     18 N          -2.6290    1.7460    0.0000 N.ar    1  LIG1       -0.2690
     19 C          -3.4920    2.2460    0.0000 C.ar    1  LIG1        0.2638
     20 C          -4.3420    1.7630    0.0000 C.ar    1  LIG1        0.0739
     21 C          -4.3420    0.7630    0.0000 C.ar    1  LIG1        0.0876
     22 N          -3.4750    0.2710    0.0000 N.ar    1  LIG1       -0.2252
     23 C          -2.6290    0.7630    0.0000 C.ar    1  LIG1        0.1812
     24 C          -5.2040    0.2540    0.0000 C.ar    1  LIG1        0.0193
     25 C          -6.0880    0.7540    0.0000 C.ar    1  LIG1        0.0015
     26 C          -6.0880    1.7460    0.0000 C.ar    1  LIG1        0.0003
     27 C          -5.2130    2.2500    0.0000 C.ar    1  LIG1        0.0063
     28 O          -3.4750    3.2460    0.0000 O.2     1  LIG1       -0.2669
     29 O          -0.8880    0.7630    0.0000 O.2     1  LIG1       -0.2709
     30 C           1.7080    2.2500    0.0000 C.ar    1  LIG1        0.0179
     31 C           2.5790    1.7670    0.0000 C.ar    1  LIG1        0.0182
     32 O           3.9540    1.1420    0.0000 O.2     1  LIG1       -0.1841
     33 O           2.9540   -0.6000    0.0000 O.2     1  LIG1       -0.1841
@<TRIPOS>BOND
     1     1     2    1
     2     1    11    1
     3     1    32    2
     4     1    33    2
     5     2     3    1
     6     3     4   ar
     7     3     8   ar
     8     4     5   ar
     9     5     6   ar
    10     5    10    1
    11     6     7   ar
    12     7     8   ar
    13     7     9    1
    14    11    12   ar
    15    11    31   ar
    16    12    13   ar
    17    13    14   ar
    18    14    15    1
    19    14    30   ar
    20    15    16   am
    21    16    17    1
    22    16    29    2
    23    17    18    1
    24    18    19   ar
    25    18    23   ar
    26    19    20   ar
    27    19    28    2
    28    20    21   ar
    29    20    27   ar
    30    21    22   ar
    31    21    24   ar
    32    22    23   ar
    33    24    25   ar
    34    25    26   ar
    35    26    27   ar
    36    30    31   ar
