@<TRIPOS>MOLECULE
31077_ChemDiv_5818-0659
 20 23 0 0 0
SMALL
GASTEIGER
Energy = 0

@<TRIPOS>ATOM
      1 C          -0.2580   -0.6080    0.0000 C.ar    1  LIG1        0.1616
      2 C          -0.2580    0.3960    0.0000 C.ar    1  LIG1        0.1166
      3 C          -1.2250    0.7040    0.0000 C.ar    1  LIG1        0.0361
      4 C          -1.7710   -0.0790    0.0000 C.ar    1  LIG1        0.0626
      5 N          -1.2250   -0.9000    0.0000 N.ar    1  LIG1       -0.3115
      6 C          -1.5290   -1.8540    0.0000 C.3     1  LIG1        0.1076
      7 C          -0.8630   -2.6250    0.0000 C.3     1  LIG1        0.0265
      8 C          -2.7790    0.0170    0.0000 C.ar    1  LIG1        0.0170
      9 C          -3.2080    0.9210    0.0000 C.ar    1  LIG1       -0.0028
     10 C          -2.6330    1.7080    0.0000 C.ar    1  LIG1       -0.0217
     11 C          -1.6290    1.6210    0.0000 C.ar    1  LIG1       -0.0012
     12 C          -3.0630    2.6250    0.0000 C.3     1  LIG1        0.0310
     13 N           0.5960    0.8960    0.0000 N.ar    1  LIG1       -0.2408
     14 C           1.4540    0.3960    0.0000 C.ar    1  LIG1        0.0990
     15 C           1.4540   -0.6080    0.0000 C.ar    1  LIG1        0.1005
     16 N           0.5960   -1.1040    0.0000 N.ar    1  LIG1       -0.2252
     17 C           2.3210   -1.1040    0.0000 C.ar    1  LIG1        0.0207
     18 C           3.2040   -0.6080    0.0000 C.ar    1  LIG1        0.0016
     19 C           3.2040    0.3960    0.0000 C.ar    1  LIG1        0.0016
     20 C           2.3210    0.8960    0.0000 C.ar    1  LIG1        0.0206
@<TRIPOS>BOND
     1     1     2   ar
     2     1     5   ar
     3     1    16   ar
     4     2     3   ar
     5     2    13   ar
     6     3     4   ar
     7     3    11   ar
     8     4     5   ar
     9     4     8   ar
    10     5     6    1
    11     6     7    1
    12     8     9   ar
    13     9    10   ar
    14    10    11   ar
    15    10    12    1
    16    13    14   ar
    17    14    15   ar
    18    14    20   ar
    19    15    16   ar
    20    15    17   ar
    21    17    18   ar
    22    18    19   ar
    23    19    20   ar
