@<TRIPOS>MOLECULE
31071_ChemDiv_4514-1498
 24 25 0 0 0
SMALL
GASTEIGER
Energy = 0

@<TRIPOS>ATOM
      1 N           2.1670    0.5170    0.0000 N.am    1  LIG1       -0.1941
      2 C           1.2920    1.0330    0.0000 C.2     1  LIG1        0.2520
      3 C           0.4250    0.5170    0.0000 C.3     1  LIG1        0.1347
      4 S           0.4250   -0.4830    0.0000 S.3     1  LIG1       -0.1290
      5 C           1.2920   -0.9710    0.0000 C.3     1  LIG1        0.0911
      6 C           2.1670   -0.4830    0.0000 C.3     1  LIG1        0.2041
      7 C           3.0250   -0.9830    0.0000 C.2     1  LIG1        0.3379
      8 O           3.0170   -1.9830    0.0000 O.2     1  LIG1       -0.2482
      9 O           3.8750   -0.4830    0.0000 O.3     1  LIG1       -0.4473
     10 C           4.7630   -0.9830    0.0000 C.3     1  LIG1        0.2086
     11 C           5.6290   -0.4830    0.0000 C.3     1  LIG1        0.0513
     12 C          -0.4420    1.0210    0.0000 C.3     1  LIG1        0.1072
     13 C          -1.2960    0.5080    0.0000 C.2     1  LIG1        0.2469
     14 N          -2.1710    1.0210    0.0000 N.am    1  LIG1       -0.1791
     15 C          -3.0380    0.4920    0.0000 C.ar    1  LIG1        0.0743
     16 C          -3.0380   -0.5000    0.0000 C.ar    1  LIG1        0.0288
     17 C          -3.9040   -1.0000    0.0000 C.ar    1  LIG1        0.0695
     18 C          -4.7540   -0.5000    0.0000 C.ar    1  LIG1        0.0683
     19 C          -4.7580    0.4880    0.0000 C.ar    1  LIG1        0.0136
     20 C          -3.8880    1.0040    0.0000 C.ar    1  LIG1        0.0175
     21 CL         -5.6330   -1.0000    0.0000 Cl      1  LIG1       -0.0814
     22 CL         -3.9040   -2.0040    0.0000 Cl      1  LIG1       -0.0813
     23 O          -1.2960   -0.4830    0.0000 O.2     1  LIG1       -0.2729
     24 O           1.2920    2.0080    0.0000 O.2     1  LIG1       -0.2724
@<TRIPOS>BOND
     1     1     2   am
     2     1     6    1
     3     2     3    1
     4     2    24    2
     5     3     4    1
     6     3    12    1
     7     4     5    1
     8     5     6    1
     9     6     7    1
    10     7     8    2
    11     7     9    1
    12     9    10    1
    13    10    11    1
    14    12    13    1
    15    13    14   am
    16    13    23    2
    17    14    15    1
    18    15    16   ar
    19    15    20   ar
    20    16    17   ar
    21    17    18   ar
    22    17    22    1
    23    18    19   ar
    24    18    21    1
    25    19    20   ar
