@<TRIPOS>MOLECULE
31075_ChemDiv_4420-0438
 19 22 0 0 0
SMALL
GASTEIGER
Energy = 0

@<TRIPOS>ATOM
      1 C           0.7380   -0.5790    0.0000 C.ar    1  LIG1        0.1617
      2 C           0.1250    0.1880    0.0000 C.ar    1  LIG1        0.1166
      3 C          -0.8040   -0.1830    0.0000 C.ar    1  LIG1        0.0361
      4 C          -0.7710   -1.1540    0.0000 C.ar    1  LIG1        0.0626
      5 N           0.2000   -1.4250    0.0000 N.ar    1  LIG1       -0.3095
      6 C           0.5460   -2.3710    0.0000 C.3     1  LIG1        0.1319
      7 C          -1.6170   -1.6750    0.0000 C.ar    1  LIG1        0.0170
      8 C          -2.5130   -1.2000    0.0000 C.ar    1  LIG1       -0.0028
      9 C          -2.5330   -0.2330    0.0000 C.ar    1  LIG1       -0.0217
     10 C          -1.6920    0.2920    0.0000 C.ar    1  LIG1       -0.0012
     11 C          -3.4540    0.2080    0.0000 C.3     1  LIG1        0.0310
     12 N           0.4960    1.1380    0.0000 N.ar    1  LIG1       -0.2408
     13 C           1.4670    1.2830    0.0000 C.ar    1  LIG1        0.0990
     14 C           2.0830    0.4920    0.0000 C.ar    1  LIG1        0.1005
     15 N           1.7380   -0.4380    0.0000 N.ar    1  LIG1       -0.2252
     16 C           3.0790    0.6380    0.0000 C.ar    1  LIG1        0.0207
     17 C           3.4500    1.5790    0.0000 C.ar    1  LIG1        0.0016
     18 C           2.8250    2.3750    0.0000 C.ar    1  LIG1        0.0016
     19 C           1.8380    2.2040    0.0000 C.ar    1  LIG1        0.0206
@<TRIPOS>BOND
     1     1     2   ar
     2     1     5   ar
     3     1    15   ar
     4     2     3   ar
     5     2    12   ar
     6     3     4   ar
     7     3    10   ar
     8     4     5   ar
     9     4     7   ar
    10     5     6    1
    11     7     8   ar
    12     8     9   ar
    13     9    10   ar
    14     9    11    1
    15    12    13   ar
    16    13    14   ar
    17    13    19   ar
    18    14    15   ar
    19    14    16   ar
    20    16    17   ar
    21    17    18   ar
    22    18    19   ar
