@<TRIPOS>MOLECULE
31079_ChemDiv_5818-0662
 20 23 0 0 0
SMALL
GASTEIGER
Energy = 0

@<TRIPOS>ATOM
      1 C          -0.2670   -1.3960    0.0000 C.ar    1  LIG1        0.1617
      2 C          -0.2670   -0.3920    0.0000 C.ar    1  LIG1        0.1166
      3 C          -1.2210   -0.1040    0.0000 C.ar    1  LIG1        0.0361
      4 C          -1.7670   -0.8710    0.0000 C.ar    1  LIG1        0.0626
      5 N          -1.2210   -1.7080    0.0000 N.ar    1  LIG1       -0.3095
      6 C          -1.5290   -2.6630    0.0000 C.3     1  LIG1        0.1319
      7 C          -2.7830   -0.7790    0.0000 C.ar    1  LIG1        0.0170
      8 C          -3.2080    0.1290    0.0000 C.ar    1  LIG1       -0.0028
      9 C          -2.6330    0.8960    0.0000 C.ar    1  LIG1       -0.0220
     10 C          -1.6330    0.8000    0.0000 C.ar    1  LIG1       -0.0012
     11 C          -3.0710    1.8250    0.0000 C.3     1  LIG1        0.0264
     12 C          -2.4960    2.6670    0.0000 C.3     1  LIG1        0.0050
     13 N           0.5960    0.1080    0.0000 N.ar    1  LIG1       -0.2408
     14 C           1.4580   -0.3920    0.0000 C.ar    1  LIG1        0.0990
     15 C           1.4580   -1.3960    0.0000 C.ar    1  LIG1        0.1005
     16 N           0.5960   -1.9000    0.0000 N.ar    1  LIG1       -0.2252
     17 C           2.3130   -1.9000    0.0000 C.ar    1  LIG1        0.0207
     18 C           3.2040   -1.3960    0.0000 C.ar    1  LIG1        0.0016
     19 C           3.2040   -0.3920    0.0000 C.ar    1  LIG1        0.0016
     20 C           2.3130    0.1080    0.0000 C.ar    1  LIG1        0.0206
@<TRIPOS>BOND
     1     1     2   ar
     2     1     5   ar
     3     1    16   ar
     4     2     3   ar
     5     2    13   ar
     6     3     4   ar
     7     3    10   ar
     8     4     5   ar
     9     4     7   ar
    10     5     6    1
    11     7     8   ar
    12     8     9   ar
    13     9    10   ar
    14     9    11    1
    15    11    12    1
    16    13    14   ar
    17    14    15   ar
    18    14    20   ar
    19    15    16   ar
    20    15    17   ar
    21    17    18   ar
    22    18    19   ar
    23    19    20   ar
