@<TRIPOS>MOLECULE
31084_ChemDiv_5312-0094
 34 37 0 0 0
SMALL
GASTEIGER
Energy = 0

@<TRIPOS>ATOM
      1 C          -0.8040    1.3460    0.0000 C.ar    1  LIG1        0.1118
      2 C          -0.8040    0.3170    0.0000 C.ar    1  LIG1        0.2689
      3 N          -1.6830   -0.2080    0.0000 N.ar    1  LIG1       -0.2780
      4 C          -2.5380    0.3170    0.0000 C.ar    1  LIG1        0.0469
      5 C          -2.5380    1.3460    0.0000 C.ar    1  LIG1        0.0471
      6 C          -1.6830    1.8420    0.0000 C.ar    1  LIG1        0.0134
      7 C          -3.4210    1.8420    0.0000 C.2     1  LIG1        0.1741
      8 C          -4.2540    1.3460    0.0000 C.3     1  LIG1        0.0695
      9 C          -4.2540    0.3170    0.0000 C.3     1  LIG1        0.0128
     10 C          -3.4210   -0.2080    0.0000 C.3     1  LIG1        0.0447
     11 C          -4.7420   -0.5290    0.0000 C.3     1  LIG1        0.0008
     12 C          -5.1960    0.4670    0.0000 C.3     1  LIG1        0.0008
     13 O          -3.4210    2.8580    0.0000 O.2     1  LIG1       -0.2913
     14 C          -1.6830   -1.1960    0.0000 C.ar    1  LIG1        0.0665
     15 C          -2.5380   -1.7000    0.0000 C.ar    1  LIG1        0.0173
     16 C          -2.5380   -2.7170    0.0000 C.ar    1  LIG1       -0.0028
     17 C          -1.6830   -3.2210    0.0000 C.ar    1  LIG1       -0.0218
     18 C          -0.8040   -2.7170    0.0000 C.ar    1  LIG1       -0.0028
     19 C          -0.8040   -1.7000    0.0000 C.ar    1  LIG1        0.0173
     20 C          -1.7000   -4.2290    0.0000 C.3     1  LIG1        0.0310
     21 O           0.1080   -0.2250    0.0000 O.2     1  LIG1       -0.2665
     22 C           0.1080    1.8630    0.0000 C.2     1  LIG1        0.2736
     23 N           0.9380    1.3630    0.0000 N.am    1  LIG1       -0.1753
     24 C           1.7960    1.8830    0.0000 C.ar    1  LIG1        0.0738
     25 C           2.6750    1.3920    0.0000 C.ar    1  LIG1        0.0180
     26 C           3.5170    1.8960    0.0000 C.ar    1  LIG1        0.0213
     27 C           3.4960    2.8880    0.0000 C.ar    1  LIG1        0.1251
     28 S           4.3500    3.3790    0.0000 S.O2    1  LIG1        0.0935
     29 O           3.8500    4.2290    0.0000 O.2     1  LIG1       -0.1503
     30 O           4.8420    2.5330    0.0000 O.2     1  LIG1       -0.1503
     31 N           5.1920    3.8580    0.0000 N.3     1  LIG1        0.0392
     32 C           2.6210    3.3630    0.0000 C.ar    1  LIG1        0.0213
     33 C           1.7960    2.8580    0.0000 C.ar    1  LIG1        0.0180
     34 O           0.1080    2.8710    0.0000 O.2     1  LIG1       -0.2678
@<TRIPOS>BOND
     1     1     2   ar
     2     1     6   ar
     3     1    22    1
     4     2     3   ar
     5     2    21    2
     6     3     4   ar
     7     3    14    1
     8     4     5   ar
     9     4    10    1
    10     5     6   ar
    11     5     7    1
    12     7     8    1
    13     7    13    2
    14     8     9    1
    15     9    10    1
    16     9    11    1
    17     9    12    1
    18    14    15   ar
    19    14    19   ar
    20    15    16   ar
    21    16    17   ar
    22    17    18   ar
    23    17    20    1
    24    18    19   ar
    25    22    23   am
    26    22    34    2
    27    23    24    1
    28    24    25   ar
    29    24    33   ar
    30    25    26   ar
    31    26    27   ar
    32    27    28    1
    33    27    32   ar
    34    28    29    2
    35    28    30    2
    36    28    31    1
    37    32    33   ar
