@<TRIPOS>MOLECULE
31085_ChemDiv_6153-0089
 21 24 0 0 0
SMALL
GASTEIGER
Energy = 0

@<TRIPOS>ATOM
      1 C           0.6790   -0.2080    0.0000 C.ar    1  LIG1        0.1615
      2 C           0.1000    0.6290    0.0000 C.ar    1  LIG1        0.1166
      3 C          -0.8290    0.2960    0.0000 C.ar    1  LIG1        0.0361
      4 C          -0.8210   -0.7540    0.0000 C.ar    1  LIG1        0.0625
      5 N           0.1080   -1.0540    0.0000 N.ar    1  LIG1       -0.3133
      6 C           0.5960   -1.8960    0.0000 C.3     1  LIG1        0.0870
      7 C           0.1130   -2.7380    0.0000 C.3     1  LIG1        0.0245
      8 C           1.5580   -1.8960    0.0000 C.3     1  LIG1        0.0245
      9 C          -1.6710   -1.2750    0.0000 C.ar    1  LIG1        0.0169
     10 C          -2.5250   -0.7540    0.0000 C.ar    1  LIG1       -0.0028
     11 C          -2.5250    0.2880    0.0000 C.ar    1  LIG1       -0.0217
     12 C          -1.6750    0.8170    0.0000 C.ar    1  LIG1       -0.0012
     13 C          -3.3920    0.7790    0.0000 C.3     1  LIG1        0.0310
     14 N           0.4920    1.5750    0.0000 N.ar    1  LIG1       -0.2408
     15 C           1.4540    1.6920    0.0000 C.ar    1  LIG1        0.0990
     16 C           2.0380    0.8500    0.0000 C.ar    1  LIG1        0.1005
     17 N           1.6420   -0.1000    0.0000 N.ar    1  LIG1       -0.2252
     18 C           2.9960    0.9630    0.0000 C.ar    1  LIG1        0.0207
     19 C           3.3880    1.9130    0.0000 C.ar    1  LIG1        0.0016
     20 C           2.8080    2.7420    0.0000 C.ar    1  LIG1        0.0016
     21 C           1.8500    2.6330    0.0000 C.ar    1  LIG1        0.0206
@<TRIPOS>BOND
     1     1     2   ar
     2     1     5   ar
     3     1    17   ar
     4     2     3   ar
     5     2    14   ar
     6     3     4   ar
     7     3    12   ar
     8     4     5   ar
     9     4     9   ar
    10     5     6    1
    11     6     7    1
    12     6     8    1
    13     9    10   ar
    14    10    11   ar
    15    11    12   ar
    16    11    13    1
    17    14    15   ar
    18    15    16   ar
    19    15    21   ar
    20    16    17   ar
    21    16    18   ar
    22    18    19   ar
    23    19    20   ar
    24    20    21   ar
