@<TRIPOS>MOLECULE
31081_ChemDiv_5818-0663
 21 24 0 0 0
SMALL
GASTEIGER
Energy = 0

@<TRIPOS>ATOM
      1 C          -0.2670   -1.0210    0.0000 C.ar    1  LIG1        0.1616
      2 C          -0.2670   -0.0250    0.0000 C.ar    1  LIG1        0.1166
      3 C          -1.2250    0.2880    0.0000 C.ar    1  LIG1        0.0361
      4 C          -1.7710   -0.5080    0.0000 C.ar    1  LIG1        0.0626
      5 N          -1.2250   -1.3130    0.0000 N.ar    1  LIG1       -0.3115
      6 C          -1.5330   -2.2710    0.0000 C.3     1  LIG1        0.1076
      7 C          -0.8670   -3.0380    0.0000 C.3     1  LIG1        0.0265
      8 C          -2.7790   -0.4040    0.0000 C.ar    1  LIG1        0.0170
      9 C          -3.2040    0.5040    0.0000 C.ar    1  LIG1       -0.0028
     10 C          -2.6290    1.2920    0.0000 C.ar    1  LIG1       -0.0220
     11 C          -1.6330    1.2000    0.0000 C.ar    1  LIG1       -0.0012
     12 C          -3.0670    2.1960    0.0000 C.3     1  LIG1        0.0264
     13 C          -2.4920    3.0420    0.0000 C.3     1  LIG1        0.0050
     14 N           0.5960    0.4750    0.0000 N.ar    1  LIG1       -0.2408
     15 C           1.4580   -0.0250    0.0000 C.ar    1  LIG1        0.0990
     16 C           1.4580   -1.0210    0.0000 C.ar    1  LIG1        0.1005
     17 N           0.5960   -1.5290    0.0000 N.ar    1  LIG1       -0.2252
     18 C           2.3080   -1.5290    0.0000 C.ar    1  LIG1        0.0207
     19 C           3.2000   -1.0210    0.0000 C.ar    1  LIG1        0.0016
     20 C           3.2000   -0.0250    0.0000 C.ar    1  LIG1        0.0016
     21 C           2.3080    0.4750    0.0000 C.ar    1  LIG1        0.0206
@<TRIPOS>BOND
     1     1     2   ar
     2     1     5   ar
     3     1    17   ar
     4     2     3   ar
     5     2    14   ar
     6     3     4   ar
     7     3    11   ar
     8     4     5   ar
     9     4     8   ar
    10     5     6    1
    11     6     7    1
    12     8     9   ar
    13     9    10   ar
    14    10    11   ar
    15    10    12    1
    16    12    13    1
    17    14    15   ar
    18    15    16   ar
    19    15    21   ar
    20    16    17   ar
    21    16    18   ar
    22    18    19   ar
    23    19    20   ar
    24    20    21   ar
