@<TRIPOS>MOLECULE
31086_ChemDiv_8015-7994
 36 39 0 0 0
SMALL
GASTEIGER
Energy = 0

@<TRIPOS>ATOM
      1 C          -0.1460    2.3460    0.0000 C.ar    1  LIG1        0.1118
      2 C          -0.1540    1.3460    0.0000 C.ar    1  LIG1        0.2689
      3 N          -1.0210    0.8460    0.0000 N.ar    1  LIG1       -0.2780
      4 C          -1.8830    1.3460    0.0000 C.ar    1  LIG1        0.0469
      5 C          -1.8790    2.3460    0.0000 C.ar    1  LIG1        0.0471
      6 C          -1.0170    2.8540    0.0000 C.ar    1  LIG1        0.0134
      7 C          -2.7420    2.8580    0.0000 C.2     1  LIG1        0.1741
      8 C          -3.6040    2.3460    0.0000 C.3     1  LIG1        0.0695
      9 C          -3.6040    1.3460    0.0000 C.3     1  LIG1        0.0128
     10 C          -2.7420    0.8540    0.0000 C.3     1  LIG1        0.0447
     11 C          -3.8710    0.3830    0.0000 C.3     1  LIG1        0.0008
     12 C          -4.5790    1.0920    0.0000 C.3     1  LIG1        0.0008
     13 O          -2.7540    3.8580    0.0000 O.2     1  LIG1       -0.2913
     14 C          -1.0290   -0.1500    0.0000 C.ar    1  LIG1        0.0667
     15 C          -1.9040   -0.6420    0.0000 C.ar    1  LIG1        0.0207
     16 C          -1.9040   -1.6380    0.0000 C.ar    1  LIG1        0.0384
     17 C          -1.0420   -2.1420    0.0000 C.ar    1  LIG1        0.1388
     18 C          -0.1670   -1.6420    0.0000 C.ar    1  LIG1        0.0384
     19 C          -0.1670   -0.6420    0.0000 C.ar    1  LIG1        0.0207
     20 O          -1.0460   -3.1420    0.0000 O.3     1  LIG1       -0.4714
     21 C          -0.3420   -3.8540    0.0000 C.3     1  LIG1        0.2525
     22 O           0.7130    0.8420    0.0000 O.2     1  LIG1       -0.2665
     23 C           0.7130    2.8540    0.0000 C.2     1  LIG1        0.2736
     24 N           1.5670    2.3460    0.0000 N.am    1  LIG1       -0.1752
     25 C           2.5750    2.3460    0.0000 C.ar    1  LIG1        0.0780
     26 C           3.0670    1.4790    0.0000 C.ar    1  LIG1        0.0684
     27 C           2.5670    0.6170    0.0000 C.2     1  LIG1        0.2440
     28 O           1.5920    0.3580    0.0000 O.2     1  LIG1       -0.2703
     29 N           3.2670   -0.0880    0.0000 N.am    1  LIG1       -0.3253
     30 C           4.0670    1.4790    0.0000 C.ar    1  LIG1        0.0058
     31 C           4.5750    2.3460    0.0000 C.ar    1  LIG1        0.0002
     32 C           4.0630    3.2170    0.0000 C.ar    1  LIG1        0.0013
     33 C           3.0670    3.2170    0.0000 C.ar    1  LIG1        0.0168
     34 O           0.7040    3.8540    0.0000 O.2     1  LIG1       -0.2678
     35 H           4.2670   -0.0880    0.0000 H       1  LIG1        0.1453
     36 H           3.7670   -0.9540    0.0000 H       1  LIG1        0.1453
@<TRIPOS>BOND
     1     1     2   ar
     2     1     6   ar
     3     1    23    1
     4     2     3   ar
     5     2    22    2
     6     3     4   ar
     7     3    14    1
     8     4     5   ar
     9     4    10    1
    10     5     6   ar
    11     5     7    1
    12     7     8    1
    13     7    13    2
    14     8     9    1
    15     9    10    1
    16     9    11    1
    17     9    12    1
    18    14    15   ar
    19    14    19   ar
    20    15    16   ar
    21    16    17   ar
    22    17    18   ar
    23    17    20    1
    24    18    19   ar
    25    20    21    1
    26    23    24   am
    27    23    34    2
    28    24    25    1
    29    25    26   ar
    30    25    33   ar
    31    26    27    1
    32    26    30   ar
    33    27    28    2
    34    27    29   am
    35    29    35    1
    36    29    36    1
    37    30    31   ar
    38    31    32   ar
    39    32    33   ar
