@<TRIPOS>MOLECULE
31089_ChemDiv_6049-2354
 15 16 0 0 0
SMALL
GASTEIGER
Energy = 0

@<TRIPOS>ATOM
      1 C          -0.2630    0.4380    0.0000 C.2     1  LIG1        0.3275
      2 N          -1.2580    0.4380    0.0000 N.am    1  LIG1       -0.2608
      3 C          -1.7500    1.3130    0.0000 C.3     1  LIG1        0.1067
      4 C          -2.7540    1.2920    0.0000 C.3     1  LIG1        0.0791
      5 S          -3.2420    0.4290    0.0000 S.3     1  LIG1       -0.1366
      6 C          -2.7460   -0.4460    0.0000 C.3     1  LIG1        0.0791
      7 C          -1.7500   -0.4380    0.0000 C.3     1  LIG1        0.1067
      8 N           0.2380   -0.4290    0.0000 N.am    1  LIG1       -0.1622
      9 C           1.2380   -0.4290    0.0000 C.ar    1  LIG1        0.0749
     10 C           1.7420    0.4290    0.0000 C.ar    1  LIG1        0.0166
     11 C           2.7460    0.4290    0.0000 C.ar    1  LIG1        0.0013
     12 C           3.2380   -0.4420    0.0000 C.ar    1  LIG1        0.0001
     13 C           2.7330   -1.2960    0.0000 C.ar    1  LIG1        0.0013
     14 C           1.7290   -1.3080    0.0000 C.ar    1  LIG1        0.0166
     15 O           0.2420    1.3000    0.0000 O.2     1  LIG1       -0.2504
@<TRIPOS>BOND
     1     1     2   am
     2     1     8   am
     3     1    15    2
     4     2     3    1
     5     2     7    1
     6     3     4    1
     7     4     5    1
     8     5     6    1
     9     6     7    1
    10     8     9    1
    11     9    10   ar
    12     9    14   ar
    13    10    11   ar
    14    11    12   ar
    15    12    13   ar
    16    13    14   ar
