@<TRIPOS>MOLECULE
31088_ChemDiv_8017-4167
 37 41 0 0 0
SMALL
GASTEIGER
Energy = 0

@<TRIPOS>ATOM
      1 C           0.8000    1.3130    0.0000 C.ar    1  LIG1        0.1115
      2 C           0.7920    0.3130    0.0000 C.ar    1  LIG1        0.2689
      3 N           1.6540   -0.1920    0.0000 N.ar    1  LIG1       -0.2780
      4 C           2.5250    0.3000    0.0000 C.ar    1  LIG1        0.0469
      5 C           2.5290    1.3000    0.0000 C.ar    1  LIG1        0.0471
      6 C           1.6630    1.8040    0.0000 C.ar    1  LIG1        0.0133
      7 C           3.3960    1.8000    0.0000 C.2     1  LIG1        0.1741
      8 C           4.2670    1.2920    0.0000 C.3     1  LIG1        0.0695
      9 C           4.2580    0.2880    0.0000 C.3     1  LIG1        0.0128
     10 C           3.3920   -0.2130    0.0000 C.3     1  LIG1        0.0447
     11 C           4.9670   -0.4170    0.0000 C.3     1  LIG1        0.0008
     12 C           5.1210    0.8000    0.0000 C.3     1  LIG1        0.0008
     13 O           3.3920    2.8040    0.0000 O.2     1  LIG1       -0.2913
     14 C           1.6500   -1.1920    0.0000 C.ar    1  LIG1        0.0667
     15 C           2.5080   -1.6920    0.0000 C.ar    1  LIG1        0.0207
     16 C           2.5040   -2.6920    0.0000 C.ar    1  LIG1        0.0384
     17 C           1.6380   -3.1920    0.0000 C.ar    1  LIG1        0.1388
     18 C           0.7750   -2.6790    0.0000 C.ar    1  LIG1        0.0384
     19 C           0.7790   -1.6880    0.0000 C.ar    1  LIG1        0.0207
     20 O           1.6290   -4.1920    0.0000 O.3     1  LIG1       -0.4714
     21 C           2.4920   -4.6920    0.0000 C.3     1  LIG1        0.2525
     22 O          -0.0710   -0.1880    0.0000 O.2     1  LIG1       -0.2665
     23 C          -0.0630    1.8130    0.0000 C.2     1  LIG1        0.2694
     24 O          -0.0710    2.8040    0.0000 O.2     1  LIG1       -0.2682
     25 N          -0.9250    1.3000    0.0000 N.am    1  LIG1       -0.2012
     26 C          -1.7960    1.8000    0.0000 C.3     1  LIG1        0.1202
     27 C          -2.6630    1.3130    0.0000 C.3     1  LIG1        0.0510
     28 C          -3.5380    1.8130    0.0000 C.ar    1  LIG1       -0.0054
     29 C          -4.4580    1.4000    0.0000 C.ar    1  LIG1        0.0555
     30 N          -5.1250    2.1460    0.0000 N.ar    1  LIG1       -0.2500
     31 C          -4.6250    3.0130    0.0000 C.ar    1  LIG1        0.0806
     32 C          -3.6500    2.8000    0.0000 C.ar    1  LIG1        0.0149
     33 C          -2.9790    3.5460    0.0000 C.ar    1  LIG1        0.0012
     34 C          -3.2880    4.4790    0.0000 C.ar    1  LIG1        0.0001
     35 C          -4.2750    4.6920    0.0000 C.ar    1  LIG1        0.0015
     36 C          -4.9380    3.9580    0.0000 C.ar    1  LIG1        0.0191
     37 C          -4.7250    0.4380    0.0000 C.3     1  LIG1        0.0518
@<TRIPOS>BOND
     1     1     2   ar
     2     1     6   ar
     3     1    23    1
     4     2     3   ar
     5     2    22    2
     6     3     4   ar
     7     3    14    1
     8     4     5   ar
     9     4    10    1
    10     5     6   ar
    11     5     7    1
    12     7     8    1
    13     7    13    2
    14     8     9    1
    15     9    10    1
    16     9    11    1
    17     9    12    1
    18    14    15   ar
    19    14    19   ar
    20    15    16   ar
    21    16    17   ar
    22    17    18   ar
    23    17    20    1
    24    18    19   ar
    25    20    21    1
    26    23    24    2
    27    23    25   am
    28    25    26    1
    29    26    27    1
    30    27    28    1
    31    28    29   ar
    32    28    32   ar
    33    29    30   ar
    34    29    37    1
    35    30    31   ar
    36    31    32   ar
    37    31    36   ar
    38    32    33   ar
    39    33    34   ar
    40    34    35   ar
    41    35    36   ar
