@<TRIPOS>MOLECULE
31091_ChemDiv_6049-2398
 16 17 0 0 0
SMALL
GASTEIGER
Energy = 0

@<TRIPOS>ATOM
      1 C          -0.7500    0.4420    0.0000 C.2     1  LIG1        0.3275
      2 N          -1.7460    0.4420    0.0000 N.am    1  LIG1       -0.2608
      3 C          -2.2330    1.3170    0.0000 C.3     1  LIG1        0.1067
      4 C          -3.2420    1.2960    0.0000 C.3     1  LIG1        0.0791
      5 S          -3.7290    0.4330    0.0000 S.3     1  LIG1       -0.1366
      6 C          -3.2290   -0.4420    0.0000 C.3     1  LIG1        0.0791
      7 C          -2.2330   -0.4330    0.0000 C.3     1  LIG1        0.1067
      8 N          -0.2460   -0.4290    0.0000 N.am    1  LIG1       -0.1622
      9 C           0.7540   -0.4290    0.0000 C.ar    1  LIG1        0.0750
     10 C           1.2500   -1.3130    0.0000 C.ar    1  LIG1        0.0175
     11 C           2.2630   -1.3000    0.0000 C.ar    1  LIG1        0.0127
     12 C           2.7670   -0.4420    0.0000 C.ar    1  LIG1        0.0578
     13 CL          3.7250   -0.4500    0.0000 Cl      1  LIG1       -0.0822
     14 C           2.2710    0.4330    0.0000 C.ar    1  LIG1        0.0127
     15 C           1.2630    0.4330    0.0000 C.ar    1  LIG1        0.0175
     16 O          -0.2420    1.3040    0.0000 O.2     1  LIG1       -0.2504
@<TRIPOS>BOND
     1     1     2   am
     2     1     8   am
     3     1    16    2
     4     2     3    1
     5     2     7    1
     6     3     4    1
     7     4     5    1
     8     5     6    1
     9     6     7    1
    10     8     9    1
    11     9    10   ar
    12     9    15   ar
    13    10    11   ar
    14    11    12   ar
    15    12    13    1
    16    12    14   ar
    17    14    15   ar
