@<TRIPOS>MOLECULE
31095_ChemDiv_8009-5662
 22 23 0 0 0
SMALL
GASTEIGER
Energy = 0

@<TRIPOS>ATOM
      1 N           1.8080    0.4750    0.0000 N.am    1  LIG1       -0.1941
      2 C           0.9250    0.9830    0.0000 C.2     1  LIG1        0.2520
      3 C           0.0210    0.4540    0.0000 C.3     1  LIG1        0.1347
      4 S           0.0210   -0.5040    0.0000 S.3     1  LIG1       -0.1290
      5 C           0.9250   -1.0130    0.0000 C.3     1  LIG1        0.0911
      6 C           1.7920   -0.4830    0.0000 C.3     1  LIG1        0.2041
      7 C           2.6790   -0.9330    0.0000 C.2     1  LIG1        0.3379
      8 O           2.6790   -1.9790    0.0000 O.2     1  LIG1       -0.2482
      9 O           3.4080   -0.3130    0.0000 O.3     1  LIG1       -0.4473
     10 C           4.3420   -0.6250    0.0000 C.3     1  LIG1        0.2086
     11 C           5.1330    0.0000    0.0000 C.3     1  LIG1        0.0513
     12 C          -0.8500    0.9710    0.0000 C.3     1  LIG1        0.1072
     13 C          -1.6670    0.4540    0.0000 C.2     1  LIG1        0.2469
     14 N          -2.5710    0.9580    0.0000 N.am    1  LIG1       -0.1792
     15 C          -3.4420    0.3920    0.0000 C.ar    1  LIG1        0.0734
     16 C          -4.3460    0.8460    0.0000 C.ar    1  LIG1        0.0166
     17 C          -5.1380    0.3170    0.0000 C.ar    1  LIG1        0.0013
     18 C          -5.1380   -0.6710    0.0000 C.ar    1  LIG1        0.0001
     19 C          -4.2330   -1.1380    0.0000 C.ar    1  LIG1        0.0013
     20 C          -3.4420   -0.5630    0.0000 C.ar    1  LIG1        0.0166
     21 O          -1.6670   -0.5630    0.0000 O.2     1  LIG1       -0.2729
     22 O           0.9250    1.9830    0.0000 O.2     1  LIG1       -0.2724
@<TRIPOS>BOND
     1     1     2   am
     2     1     6    1
     3     2     3    1
     4     2    22    2
     5     3     4    1
     6     3    12    1
     7     4     5    1
     8     5     6    1
     9     6     7    1
    10     7     8    2
    11     7     9    1
    12     9    10    1
    13    10    11    1
    14    12    13    1
    15    13    14   am
    16    13    21    2
    17    14    15    1
    18    15    16   ar
    19    15    20   ar
    20    16    17   ar
    21    17    18   ar
    22    18    19   ar
    23    19    20   ar
