@<TRIPOS>MOLECULE
31099_ChemDiv_8017-5819
 18 19 0 0 0
SMALL
GASTEIGER
Energy = 0

@<TRIPOS>ATOM
      1 C          -0.8830    2.5040    0.0000 C.2     1  LIG1        0.2515
      2 C          -0.8830    1.5040    0.0000 C.3     1  LIG1        0.1347
      3 C          -0.0080    1.0040    0.0000 C.3     1  LIG1        0.1072
      4 C           0.8540    1.5040    0.0000 C.2     1  LIG1        0.2469
      5 N           1.7290    1.0040    0.0000 N.am    1  LIG1       -0.1792
      6 C           1.7290    0.0000    0.0000 C.ar    1  LIG1        0.0735
      7 C           2.5880   -0.4920    0.0000 C.ar    1  LIG1        0.0189
      8 C           2.5880   -1.5000    0.0000 C.ar    1  LIG1        0.0310
      9 C           1.7290   -2.0000    0.0000 C.ar    1  LIG1        0.1402
     10 F           1.7290   -3.0000    0.0000 F       1  LIG1       -0.2042
     11 C           0.8500   -1.5000    0.0000 C.ar    1  LIG1        0.0310
     12 C           0.8540   -0.4920    0.0000 C.ar    1  LIG1        0.0189
     13 O           0.8630    2.5040    0.0000 O.2     1  LIG1       -0.2729
     14 S          -1.7460    1.0040    0.0000 S.3     1  LIG1       -0.1295
     15 C          -2.5920    1.5040    0.0000 C.3     1  LIG1        0.0814
     16 C          -2.5920    2.5040    0.0000 C.3     1  LIG1        0.1268
     17 N          -1.7460    3.0040    0.0000 N.am    1  LIG1       -0.2038
     18 O          -0.0080    3.0040    0.0000 O.2     1  LIG1       -0.2724
@<TRIPOS>BOND
     1     1     2    1
     2     1    17   am
     3     1    18    2
     4     2     3    1
     5     2    14    1
     6     3     4    1
     7     4     5   am
     8     4    13    2
     9     5     6    1
    10     6     7   ar
    11     6    12   ar
    12     7     8   ar
    13     8     9   ar
    14     9    10    1
    15     9    11   ar
    16    11    12   ar
    17    14    15    1
    18    15    16    1
    19    16    17    1
