@<TRIPOS>MOLECULE
31093_ChemDiv_8009-0709
 20 21 0 0 0
SMALL
GASTEIGER
Energy = 0

@<TRIPOS>ATOM
      1 C           3.5040    0.6040    0.0000 C.2     1  LIG1        0.2515
      2 C           2.6040    0.0880    0.0000 C.3     1  LIG1        0.1347
      3 C           1.7330    0.5880    0.0000 C.3     1  LIG1        0.1072
      4 C           0.9080    0.0880    0.0000 C.2     1  LIG1        0.2469
      5 N           0.0170    0.5750    0.0000 N.am    1  LIG1       -0.1792
      6 C          -0.8540    0.0210    0.0000 C.ar    1  LIG1        0.0736
      7 C          -0.8540   -0.9460    0.0000 C.ar    1  LIG1        0.0197
      8 C          -1.6420   -1.5170    0.0000 C.ar    1  LIG1        0.0382
      9 C          -2.5500   -1.0500    0.0000 C.ar    1  LIG1        0.1386
     10 C          -2.5500   -0.0580    0.0000 C.ar    1  LIG1        0.0382
     11 C          -1.7540    0.4630    0.0000 C.ar    1  LIG1        0.0197
     12 O          -3.3830   -1.5960    0.0000 O.3     1  LIG1       -0.4755
     13 C          -4.2830   -1.1330    0.0000 C.3     1  LIG1        0.2055
     14 C          -4.3960   -0.1460    0.0000 C.3     1  LIG1        0.0512
     15 O           0.9080   -0.9460    0.0000 O.2     1  LIG1       -0.2729
     16 S           2.6040   -0.8790    0.0000 S.3     1  LIG1       -0.1295
     17 C           3.5040   -1.3960    0.0000 C.3     1  LIG1        0.0814
     18 C           4.3750   -0.8630    0.0000 C.3     1  LIG1        0.1268
     19 N           4.3920    0.1000    0.0000 N.am    1  LIG1       -0.2038
     20 O           3.5040    1.6000    0.0000 O.2     1  LIG1       -0.2724
@<TRIPOS>BOND
     1     1     2    1
     2     1    19   am
     3     1    20    2
     4     2     3    1
     5     2    16    1
     6     3     4    1
     7     4     5   am
     8     4    15    2
     9     5     6    1
    10     6     7   ar
    11     6    11   ar
    12     7     8   ar
    13     8     9   ar
    14     9    10   ar
    15     9    12    1
    16    10    11   ar
    17    12    13    1
    18    13    14    1
    19    16    17    1
    20    17    18    1
    21    18    19    1
