@<TRIPOS>MOLECULE
31097_ChemDiv_8009-6569
 19 20 0 0 0
SMALL
GASTEIGER
Energy = 0

@<TRIPOS>ATOM
      1 C           3.4580   -0.5420    0.0000 C.2     1  LIG1        0.2515
      2 C           2.5920   -0.0250    0.0000 C.3     1  LIG1        0.1347
      3 C           1.7000   -0.5420    0.0000 C.3     1  LIG1        0.1072
      4 C           0.8500   -0.0130    0.0000 C.2     1  LIG1        0.2469
      5 N          -0.0250   -0.5000    0.0000 N.am    1  LIG1       -0.1792
      6 C          -0.8960    0.0000    0.0000 C.ar    1  LIG1        0.0736
      7 C          -0.8880    1.0130    0.0000 C.ar    1  LIG1        0.0197
      8 C          -1.7290    1.5080    0.0000 C.ar    1  LIG1        0.0382
      9 C          -2.6080    1.0330    0.0000 C.ar    1  LIG1        0.1388
     10 C          -2.6210    0.0210    0.0000 C.ar    1  LIG1        0.0382
     11 C          -1.7580   -0.4830    0.0000 C.ar    1  LIG1        0.0197
     12 O          -3.4500    1.5420    0.0000 O.3     1  LIG1       -0.4714
     13 C          -4.3210    1.0580    0.0000 C.3     1  LIG1        0.2525
     14 O           0.8670    0.9880    0.0000 O.2     1  LIG1       -0.2729
     15 S           2.5920    0.9670    0.0000 S.3     1  LIG1       -0.1295
     16 C           3.4580    1.4710    0.0000 C.3     1  LIG1        0.0814
     17 C           4.3170    0.9670    0.0000 C.3     1  LIG1        0.1268
     18 N           4.3170   -0.0250    0.0000 N.am    1  LIG1       -0.2038
     19 O           3.4580   -1.5380    0.0000 O.2     1  LIG1       -0.2724
@<TRIPOS>BOND
     1     1     2    1
     2     1    18   am
     3     1    19    2
     4     2     3    1
     5     2    15    1
     6     3     4    1
     7     4     5   am
     8     4    14    2
     9     5     6    1
    10     6     7   ar
    11     6    11   ar
    12     7     8   ar
    13     8     9   ar
    14     9    10   ar
    15     9    12    1
    16    10    11   ar
    17    12    13    1
    18    15    16    1
    19    16    17    1
    20    17    18    1
