@<TRIPOS>MOLECULE
31108_ChemDiv_K844-1128
 15 16 0 0 0
SMALL
GASTEIGER
Energy = 0

@<TRIPOS>ATOM
      1 C           0.8210   -0.0330    0.0000 C.ar    1  LIG1        0.1528
      2 C          -0.0040    0.4790    0.0000 C.ar    1  LIG1        0.2019
      3 C          -0.8830   -0.0080    0.0000 C.ar    1  LIG1        0.0307
      4 C          -0.8880   -1.0000    0.0000 C.ar    1  LIG1        0.0613
      5 N          -0.0250   -1.5170    0.0000 N.ar    1  LIG1       -0.2123
      6 C           0.8080   -1.0210    0.0000 C.ar    1  LIG1        0.2865
      7 O           1.6460   -1.5170    0.0000 O.2     1  LIG1       -0.2649
      8 C          -1.7750   -1.4920    0.0000 C.3     1  LIG1        0.0457
      9 C          -2.6250   -0.9750    0.0000 C.3     1  LIG1        0.0066
     10 C          -2.6040    0.0130    0.0000 C.3     1  LIG1        0.0052
     11 C          -1.7420    0.5040    0.0000 C.3     1  LIG1        0.0308
     12 O           0.0210    1.4580    0.0000 O.3     1  LIG1       -0.2865
     13 C           1.7330    0.4750    0.0000 C.2     1  LIG1        0.2920
     14 O           1.7500    1.5210    0.0000 O.2     1  LIG1       -0.2664
     15 N           2.6210   -0.0630    0.0000 N.am    1  LIG1       -0.0835
@<TRIPOS>BOND
     1     1     2   ar
     2     1     6   ar
     3     1    13    1
     4     2     3   ar
     5     2    12    1
     6     3     4   ar
     7     3    11    1
     8     4     5   ar
     9     4     8    1
    10     5     6   ar
    11     6     7    2
    12     8     9    1
    13     9    10    1
    14    10    11    1
    15    13    14    2
    16    13    15   am
