@<TRIPOS>MOLECULE
31104_ChemDiv_4577-0723
 23 25 0 0 0
SMALL
GASTEIGER
Energy = 0

@<TRIPOS>ATOM
      1 S          -1.2330   -0.4170    0.0000 S.O2    1  LIG1        0.0770
      2 C          -2.1000    0.0920    0.0000 C.ar    1  LIG1        0.1268
      3 C          -2.9540   -0.4080    0.0000 C.ar    1  LIG1        0.0600
      4 C          -3.8210    0.0920    0.0000 C.ar    1  LIG1        0.1737
      5 C          -3.8210    1.0880    0.0000 C.ar    1  LIG1        0.1725
      6 O          -4.6960    1.5880    0.0000 O.3     1  LIG1       -0.4684
      7 C          -5.5630    1.0880    0.0000 C.3     1  LIG1        0.2526
      8 C          -5.5630    0.0920    0.0000 C.3     1  LIG1        0.2526
      9 O          -4.6960   -0.4170    0.0000 O.3     1  LIG1       -0.4683
     10 C          -2.9540    1.5960    0.0000 C.ar    1  LIG1        0.0414
     11 C          -2.1000    1.0880    0.0000 C.ar    1  LIG1        0.0233
     12 O          -1.7330   -1.2830    0.0000 O.2     1  LIG1       -0.1516
     13 O          -0.7290   -1.2830    0.0000 O.2     1  LIG1       -0.1516
     14 N          -0.3580    0.0920    0.0000 N.3     1  LIG1       -0.0769
     15 C           0.5080   -0.4080    0.0000 C.3     1  LIG1        0.1271
     16 C           1.3670    0.0920    0.0000 C.3     1  LIG1        0.0788
     17 S           2.2290   -0.4080    0.0000 S.3     1  LIG1       -0.1306
     18 C           3.1080    0.0920    0.0000 C.3     1  LIG1        0.1218
     19 C           3.9710   -0.3920    0.0000 C.ar    1  LIG1        0.1339
     20 O           4.8830    0.0080    0.0000 O.2     1  LIG1       -0.4538
     21 C           5.5580   -0.7210    0.0000 C.ar    1  LIG1        0.1792
     22 C           5.0670   -1.5920    0.0000 C.ar    1  LIG1        0.0435
     23 C           4.0920   -1.3920    0.0000 C.ar    1  LIG1        0.0371
@<TRIPOS>BOND
     1     1     2    1
     2     1    12    2
     3     1    13    2
     4     1    14    1
     5     2     3   ar
     6     2    11   ar
     7     3     4   ar
     8     4     5   ar
     9     4     9    1
    10     5     6    1
    11     5    10   ar
    12     6     7    1
    13     7     8    1
    14     8     9    1
    15    10    11   ar
    16    14    15    1
    17    15    16    1
    18    16    17    1
    19    17    18    1
    20    18    19    1
    21    19    20   ar
    22    19    23   ar
    23    20    21   ar
    24    21    22   ar
    25    22    23   ar
