@<TRIPOS>MOLECULE
31109_ChemDiv_4425-0094
 29 32 0 0 0
SMALL
GASTEIGER
Energy = 0

@<TRIPOS>ATOM
      1 N          -0.6500   -0.6960    0.0000 N.ar    1  LIG1       -0.2862
      2 C          -1.5500   -1.1540    0.0000 C.ar    1  LIG1        0.1685
      3 N          -1.3960   -2.1330    0.0000 N.ar    1  LIG1       -0.1282
      4 N          -0.4080   -2.2830    0.0000 N.ar    1  LIG1       -0.1221
      5 C           0.0500   -1.4080    0.0000 C.ar    1  LIG1        0.1938
      6 S           1.0170   -1.1540    0.0000 S.3     1  LIG1       -0.0673
      7 C           1.7250   -1.8630    0.0000 C.3     1  LIG1        0.1340
      8 C           2.6920   -1.6000    0.0000 C.2     1  LIG1        0.1843
      9 C           2.9580   -0.6250    0.0000 C.ar    1  LIG1        0.0356
     10 C           3.9250   -0.3540    0.0000 C.ar    1  LIG1        0.0034
     11 C           4.1830    0.6130    0.0000 C.ar    1  LIG1        0.0068
     12 C           3.4920    1.3210    0.0000 C.ar    1  LIG1        0.0346
     13 C           2.5080    1.0540    0.0000 C.ar    1  LIG1        0.0068
     14 C           2.2540    0.0920    0.0000 C.ar    1  LIG1        0.0034
     15 BR          3.7420    2.2880    0.0000 Br      1  LIG1       -0.0490
     16 O           3.4000   -2.3130    0.0000 O.2     1  LIG1       -0.2904
     17 C          -2.4250   -0.6830    0.0000 C.ar    1  LIG1        0.0551
     18 C          -3.2580   -1.2290    0.0000 C.ar    1  LIG1        0.1019
     19 N          -4.1460   -0.7710    0.0000 N.ar    1  LIG1       -0.2422
     20 C          -4.1880    0.2380    0.0000 C.ar    1  LIG1        0.0989
     21 C          -3.3580    0.7790    0.0000 C.ar    1  LIG1        0.0208
     22 C          -2.4580    0.3170    0.0000 C.ar    1  LIG1        0.0062
     23 C          -0.4920    0.2960    0.0000 C.3     1  LIG1        0.1362
     24 C           0.4420    0.6580    0.0000 C.ar    1  LIG1        0.0005
     25 C           1.4080    0.3920    0.0000 C.ar    1  LIG1       -0.0024
     26 C           2.1130    1.0960    0.0000 C.ar    1  LIG1       -0.0003
     27 C           1.8630    2.0630    0.0000 C.ar    1  LIG1       -0.0000
     28 C           0.8960    2.3170    0.0000 C.ar    1  LIG1       -0.0003
     29 C           0.1960    1.6080    0.0000 C.ar    1  LIG1       -0.0024
@<TRIPOS>BOND
     1     1     2   ar
     2     1     5   ar
     3     1    23    1
     4     2     3   ar
     5     2    17    1
     6     3     4   ar
     7     4     5   ar
     8     5     6    1
     9     6     7    1
    10     7     8    1
    11     8     9    1
    12     8    16    2
    13     9    10   ar
    14     9    14   ar
    15    10    11   ar
    16    11    12   ar
    17    12    13   ar
    18    12    15    1
    19    13    14   ar
    20    17    18   ar
    21    17    22   ar
    22    18    19   ar
    23    19    20   ar
    24    20    21   ar
    25    21    22   ar
    26    23    24    1
    27    24    25   ar
    28    24    29   ar
    29    25    26   ar
    30    26    27   ar
    31    27    28   ar
    32    28    29   ar
