@<TRIPOS>MOLECULE
31102_ChemDiv_4576-0138
 30 33 0 0 0
SMALL
GASTEIGER
Energy = 0

@<TRIPOS>ATOM
      1 C          -1.3130    0.7170    0.0000 C.ar    1  LIG1        0.1410
      2 C          -2.1750    1.2170    0.0000 C.ar    1  LIG1        0.0957
      3 C          -3.0290    0.7000    0.0000 C.ar    1  LIG1       -0.0123
      4 C          -3.0290   -0.2830    0.0000 C.ar    1  LIG1       -0.0077
      5 C          -2.1750   -0.7880    0.0000 C.ar    1  LIG1        0.0784
      6 N          -1.3000   -0.2750    0.0000 N.ar    1  LIG1       -0.2303
      7 C          -2.1750   -1.7790    0.0000 C.ar    1  LIG1        0.0174
      8 C          -3.0170   -2.2830    0.0000 C.ar    1  LIG1        0.0015
      9 C          -3.0170   -3.2830    0.0000 C.ar    1  LIG1        0.0000
     10 C          -2.1670   -3.7710    0.0000 C.ar    1  LIG1        0.0000
     11 C          -1.3000   -3.2670    0.0000 C.ar    1  LIG1        0.0000
     12 C          -1.3130   -2.2830    0.0000 C.ar    1  LIG1        0.0015
     13 C          -3.8790   -0.7920    0.0000 C.3     1  LIG1        0.0276
     14 C          -4.7670   -0.3000    0.0000 C.3     1  LIG1        0.0051
     15 C          -4.7670    0.7000    0.0000 C.3     1  LIG1        0.0050
     16 C          -3.8960    1.2000    0.0000 C.3     1  LIG1        0.0269
     17 C          -2.1920    2.2130    0.0000 C.1     1  LIG1        0.1029
     18 N          -2.1920    3.2250    0.0000 N.1     1  LIG1       -0.1907
     19 N          -0.4460    1.2210    0.0000 N.pl3   1  LIG1       -0.2892
     20 C          -0.4630    2.2380    0.0000 C.3     1  LIG1        0.1137
     21 C           0.3960    2.7420    0.0000 C.3     1  LIG1        0.1149
     22 N           1.2790    2.2500    0.0000 N.am    1  LIG1       -0.2760
     23 C           2.1460    2.7630    0.0000 C.2     1  LIG1        0.2257
     24 O           2.1290    3.7750    0.0000 O.2     1  LIG1       -0.2749
     25 C           3.0250    2.2580    0.0000 C.3     1  LIG1        0.0853
     26 C           3.8790    2.7710    0.0000 C.3     1  LIG1        0.0096
     27 C           4.7500    2.2830    0.0000 C.3     1  LIG1        0.0005
     28 C           4.7630    1.2830    0.0000 C.3     1  LIG1        0.0000
     29 C           1.2960    1.2380    0.0000 C.3     1  LIG1        0.1149
     30 C           0.4250    0.7330    0.0000 C.3     1  LIG1        0.1137
@<TRIPOS>BOND
     1     1     2   ar
     2     1     6   ar
     3     1    19    1
     4     2     3   ar
     5     2    17    1
     6     3     4   ar
     7     3    16    1
     8     4     5   ar
     9     4    13    1
    10     5     6   ar
    11     5     7    1
    12     7     8   ar
    13     7    12   ar
    14     8     9   ar
    15     9    10   ar
    16    10    11   ar
    17    11    12   ar
    18    13    14    1
    19    14    15    1
    20    15    16    1
    21    17    18    3
    22    19    20    1
    23    19    30    1
    24    20    21    1
    25    21    22    1
    26    22    23   am
    27    22    29    1
    28    23    24    2
    29    23    25    1
    30    25    26    1
    31    26    27    1
    32    27    28    1
    33    29    30    1
