@<TRIPOS>MOLECULE
31100_ChemDiv_4576-0065
 29 30 0 0 0
SMALL
GASTEIGER
Energy = 0

@<TRIPOS>ATOM
      1 C          -2.5830   -0.8790    0.0000 C.ar    1  LIG1        0.0969
      2 S          -3.1670   -1.6920    0.0000 S.2     1  LIG1       -0.0467
      3 C          -4.1210   -1.3920    0.0000 C.ar    1  LIG1        0.1282
      4 N          -4.1210   -0.3790    0.0000 N.ar    1  LIG1       -0.3168
      5 C          -3.1710   -0.0750    0.0000 C.ar    1  LIG1        0.0581
      6 C          -2.8710    0.8790    0.0000 C.3     1  LIG1        0.0519
      7 C          -4.9290    0.1960    0.0000 C.3     1  LIG1        0.1312
      8 S          -4.9250   -1.9880    0.0000 S.2     1  LIG1       -0.0247
      9 N          -1.5750   -0.8790    0.0000 N.am    1  LIG1       -0.2437
     10 C          -1.0920   -0.0130    0.0000 C.2     1  LIG1        0.4058
     11 O          -1.5920    0.8540    0.0000 O.2     1  LIG1       -0.2261
     12 O          -0.0960   -0.0130    0.0000 O.3     1  LIG1       -0.4326
     13 C           0.4040    0.8630    0.0000 C.3     1  LIG1        0.2313
     14 C           1.3960    0.8790    0.0000 C.3     1  LIG1        0.1374
     15 N           1.8960    1.7420    0.0000 N.am    1  LIG1       -0.2980
     16 C           2.8920    1.7420    0.0000 C.2     1  LIG1        0.2671
     17 O           3.3960    2.5960    0.0000 O.2     1  LIG1       -0.2711
     18 C           3.3960    0.8790    0.0000 C.3     1  LIG1        0.2894
     19 O           2.8960    0.0170    0.0000 O.3     1  LIG1       -0.4639
     20 C           3.4130   -0.8580    0.0000 C.ar    1  LIG1        0.1601
     21 C           4.4130   -0.8460    0.0000 C.ar    1  LIG1        0.0924
     22 CL          4.9130    0.0170    0.0000 Cl      1  LIG1       -0.0791
     23 C           4.9250   -1.7080    0.0000 C.ar    1  LIG1        0.0145
     24 C           4.4130   -2.5920    0.0000 C.ar    1  LIG1        0.0019
     25 C           3.4210   -2.5920    0.0000 C.ar    1  LIG1        0.0145
     26 C           2.9130   -1.7290    0.0000 C.ar    1  LIG1        0.0924
     27 CL          1.9080   -1.7290    0.0000 Cl      1  LIG1       -0.0791
     28 H          -1.0750   -1.7420    0.0000 H       1  LIG1        0.1587
     29 H           1.3960    2.5920    0.0000 H       1  LIG1        0.1497
@<TRIPOS>BOND
     1     1     2   ar
     2     1     5   ar
     3     1     9    1
     4     2     3   ar
     5     3     4   ar
     6     3     8    2
     7     4     5   ar
     8     4     7    1
     9     5     6    1
    10     9    10   am
    11     9    28    1
    12    10    11    2
    13    10    12    1
    14    12    13    1
    15    13    14    1
    16    14    15    1
    17    15    16   am
    18    15    29    1
    19    16    17    2
    20    16    18    1
    21    18    19    1
    22    19    20    1
    23    20    21   ar
    24    20    26   ar
    25    21    22    1
    26    21    23   ar
    27    23    24   ar
    28    24    25   ar
    29    25    26   ar
    30    26    27    1
