@<TRIPOS>MOLECULE
31103_ChemDiv_8017-8391
 18 19 0 0 0
SMALL
GASTEIGER
Energy = 0

@<TRIPOS>ATOM
      1 C          -1.3080    2.0000    0.0000 C.2     1  LIG1        0.2515
      2 C          -1.3080    1.0080    0.0000 C.3     1  LIG1        0.1347
      3 C          -0.4460    0.5000    0.0000 C.3     1  LIG1        0.1072
      4 C           0.4210    1.0080    0.0000 C.2     1  LIG1        0.2469
      5 N           1.3040    0.5000    0.0000 N.am    1  LIG1       -0.1791
      6 C           1.2960   -0.5040    0.0000 C.ar    1  LIG1        0.0742
      7 C           2.1670   -0.9830    0.0000 C.ar    1  LIG1        0.0280
      8 C           2.1670   -1.9960    0.0000 C.ar    1  LIG1        0.0590
      9 CL          3.0290   -2.4830    0.0000 Cl      1  LIG1       -0.0822
     10 C           1.2960   -2.4960    0.0000 C.ar    1  LIG1        0.0115
     11 C           0.4210   -1.9960    0.0000 C.ar    1  LIG1        0.0022
     12 C           0.4210   -0.9830    0.0000 C.ar    1  LIG1        0.0167
     13 O           0.4330    2.0000    0.0000 O.2     1  LIG1       -0.2729
     14 S          -2.1710    0.5040    0.0000 S.3     1  LIG1       -0.1295
     15 C          -3.0330    1.0080    0.0000 C.3     1  LIG1        0.0814
     16 C          -3.0330    2.0000    0.0000 C.3     1  LIG1        0.1268
     17 N          -2.1710    2.5000    0.0000 N.am    1  LIG1       -0.2038
     18 O          -0.4460    2.4960    0.0000 O.2     1  LIG1       -0.2724
@<TRIPOS>BOND
     1     1     2    1
     2     1    17   am
     3     1    18    2
     4     2     3    1
     5     2    14    1
     6     3     4    1
     7     4     5   am
     8     4    13    2
     9     5     6    1
    10     6     7   ar
    11     6    12   ar
    12     7     8   ar
    13     8     9    1
    14     8    10   ar
    15    10    11   ar
    16    11    12   ar
    17    14    15    1
    18    15    16    1
    19    16    17    1
