@<TRIPOS>MOLECULE
31106_ChemDiv_8017-7353
 26 28 0 0 0
SMALL
GASTEIGER
Energy = 0

@<TRIPOS>ATOM
      1 C          -2.1540   -0.7000    0.0000 C.ar    1  LIG1        0.1124
      2 C          -2.1540   -1.7000    0.0000 C.ar    1  LIG1        0.2833
      3 N          -3.0210   -2.2000    0.0000 N.ar    1  LIG1       -0.2124
      4 C          -3.8880   -1.7040    0.0000 C.ar    1  LIG1        0.0582
      5 C          -3.8880   -0.7040    0.0000 C.ar    1  LIG1       -0.0082
      6 C          -3.0210   -0.2000    0.0000 C.ar    1  LIG1        0.0063
      7 C          -4.7460   -0.1920    0.0000 C.3     1  LIG1        0.0276
      8 C          -5.6170   -0.7040    0.0000 C.3     1  LIG1        0.0051
      9 C          -5.6170   -1.7040    0.0000 C.3     1  LIG1        0.0066
     10 C          -4.7460   -2.2000    0.0000 C.3     1  LIG1        0.0456
     11 O          -1.2920   -2.2000    0.0000 O.2     1  LIG1       -0.2650
     12 C          -1.2960   -0.1920    0.0000 C.2     1  LIG1        0.2695
     13 O          -1.3040    0.8040    0.0000 O.2     1  LIG1       -0.2682
     14 N          -0.4290   -0.6920    0.0000 N.am    1  LIG1       -0.2012
     15 C           0.4290   -0.1880    0.0000 C.3     1  LIG1        0.1201
     16 C           1.2920   -0.6880    0.0000 C.3     1  LIG1        0.0498
     17 C           2.1540   -0.1790    0.0000 C.ar    1  LIG1       -0.0203
     18 C           3.0290   -0.6790    0.0000 C.ar    1  LIG1       -0.0028
     19 C           3.8920   -0.1750    0.0000 C.ar    1  LIG1        0.0197
     20 C           3.8880    0.8210    0.0000 C.ar    1  LIG1        0.1250
     21 S           4.7420    1.3290    0.0000 S.O2    1  LIG1        0.0935
     22 O           4.2420    2.2040    0.0000 O.2     1  LIG1       -0.1503
     23 O           5.2420    0.4670    0.0000 O.2     1  LIG1       -0.1503
     24 N           5.6130    1.8420    0.0000 N.3     1  LIG1        0.0392
     25 C           3.0130    1.3170    0.0000 C.ar    1  LIG1        0.0197
     26 C           2.1500    0.8080    0.0000 C.ar    1  LIG1       -0.0028
@<TRIPOS>BOND
     1     1     2   ar
     2     1     6   ar
     3     1    12    1
     4     2     3   ar
     5     2    11    2
     6     3     4   ar
     7     4     5   ar
     8     4    10    1
     9     5     6   ar
    10     5     7    1
    11     7     8    1
    12     8     9    1
    13     9    10    1
    14    12    13    2
    15    12    14   am
    16    14    15    1
    17    15    16    1
    18    16    17    1
    19    17    18   ar
    20    17    26   ar
    21    18    19   ar
    22    19    20   ar
    23    20    21    1
    24    20    25   ar
    25    21    22    2
    26    21    23    2
    27    21    24    1
    28    25    26   ar
