@<TRIPOS>MOLECULE
31101_ChemDiv_8017-8390
 17 18 0 0 0
SMALL
GASTEIGER
Energy = 0

@<TRIPOS>ATOM
      1 C          -0.8750    2.0040    0.0000 C.2     1  LIG1        0.2515
      2 C          -0.8750    1.0040    0.0000 C.3     1  LIG1        0.1347
      3 C          -0.0080    0.4920    0.0000 C.3     1  LIG1        0.1072
      4 C           0.8540    1.0040    0.0000 C.2     1  LIG1        0.2469
      5 N           1.7290    0.4920    0.0000 N.am    1  LIG1       -0.1792
      6 C           1.7170   -0.4920    0.0000 C.ar    1  LIG1        0.0734
      7 C           2.5920   -0.9920    0.0000 C.ar    1  LIG1        0.0166
      8 C           2.5920   -1.9920    0.0000 C.ar    1  LIG1        0.0013
      9 C           1.7170   -2.5000    0.0000 C.ar    1  LIG1        0.0001
     10 C           0.8500   -1.9920    0.0000 C.ar    1  LIG1        0.0013
     11 C           0.8540   -0.9920    0.0000 C.ar    1  LIG1        0.0166
     12 O           0.8540    2.0040    0.0000 O.2     1  LIG1       -0.2729
     13 S          -1.7380    0.5040    0.0000 S.3     1  LIG1       -0.1295
     14 C          -2.5960    1.0040    0.0000 C.3     1  LIG1        0.0814
     15 C          -2.5960    2.0040    0.0000 C.3     1  LIG1        0.1268
     16 N          -1.7380    2.5040    0.0000 N.am    1  LIG1       -0.2038
     17 O          -0.0080    2.4920    0.0000 O.2     1  LIG1       -0.2724
@<TRIPOS>BOND
     1     1     2    1
     2     1    16   am
     3     1    17    2
     4     2     3    1
     5     2    13    1
     6     3     4    1
     7     4     5   am
     8     4    12    2
     9     5     6    1
    10     6     7   ar
    11     6    11   ar
    12     7     8   ar
    13     8     9   ar
    14     9    10   ar
    15    10    11   ar
    16    13    14    1
    17    14    15    1
    18    15    16    1
