@<TRIPOS>MOLECULE
31112_ChemDiv_K844-1176
 18 20 0 0 0
SMALL
GASTEIGER
Energy = 0

@<TRIPOS>ATOM
      1 C          -0.1130   -0.0290    0.0000 C.ar    1  LIG1        0.1512
      2 C          -0.9380    0.4830    0.0000 C.ar    1  LIG1        0.2019
      3 C          -1.8130    0.0000    0.0000 C.ar    1  LIG1        0.0307
      4 C          -1.8210   -1.0000    0.0000 C.ar    1  LIG1        0.0613
      5 N          -0.9580   -1.5130    0.0000 N.ar    1  LIG1       -0.2123
      6 C          -0.1250   -1.0250    0.0000 C.ar    1  LIG1        0.2865
      7 O           0.7130   -1.5130    0.0000 O.2     1  LIG1       -0.2649
      8 C          -2.7080   -1.4920    0.0000 C.3     1  LIG1        0.0457
      9 C          -3.5580   -0.9790    0.0000 C.3     1  LIG1        0.0066
     10 C          -3.5380    0.0130    0.0000 C.3     1  LIG1        0.0052
     11 C          -2.6750    0.5040    0.0000 C.3     1  LIG1        0.0308
     12 O          -0.9130    1.4670    0.0000 O.3     1  LIG1       -0.2865
     13 C           0.8000    0.4750    0.0000 C.2     1  LIG1        0.2726
     14 N           1.6880   -0.0630    0.0000 N.am    1  LIG1       -0.2032
     15 C           2.5580    0.4250    0.0000 C.3     1  LIG1        0.0957
     16 C           3.5540    0.4080    0.0000 C.3     1  LIG1        0.0234
     17 C           3.0710    1.2830    0.0000 C.3     1  LIG1        0.0234
     18 O           0.8170    1.5170    0.0000 O.2     1  LIG1       -0.2681
@<TRIPOS>BOND
     1     1     2   ar
     2     1     6   ar
     3     1    13    1
     4     2     3   ar
     5     2    12    1
     6     3     4   ar
     7     3    11    1
     8     4     5   ar
     9     4     8    1
    10     5     6   ar
    11     6     7    2
    12     8     9    1
    13     9    10    1
    14    10    11    1
    15    13    14   am
    16    13    18    2
    17    14    15    1
    18    15    16    1
    19    15    17    1
    20    16    17    1
