@<TRIPOS>MOLECULE
31115_ChemDiv_5218-3386
 25 27 0 0 0
SMALL
GASTEIGER
Energy = 0

@<TRIPOS>ATOM
      1 S           2.0460   -0.4630    0.0000 S.O2    1  LIG1        0.0768
      2 N           1.1670    0.0210    0.0000 N.3     1  LIG1       -0.0775
      3 C           0.3130   -0.4880    0.0000 C.3     1  LIG1        0.1196
      4 C          -0.5630    0.0080    0.0000 C.3     1  LIG1        0.0417
      5 C          -1.4290   -0.4920    0.0000 C.ar    1  LIG1       -0.0210
      6 C          -2.2960    0.0080    0.0000 C.ar    1  LIG1       -0.0011
      7 C          -3.1630   -0.5040    0.0000 C.ar    1  LIG1        0.0366
      8 C          -3.1630   -1.5040    0.0000 C.ar    1  LIG1        0.1387
      9 C          -2.2960   -2.0040    0.0000 C.ar    1  LIG1        0.0366
     10 C          -1.4290   -1.5040    0.0000 C.ar    1  LIG1       -0.0011
     11 O          -4.0330   -2.0040    0.0000 O.3     1  LIG1       -0.4714
     12 C          -4.9000   -1.5040    0.0000 C.3     1  LIG1        0.2525
     13 C           0.3000    0.4960    0.0000 C.3     1  LIG1        0.0376
     14 C           0.3000    1.5000    0.0000 C.3     1  LIG1        0.1425
     15 O          -0.5630    2.0080    0.0000 O.3     1  LIG1       -0.3538
     16 C          -1.4290    1.5000    0.0000 C.3     1  LIG1        0.1425
     17 C          -1.4290    0.4960    0.0000 C.3     1  LIG1        0.0376
     18 O           2.0540   -1.4630    0.0000 O.2     1  LIG1       -0.1516
     19 O           2.0420    0.5380    0.0000 O.2     1  LIG1       -0.1516
     20 C           2.9040    0.0380    0.0000 C.ar    1  LIG1        0.1235
     21 C           3.3960    0.9080    0.0000 C.ar    1  LIG1        0.0200
     22 C           4.3960    0.9170    0.0000 C.ar    1  LIG1        0.0014
     23 C           4.8960    0.0540    0.0000 C.ar    1  LIG1        0.0001
     24 C           4.3960   -0.8130    0.0000 C.ar    1  LIG1        0.0014
     25 C           3.4080   -0.8210    0.0000 C.ar    1  LIG1        0.0200
@<TRIPOS>BOND
     1     1     2    1
     2     1    18    2
     3     1    19    2
     4     1    20    1
     5     2     3    1
     6     3     4    1
     7     4     5    1
     8     4    13    1
     9     4    17    1
    10     5     6   ar
    11     5    10   ar
    12     6     7   ar
    13     7     8   ar
    14     8     9   ar
    15     8    11    1
    16     9    10   ar
    17    11    12    1
    18    13    14    1
    19    14    15    1
    20    15    16    1
    21    16    17    1
    22    20    21   ar
    23    20    25   ar
    24    21    22   ar
    25    22    23   ar
    26    23    24   ar
    27    24    25   ar
