@<TRIPOS>MOLECULE
31113_ChemDiv_4435-0147
 26 28 0 0 0
SMALL
GASTEIGER
Energy = 0

@<TRIPOS>ATOM
      1 S           1.2710    0.0080    0.0000 S.O2    1  LIG1        0.0768
      2 N           0.4080    0.5040    0.0000 N.3     1  LIG1       -0.0775
      3 C          -0.4460    0.0080    0.0000 C.3     1  LIG1        0.1196
      4 C          -1.3250    0.5040    0.0000 C.3     1  LIG1        0.0417
      5 C          -2.1880   -0.0080    0.0000 C.ar    1  LIG1       -0.0210
      6 C          -3.0420    0.5040    0.0000 C.ar    1  LIG1       -0.0011
      7 C          -3.8960   -0.0080    0.0000 C.ar    1  LIG1        0.0366
      8 C          -3.8960   -0.9880    0.0000 C.ar    1  LIG1        0.1387
      9 C          -3.0420   -1.4920    0.0000 C.ar    1  LIG1        0.0366
     10 C          -2.1880   -0.9880    0.0000 C.ar    1  LIG1       -0.0011
     11 O          -4.7540   -1.5130    0.0000 O.3     1  LIG1       -0.4714
     12 C          -4.7540   -2.4920    0.0000 C.3     1  LIG1        0.2525
     13 C          -0.4460    1.0080    0.0000 C.3     1  LIG1        0.0376
     14 C          -0.4460    2.0130    0.0000 C.3     1  LIG1        0.1425
     15 O          -1.3250    2.4960    0.0000 O.3     1  LIG1       -0.3538
     16 C          -2.1670    2.0130    0.0000 C.3     1  LIG1        0.1425
     17 C          -2.1670    0.9880    0.0000 C.3     1  LIG1        0.0376
     18 C           2.1420   -0.4920    0.0000 C.ar    1  LIG1        0.1235
     19 C           2.9920    0.0210    0.0000 C.ar    1  LIG1        0.0196
     20 C           3.8750   -0.4830    0.0000 C.ar    1  LIG1       -0.0029
     21 C           3.8960   -1.5000    0.0000 C.ar    1  LIG1       -0.0218
     22 C           3.0080   -2.0000    0.0000 C.ar    1  LIG1       -0.0029
     23 C           2.1170   -1.4920    0.0000 C.ar    1  LIG1        0.0196
     24 C           4.7500   -1.9830    0.0000 C.3     1  LIG1        0.0310
     25 O           0.7580   -0.8750    0.0000 O.2     1  LIG1       -0.1516
     26 O           1.7790    0.8920    0.0000 O.2     1  LIG1       -0.1516
@<TRIPOS>BOND
     1     1     2    1
     2     1    18    1
     3     1    25    2
     4     1    26    2
     5     2     3    1
     6     3     4    1
     7     4     5    1
     8     4    13    1
     9     4    17    1
    10     5     6   ar
    11     5    10   ar
    12     6     7   ar
    13     7     8   ar
    14     8     9   ar
    15     8    11    1
    16     9    10   ar
    17    11    12    1
    18    13    14    1
    19    14    15    1
    20    15    16    1
    21    16    17    1
    22    18    19   ar
    23    18    23   ar
    24    19    20   ar
    25    20    21   ar
    26    21    22   ar
    27    21    24    1
    28    22    23   ar
