@<TRIPOS>MOLECULE
31117_ChemDiv_4438-4685
 34 38 0 0 0
SMALL
GASTEIGER
Energy = 0

@<TRIPOS>ATOM
      1 N          -1.7250   -0.9960    0.0000 N.ar    1  LIG1       -0.2423
      2 C          -2.5880   -0.5080    0.0000 C.ar    1  LIG1        0.0988
      3 C          -2.5880    0.5000    0.0000 C.ar    1  LIG1        0.0988
      4 N          -1.7250    0.9960    0.0000 N.ar    1  LIG1       -0.2423
      5 C          -0.8630    0.5000    0.0000 C.ar    1  LIG1        0.0989
      6 C          -0.8630   -0.5080    0.0000 C.ar    1  LIG1        0.0990
      7 C           0.0080   -0.9960    0.0000 C.ar    1  LIG1        0.0252
      8 C           0.8580   -0.5080    0.0000 C.ar    1  LIG1        0.0570
      9 C           1.7210   -0.9960    0.0000 C.2     1  LIG1        0.2690
     10 N           2.5920   -0.4960    0.0000 N.am    1  LIG1       -0.1753
     11 C           2.5920    0.5130    0.0000 C.ar    1  LIG1        0.0781
     12 C           3.4540    0.9960    0.0000 C.ar    1  LIG1        0.0720
     13 C           4.3040    0.5000    0.0000 C.2     1  LIG1        0.2854
     14 O           4.3040   -0.5080    0.0000 O.2     1  LIG1       -0.2666
     15 N           5.1790    0.9960    0.0000 N.am    1  LIG1       -0.0837
     16 C           3.4580    2.0080    0.0000 C.ar    1  LIG1        0.0059
     17 C           2.5920    2.5080    0.0000 C.ar    1  LIG1        0.0002
     18 C           1.7210    2.0080    0.0000 C.ar    1  LIG1        0.0013
     19 C           1.7210    0.9960    0.0000 C.ar    1  LIG1        0.0168
     20 O           1.7210   -1.9960    0.0000 O.2     1  LIG1       -0.2680
     21 C           0.8580    0.5130    0.0000 C.ar    1  LIG1        0.0062
     22 C           0.0080    1.0000    0.0000 C.ar    1  LIG1        0.0208
     23 C          -3.4540    0.9960    0.0000 C.ar    1  LIG1        0.0191
     24 C          -4.3080    0.5000    0.0000 C.ar    1  LIG1        0.0015
     25 C          -5.1830    0.9960    0.0000 C.ar    1  LIG1        0.0000
     26 C          -5.1830    1.9960    0.0000 C.ar    1  LIG1        0.0000
     27 C          -4.3250    2.5080    0.0000 C.ar    1  LIG1        0.0000
     28 C          -3.4380    2.0080    0.0000 C.ar    1  LIG1        0.0015
     29 C          -3.4380   -0.9960    0.0000 C.ar    1  LIG1        0.0191
     30 C          -4.3080   -0.5080    0.0000 C.ar    1  LIG1        0.0015
     31 C          -5.1710   -0.9960    0.0000 C.ar    1  LIG1        0.0000
     32 C          -5.1710   -2.0040    0.0000 C.ar    1  LIG1        0.0000
     33 C          -4.3000   -2.5040    0.0000 C.ar    1  LIG1        0.0000
     34 C          -3.4380   -1.9960    0.0000 C.ar    1  LIG1        0.0015
@<TRIPOS>BOND
     1     1     2   ar
     2     1     6   ar
     3     2     3   ar
     4     2    29    1
     5     3     4   ar
     6     3    23    1
     7     4     5   ar
     8     5     6   ar
     9     5    22   ar
    10     6     7   ar
    11     7     8   ar
    12     8     9    1
    13     8    21   ar
    14     9    10   am
    15     9    20    2
    16    10    11    1
    17    11    12   ar
    18    11    19   ar
    19    12    13    1
    20    12    16   ar
    21    13    14    2
    22    13    15   am
    23    16    17   ar
    24    17    18   ar
    25    18    19   ar
    26    21    22   ar
    27    23    24   ar
    28    23    28   ar
    29    24    25   ar
    30    25    26   ar
    31    26    27   ar
    32    27    28   ar
    33    29    30   ar
    34    29    34   ar
    35    30    31   ar
    36    31    32   ar
    37    32    33   ar
    38    33    34   ar
