@<TRIPOS>MOLECULE
31114_ChemDiv_K844-1309
 20 21 0 0 0
SMALL
GASTEIGER
Energy = 0

@<TRIPOS>ATOM
      1 C          -1.3130    0.0000    0.0000 C.ar    1  LIG1        0.1512
      2 C          -2.1750    0.5130    0.0000 C.ar    1  LIG1        0.2019
      3 C          -3.0420    0.0040    0.0000 C.ar    1  LIG1        0.0307
      4 C          -3.0500   -1.0000    0.0000 C.ar    1  LIG1        0.0613
      5 N          -2.1790   -1.4960    0.0000 N.ar    1  LIG1       -0.2123
      6 C          -1.3130   -1.0000    0.0000 C.ar    1  LIG1        0.2865
      7 O          -0.4500   -1.5080    0.0000 O.2     1  LIG1       -0.2649
      8 C          -3.9000   -1.4920    0.0000 C.3     1  LIG1        0.0457
      9 C          -4.7630   -1.0000    0.0000 C.3     1  LIG1        0.0066
     10 C          -4.7630    0.0040    0.0000 C.3     1  LIG1        0.0052
     11 C          -3.9000    0.5130    0.0000 C.3     1  LIG1        0.0308
     12 O          -2.1750    1.5130    0.0000 O.3     1  LIG1       -0.2865
     13 C          -0.4330    0.5000    0.0000 C.2     1  LIG1        0.2726
     14 O          -0.4330    1.5000    0.0000 O.2     1  LIG1       -0.2681
     15 N           0.4250   -0.0130    0.0000 N.am    1  LIG1       -0.2014
     16 C           1.3040    0.4880    0.0000 C.3     1  LIG1        0.1157
     17 C           2.1630   -0.0130    0.0000 C.3     1  LIG1        0.0302
     18 C           3.0250    0.4830    0.0000 C.3     1  LIG1        0.0824
     19 C           3.8880   -0.0170    0.0000 C.3     1  LIG1        0.3153
     20 N           4.7580    0.4830    0.0000 N.4     1  LIG1        0.5972
@<TRIPOS>BOND
     1     1     2   ar
     2     1     6   ar
     3     1    13    1
     4     2     3   ar
     5     2    12    1
     6     3     4   ar
     7     3    11    1
     8     4     5   ar
     9     4     8    1
    10     5     6   ar
    11     6     7    2
    12     8     9    1
    13     9    10    1
    14    10    11    1
    15    13    14    2
    16    13    15   am
    17    15    16    1
    18    16    17    1
    19    17    18    1
    20    18    19    1
    21    19    20    1
