@<TRIPOS>MOLECULE
31118_ChemDiv_4789-4537
 30 33 0 0 0
SMALL
GASTEIGER
Energy = 0

@<TRIPOS>ATOM
      1 N           0.4080   -0.0170    0.0000 N.pl3   1  LIG1       -0.3086
      2 C           0.4080   -1.0040    0.0000 C.ar    1  LIG1        0.0663
      3 C          -0.4460   -1.5250    0.0000 C.ar    1  LIG1        0.0841
      4 C          -1.3000   -1.0210    0.0000 C.ar    1  LIG1        0.0138
      5 C          -2.1630   -1.5250    0.0000 C.ar    1  LIG1        0.0761
      6 C          -3.0210   -1.0210    0.0000 C.2     1  LIG1        0.3413
      7 O          -3.0210   -0.0170    0.0000 O.2     1  LIG1       -0.2449
      8 O          -3.9000   -1.5250    0.0000 O.3     1  LIG1       -0.4413
      9 C          -4.7580   -1.0210    0.0000 C.3     1  LIG1        0.2560
     10 C          -2.1630   -2.5170    0.0000 C.ar    1  LIG1        0.0128
     11 C          -1.3000   -3.0380    0.0000 C.ar    1  LIG1        0.0764
     12 C          -0.4460   -2.5170    0.0000 C.ar    1  LIG1        0.2980
     13 N           0.4250   -3.0210    0.0000 N.ar    1  LIG1        0.0828
     14 C           1.2960   -2.5170    0.0000 C.ar    1  LIG1        0.3732
     15 C           1.2790   -1.5250    0.0000 C.ar    1  LIG1        0.1654
     16 C           2.1630   -1.0040    0.0000 C.2     1  LIG1        0.3487
     17 O           2.1540   -0.0130    0.0000 O.2     1  LIG1       -0.2446
     18 O           3.0380   -1.5080    0.0000 O.3     1  LIG1       -0.4453
     19 C           3.8960   -0.9880    0.0000 C.3     1  LIG1        0.2089
     20 C           4.7540   -1.4830    0.0000 C.3     1  LIG1        0.0513
     21 C           1.2790    0.3830    0.0000 C.3     1  LIG1        0.0728
     22 C           0.5420    1.0210    0.0000 C.3     1  LIG1        0.0214
     23 C          -0.6670    1.3210    0.0000 C.3     1  LIG1        0.0198
     24 C          -0.4500    0.3830    0.0000 C.3     1  LIG1        0.0907
     25 C          -0.0580    2.0880    0.0000 C.3     1  LIG1        0.0018
     26 C           0.9040    2.0880    0.0000 C.3     1  LIG1        0.0016
     27 C           1.5040    1.3210    0.0000 C.3     1  LIG1        0.0197
     28 C           1.9000    2.5040    0.0000 C.3     1  LIG1        0.0001
     29 C           0.8210    3.0420    0.0000 C.3     1  LIG1        0.0001
     30 C          -1.6000    1.5630    0.0000 C.3     1  LIG1        0.0018
@<TRIPOS>BOND
     1     1     2    1
     2     1    21    1
     3     1    24    1
     4     2     3   ar
     5     2    15   ar
     6     3     4   ar
     7     3    12   ar
     8     4     5   ar
     9     5     6    1
    10     5    10   ar
    11     6     7    2
    12     6     8    1
    13     8     9    1
    14    10    11   ar
    15    11    12   ar
    16    12    13   ar
    17    13    14   ar
    18    14    15   ar
    19    15    16    1
    20    16    17    2
    21    16    18    1
    22    18    19    1
    23    19    20    1
    24    21    22    1
    25    21    27    1
    26    22    23    1
    27    23    24    1
    28    23    25    1
    29    23    30    1
    30    25    26    1
    31    26    27    1
    32    26    28    1
    33    26    29    1
