@<TRIPOS>MOLECULE
31116_ChemDiv_4786-0080
 23 25 0 0 0
SMALL
GASTEIGER
Energy = 0

@<TRIPOS>ATOM
      1 N          -0.4500   -0.2080    0.0000 N.ar    1  LIG1       -0.2148
      2 C          -1.3130    0.3130    0.0000 C.ar    1  LIG1        0.1106
      3 C          -2.1750   -0.2080    0.0000 C.ar    1  LIG1        0.0413
      4 C          -2.1750   -1.2080    0.0000 C.ar    1  LIG1        0.0854
      5 N          -1.3130   -1.6790    0.0000 N.ar    1  LIG1       -0.2211
      6 C          -0.4500   -1.2080    0.0000 C.ar    1  LIG1        0.1907
      7 S           0.4170   -1.7250    0.0000 S.3     1  LIG1       -0.0709
      8 C           1.3080   -1.2420    0.0000 C.3     1  LIG1        0.0913
      9 C           2.1710   -1.7460    0.0000 C.ar    1  LIG1       -0.0109
     10 C           2.1710   -2.7960    0.0000 C.ar    1  LIG1       -0.0034
     11 C           3.0330   -3.2790    0.0000 C.ar    1  LIG1       -0.0003
     12 C           3.8960   -2.8250    0.0000 C.ar    1  LIG1       -0.0000
     13 C           3.8960   -1.7880    0.0000 C.ar    1  LIG1       -0.0003
     14 C           3.0330   -1.2710    0.0000 C.ar    1  LIG1       -0.0034
     15 C          -3.0380   -1.6790    0.0000 C.ar    1  LIG1        0.0192
     16 C          -3.9000   -1.2080    0.0000 C.ar    1  LIG1        0.0015
     17 C          -3.9000   -0.2080    0.0000 C.ar    1  LIG1        0.0002
     18 C          -3.0380    0.3130    0.0000 C.ar    1  LIG1        0.0035
     19 S          -1.3130    1.3170    0.0000 S.3     1  LIG1       -0.0888
     20 C          -2.1750    1.8000    0.0000 C.3     1  LIG1        0.1051
     21 C          -2.1750    2.8080    0.0000 C.2     1  LIG1        0.0616
     22 O          -3.0380    3.2830    0.0000 O.co2   1  LIG1       -0.5483
     23 O          -1.3130    3.2830    0.0000 O.co2   1  LIG1       -0.5483
@<TRIPOS>BOND
     1     1     2   ar
     2     1     6   ar
     3     2     3   ar
     4     2    19    1
     5     3     4   ar
     6     3    18   ar
     7     4     5   ar
     8     4    15   ar
     9     5     6   ar
    10     6     7    1
    11     7     8    1
    12     8     9    1
    13     9    10   ar
    14     9    14   ar
    15    10    11   ar
    16    11    12   ar
    17    12    13   ar
    18    13    14   ar
    19    15    16   ar
    20    16    17   ar
    21    17    18   ar
    22    19    20    1
    23    20    21    1
    24    21    22   ar
    25    21    23   ar
