@<TRIPOS>MOLECULE
31128_ChemDiv_4582-0205
 37 42 0 0 0
SMALL
GASTEIGER
Energy = 0

@<TRIPOS>ATOM
      1 N           0.9710   -2.8540    0.0000 N.am    1  LIG1       -0.2225
      2 C           0.5380   -3.7500    0.0000 C.2     1  LIG1        0.2317
      3 C           1.0630   -4.3540    0.0000 C.3     1  LIG1        0.0857
      4 C           1.9670   -3.9920    0.0000 C.3     1  LIG1        0.0857
      5 C           1.8960   -3.1460    0.0000 C.2     1  LIG1        0.2317
      6 O           2.6210   -2.3710    0.0000 O.2     1  LIG1       -0.2745
      7 C           2.8130   -4.6670    0.0000 C.3     1  LIG1        0.0096
      8 C           2.6630   -5.5670    0.0000 C.3     1  LIG1        0.0005
      9 C           1.6670   -5.9670    0.0000 C.3     1  LIG1        0.0005
     10 C           1.0210   -5.3330    0.0000 C.3     1  LIG1        0.0096
     11 O          -0.5500   -3.7500    0.0000 O.2     1  LIG1       -0.2745
     12 C           0.6380   -1.9790    0.0000 C.3     1  LIG1        0.1629
     13 C           1.4250   -1.4330    0.0000 C.2     1  LIG1        0.2448
     14 N           1.4130   -0.4960    0.0000 N.am    1  LIG1       -0.2667
     15 C           0.5170   -0.0040    0.0000 C.3     1  LIG1        0.1565
     16 C           0.5380    1.0460    0.0000 C.3     1  LIG1        0.1610
     17 N           1.4130    1.5580    0.0000 N.4     1  LIG1        0.3834
     18 C           1.4130    2.5880    0.0000 C.3     1  LIG1        0.1664
     19 C           0.5670    3.1420    0.0000 C.ar    1  LIG1        0.0376
     20 C           0.6880    4.2170    0.0000 C.ar    1  LIG1        0.0416
     21 C          -0.1580    4.7580    0.0000 C.ar    1  LIG1        0.1763
     22 C          -1.1250    4.3460    0.0000 C.ar    1  LIG1        0.1764
     23 O          -1.7790    5.1000    0.0000 O.3     1  LIG1       -0.4346
     24 C          -1.2960    5.9670    0.0000 C.3     1  LIG1        0.4294
     25 O          -0.2790    5.7960    0.0000 O.3     1  LIG1       -0.4346
     26 C          -1.2380    3.3710    0.0000 C.ar    1  LIG1        0.0401
     27 C          -0.3580    2.7080    0.0000 C.ar    1  LIG1        0.0048
     28 C           2.2710    0.9630    0.0000 C.3     1  LIG1        0.1610
     29 C           2.2580   -0.0750    0.0000 C.3     1  LIG1        0.1565
     30 O           2.2710   -1.9460    0.0000 O.2     1  LIG1       -0.2731
     31 C          -0.2710   -1.4960    0.0000 C.3     1  LIG1        0.0560
     32 C          -1.0830   -2.0080    0.0000 C.ar    1  LIG1       -0.0200
     33 C          -1.9710   -1.5750    0.0000 C.ar    1  LIG1       -0.0042
     34 C          -2.8170   -2.0670    0.0000 C.ar    1  LIG1       -0.0003
     35 C          -2.7790   -3.0960    0.0000 C.ar    1  LIG1       -0.0000
     36 C          -1.8500   -3.5500    0.0000 C.ar    1  LIG1       -0.0003
     37 C          -1.0330   -3.0250    0.0000 C.ar    1  LIG1       -0.0042
@<TRIPOS>BOND
     1     1     2   am
     2     1     5   am
     3     1    12    1
     4     2     3    1
     5     2    11    2
     6     3     4    1
     7     3    10    1
     8     4     5    1
     9     4     7    1
    10     5     6    2
    11     7     8    1
    12     8     9    1
    13     9    10    1
    14    12    13    1
    15    12    31    1
    16    13    14   am
    17    13    30    2
    18    14    15    1
    19    14    29    1
    20    15    16    1
    21    16    17    1
    22    17    18    1
    23    17    28    1
    24    18    19    1
    25    19    20   ar
    26    19    27   ar
    27    20    21   ar
    28    21    22   ar
    29    21    25    1
    30    22    23    1
    31    22    26   ar
    32    23    24    1
    33    24    25    1
    34    26    27   ar
    35    28    29    1
    36    31    32    1
    37    32    33   ar
    38    32    37   ar
    39    33    34   ar
    40    34    35   ar
    41    35    36   ar
    42    36    37   ar
