@<TRIPOS>MOLECULE
31120_ChemDiv_4789-4575
 25 26 0 0 0
SMALL
GASTEIGER
Energy = 0

@<TRIPOS>ATOM
      1 C           1.2960   -1.4830    0.0000 C.ar    1  LIG1        0.1669
      2 C           0.4250   -0.9830    0.0000 C.ar    1  LIG1        0.0837
      3 C          -0.4330   -1.5000    0.0000 C.ar    1  LIG1        0.0856
      4 C          -1.3000   -1.0000    0.0000 C.ar    1  LIG1        0.0139
      5 C          -2.1710   -1.5000    0.0000 C.ar    1  LIG1        0.0761
      6 C          -3.0460   -1.0000    0.0000 C.2     1  LIG1        0.3412
      7 O          -3.0460   -0.0130    0.0000 O.2     1  LIG1       -0.2449
      8 O          -3.9080   -1.5080    0.0000 O.3     1  LIG1       -0.4454
      9 C          -4.7750   -1.0000    0.0000 C.3     1  LIG1        0.2089
     10 C          -4.7750   -0.0130    0.0000 C.3     1  LIG1        0.0513
     11 C          -2.1710   -2.5000    0.0000 C.ar    1  LIG1        0.0128
     12 C          -1.3000   -3.0040    0.0000 C.ar    1  LIG1        0.0764
     13 C          -0.4330   -2.5000    0.0000 C.ar    1  LIG1        0.2981
     14 N           0.4420   -3.0040    0.0000 N.ar    1  LIG1        0.0828
     15 C           1.2960   -2.5000    0.0000 C.ar    1  LIG1        0.3732
     16 N           0.4250   -0.0080    0.0000 N.pl3   1  LIG1       -0.2369
     17 C           0.4250    1.0040    0.0000 C.3     1  LIG1        0.1149
     18 C           1.2920    1.5040    0.0000 C.3     1  LIG1        0.0588
     19 C           1.2920    2.5040    0.0000 C.3     1  LIG1        0.1839
     20 O           2.1460    3.0080    0.0000 O.3     1  LIG1       -0.2204
     21 C           2.1580   -0.9830    0.0000 C.2     1  LIG1        0.3488
     22 O           2.1580    0.0080    0.0000 O.2     1  LIG1       -0.2446
     23 O           3.0500   -1.4830    0.0000 O.3     1  LIG1       -0.4453
     24 C           3.9040   -0.9790    0.0000 C.3     1  LIG1        0.2089
     25 C           4.7710   -1.4710    0.0000 C.3     1  LIG1        0.0513
@<TRIPOS>BOND
     1     1     2   ar
     2     1    15   ar
     3     1    21    1
     4     2     3   ar
     5     2    16    1
     6     3     4   ar
     7     3    13   ar
     8     4     5   ar
     9     5     6    1
    10     5    11   ar
    11     6     7    2
    12     6     8    1
    13     8     9    1
    14     9    10    1
    15    11    12   ar
    16    12    13   ar
    17    13    14   ar
    18    14    15   ar
    19    16    17    1
    20    17    18    1
    21    18    19    1
    22    19    20    1
    23    21    22    2
    24    21    23    1
    25    23    24    1
    26    24    25    1
