@<TRIPOS>MOLECULE
31121_ChemDiv_8017-8392
 21 22 0 0 0
SMALL
GASTEIGER
Energy = 0

@<TRIPOS>ATOM
      1 C          -1.7380    2.0040    0.0000 C.2     1  LIG1        0.2515
      2 C          -1.7380    1.0040    0.0000 C.3     1  LIG1        0.1347
      3 C          -0.8710    0.4920    0.0000 C.3     1  LIG1        0.1072
      4 C          -0.0080    1.0040    0.0000 C.2     1  LIG1        0.2470
      5 N           0.8670    0.4920    0.0000 N.am    1  LIG1       -0.1760
      6 C           0.8540   -0.4920    0.0000 C.ar    1  LIG1        0.1102
      7 C          -0.0080   -0.9920    0.0000 C.ar    1  LIG1        0.0566
      8 C          -0.0130   -1.9920    0.0000 C.ar    1  LIG1        0.1402
      9 C           0.8540   -2.5000    0.0000 C.ar    1  LIG1        0.0401
     10 C           1.7290   -1.9920    0.0000 C.ar    1  LIG1        0.0414
     11 C           1.7290   -0.9920    0.0000 C.ar    1  LIG1        0.1541
     12 O           2.5920   -0.4920    0.0000 O.3     1  LIG1       -0.4701
     13 C           3.4540   -0.9920    0.0000 C.3     1  LIG1        0.2525
     14 O          -0.8830   -2.4920    0.0000 O.3     1  LIG1       -0.4714
     15 C          -1.7500   -1.9920    0.0000 C.3     1  LIG1        0.2525
     16 O          -0.0080    2.0040    0.0000 O.2     1  LIG1       -0.2729
     17 S          -2.6000    0.5040    0.0000 S.3     1  LIG1       -0.1295
     18 C          -3.4580    1.0040    0.0000 C.3     1  LIG1        0.0814
     19 C          -3.4580    2.0040    0.0000 C.3     1  LIG1        0.1268
     20 N          -2.6000    2.5040    0.0000 N.am    1  LIG1       -0.2038
     21 O          -0.8710    2.4920    0.0000 O.2     1  LIG1       -0.2724
@<TRIPOS>BOND
     1     1     2    1
     2     1    20   am
     3     1    21    2
     4     2     3    1
     5     2    17    1
     6     3     4    1
     7     4     5   am
     8     4    16    2
     9     5     6    1
    10     6     7   ar
    11     6    11   ar
    12     7     8   ar
    13     8     9   ar
    14     8    14    1
    15     9    10   ar
    16    10    11   ar
    17    11    12    1
    18    12    13    1
    19    14    15    1
    20    17    18    1
    21    18    19    1
    22    19    20    1
