@<TRIPOS>MOLECULE
31124_ChemDiv_4581-2832
 23 25 0 0 0
SMALL
GASTEIGER
Energy = 0

@<TRIPOS>ATOM
      1 N           0.0170   -0.5830    0.0000 N.am    1  LIG1       -0.2730
      2 C          -0.8710   -1.0630    0.0000 C.2     1  LIG1        0.2703
      3 C          -1.6750   -0.6080    0.0000 C.3     1  LIG1        0.2896
      4 O          -2.4750   -1.0540    0.0000 O.3     1  LIG1       -0.4648
      5 C          -3.2750   -0.6000    0.0000 C.ar    1  LIG1        0.1497
      6 C          -4.0790   -1.0540    0.0000 C.ar    1  LIG1        0.0915
      7 CL         -4.0830   -1.9670    0.0000 Cl      1  LIG1       -0.0791
      8 C          -4.8670   -0.5670    0.0000 C.ar    1  LIG1        0.0145
      9 C          -4.8670    0.3580    0.0000 C.ar    1  LIG1        0.0011
     10 C          -4.0460    0.7960    0.0000 C.ar    1  LIG1        0.0032
     11 C          -3.2750    0.3290    0.0000 C.ar    1  LIG1        0.0378
     12 O          -0.8710   -2.0920    0.0000 O.2     1  LIG1       -0.2708
     13 C           0.1420    0.5130    0.0000 C.3     1  LIG1        0.1150
     14 C           1.1710    0.9460    0.0000 C.3     1  LIG1        0.1137
     15 N           2.0380    0.2830    0.0000 N.pl3   1  LIG1       -0.2897
     16 C           2.9830    0.6880    0.0000 C.ar    1  LIG1        0.1318
     17 N           3.7830    0.0710    0.0000 N.ar    1  LIG1       -0.2292
     18 C           4.7380    0.4670    0.0000 C.ar    1  LIG1        0.1003
     19 C           4.8630    1.4790    0.0000 C.ar    1  LIG1        0.0208
     20 C           4.0330    2.0960    0.0000 C.ar    1  LIG1        0.0045
     21 C           3.1040    1.7040    0.0000 C.ar    1  LIG1        0.0343
     22 C           1.9130   -0.8080    0.0000 C.3     1  LIG1        0.1137
     23 C           0.8960   -1.2250    0.0000 C.3     1  LIG1        0.1150
@<TRIPOS>BOND
     1     1     2   am
     2     1    13    1
     3     1    23    1
     4     2     3    1
     5     2    12    2
     6     3     4    1
     7     4     5    1
     8     5     6   ar
     9     5    11   ar
    10     6     7    1
    11     6     8   ar
    12     8     9   ar
    13     9    10   ar
    14    10    11   ar
    15    13    14    1
    16    14    15    1
    17    15    16    1
    18    15    22    1
    19    16    17   ar
    20    16    21   ar
    21    17    18   ar
    22    18    19   ar
    23    19    20   ar
    24    20    21   ar
    25    22    23    1
