@<TRIPOS>MOLECULE
31129_ChemDiv_4521-0018
 13 13 0 0 0
SMALL
GASTEIGER
Energy = 0

@<TRIPOS>ATOM
      1 C           0.4460   -0.5170    0.0000 C.ar    1  LIG1        0.1393
      2 C          -0.4250   -0.0130    0.0000 C.ar    1  LIG1        0.0636
      3 C          -0.4250    0.9830    0.0000 C.ar    1  LIG1        0.0302
      4 C           0.4460    1.5080    0.0000 C.ar    1  LIG1        0.0639
      5 N           1.3040    1.0080    0.0000 N.ar    1  LIG1       -0.2116
      6 C           1.3040   -0.0130    0.0000 C.ar    1  LIG1        0.2898
      7 O           2.1580   -0.5210    0.0000 O.2     1  LIG1       -0.2644
      8 C           0.4460    2.5040    0.0000 C.3     1  LIG1        0.0522
      9 N          -1.2830   -0.5170    0.0000 N.pl3   1  LIG1       -0.3034
     10 C          -2.1630   -0.0130    0.0000 C.3     1  LIG1        0.1123
     11 C          -1.2750   -1.5040    0.0000 C.3     1  LIG1        0.1123
     12 C           0.4460   -1.5040    0.0000 C.1     1  LIG1        0.1066
     13 N           0.4460   -2.5000    0.0000 N.1     1  LIG1       -0.1906
@<TRIPOS>BOND
     1     1     2   ar
     2     1     6   ar
     3     1    12    1
     4     2     3   ar
     5     2     9    1
     6     3     4   ar
     7     4     5   ar
     8     4     8    1
     9     5     6   ar
    10     6     7    2
    11     9    10    1
    12     9    11    1
    13    12    13    3
