@<TRIPOS>MOLECULE
31123_ChemDiv_8017-8399
 20 21 0 0 0
SMALL
GASTEIGER
Energy = 0

@<TRIPOS>ATOM
      1 C          -0.8750    2.7500    0.0000 C.2     1  LIG1        0.2515
      2 C          -0.8750    1.7460    0.0000 C.3     1  LIG1        0.1347
      3 C          -0.0080    1.2500    0.0000 C.3     1  LIG1        0.1072
      4 C           0.8540    1.7460    0.0000 C.2     1  LIG1        0.2469
      5 N           1.7330    1.2500    0.0000 N.am    1  LIG1       -0.1792
      6 C           1.7290    0.2500    0.0000 C.ar    1  LIG1        0.0734
      7 C           2.5960   -0.2540    0.0000 C.ar    1  LIG1        0.0167
      8 C           2.5830   -1.2460    0.0000 C.ar    1  LIG1        0.0042
      9 C           1.7290   -1.7540    0.0000 C.ar    1  LIG1        0.0348
     10 C           1.7330   -2.7460    0.0000 C.2     1  LIG1        0.1735
     11 O           0.8790   -3.2460    0.0000 O.2     1  LIG1       -0.2913
     12 C           2.6040   -3.2330    0.0000 C.3     1  LIG1        0.0773
     13 C           0.8540   -1.2580    0.0000 C.ar    1  LIG1        0.0042
     14 C           0.8540   -0.2540    0.0000 C.ar    1  LIG1        0.0167
     15 O           0.8540    2.7500    0.0000 O.2     1  LIG1       -0.2729
     16 S          -1.7460    1.2500    0.0000 S.3     1  LIG1       -0.1295
     17 C          -2.6080    1.7460    0.0000 C.3     1  LIG1        0.0814
     18 C          -2.6080    2.7500    0.0000 C.3     1  LIG1        0.1268
     19 N          -1.7460    3.2500    0.0000 N.am    1  LIG1       -0.2038
     20 O          -0.0080    3.2500    0.0000 O.2     1  LIG1       -0.2724
@<TRIPOS>BOND
     1     1     2    1
     2     1    19   am
     3     1    20    2
     4     2     3    1
     5     2    16    1
     6     3     4    1
     7     4     5   am
     8     4    15    2
     9     5     6    1
    10     6     7   ar
    11     6    14   ar
    12     7     8   ar
    13     8     9   ar
    14     9    10    1
    15     9    13   ar
    16    10    11    2
    17    10    12    1
    18    13    14   ar
    19    16    17    1
    20    17    18    1
    21    18    19    1
