@<TRIPOS>MOLECULE
31126_ChemDiv_4582-0204
 32 36 0 0 0
SMALL
GASTEIGER
Energy = 0

@<TRIPOS>ATOM
      1 N           0.3210   -0.5750    0.0000 N.am    1  LIG1       -0.2201
      2 C          -0.1630   -1.4250    0.0000 C.2     1  LIG1        0.2317
      3 C           0.4920   -2.1540    0.0000 C.3     1  LIG1        0.0857
      4 C           1.3830   -1.7580    0.0000 C.3     1  LIG1        0.0857
      5 C           1.2790   -0.7830    0.0000 C.2     1  LIG1        0.2317
      6 O           2.0000   -0.1250    0.0000 O.2     1  LIG1       -0.2745
      7 C           2.1750   -2.3380    0.0000 C.3     1  LIG1        0.0096
      8 C           2.0710   -3.3080    0.0000 C.3     1  LIG1        0.0005
      9 C           1.1830   -3.7000    0.0000 C.3     1  LIG1        0.0005
     10 C           0.3920   -3.1250    0.0000 C.3     1  LIG1        0.0096
     11 O          -1.1380   -1.5210    0.0000 O.2     1  LIG1       -0.2745
     12 C          -0.0790    0.3210    0.0000 C.3     1  LIG1        0.1878
     13 C           0.5000    1.1170    0.0000 C.2     1  LIG1        0.3322
     14 N           0.1000    2.0080    0.0000 N.am    1  LIG1       -0.1348
     15 C           0.6750    2.8040    0.0000 C.2     1  LIG1        0.3250
     16 N           0.1000    3.5920    0.0000 N.2     1  LIG1       -0.0603
     17 C          -0.8330    3.2920    0.0000 C.3     1  LIG1        0.3140
     18 C          -0.8330    2.3170    0.0000 C.3     1  LIG1        0.2678
     19 C           1.6460    2.7000    0.0000 C.ar    1  LIG1        0.0823
     20 C           2.2250    1.9130    0.0000 C.ar    1  LIG1        0.0074
     21 C           3.2000    2.0210    0.0000 C.ar    1  LIG1        0.0002
     22 C           3.5920    2.9210    0.0000 C.ar    1  LIG1        0.0000
     23 C           3.0130    3.7040    0.0000 C.ar    1  LIG1        0.0002
     24 C           2.0420    3.5960    0.0000 C.ar    1  LIG1        0.0074
     25 O           1.4710    1.0130    0.0000 O.2     1  LIG1       -0.2449
     26 C          -1.8250    0.3130    0.0000 C.3     1  LIG1        0.0585
     27 C          -2.2250    1.2040    0.0000 C.ar    1  LIG1       -0.0199
     28 C          -1.6460    2.0000    0.0000 C.ar    1  LIG1       -0.0042
     29 C          -2.0460    2.8920    0.0000 C.ar    1  LIG1       -0.0003
     30 C          -3.0170    2.9960    0.0000 C.ar    1  LIG1       -0.0000
     31 C          -3.5960    2.2000    0.0000 C.ar    1  LIG1       -0.0003
     32 C          -3.1960    1.3080    0.0000 C.ar    1  LIG1       -0.0042
@<TRIPOS>BOND
     1     1     2   am
     2     1     5   am
     3     1    12    1
     4     2     3    1
     5     2    11    2
     6     3     4    1
     7     3    10    1
     8     4     5    1
     9     4     7    1
    10     5     6    2
    11     7     8    1
    12     8     9    1
    13     9    10    1
    14    12    13    1
    15    12    26    1
    16    13    14   am
    17    13    25    2
    18    14    15    1
    19    14    18    1
    20    15    16    2
    21    15    19    1
    22    16    17    1
    23    17    18    1
    24    19    20   ar
    25    19    24   ar
    26    20    21   ar
    27    21    22   ar
    28    22    23   ar
    29    23    24   ar
    30    26    27    1
    31    27    28   ar
    32    27    32   ar
    33    28    29   ar
    34    29    30   ar
    35    30    31   ar
    36    31    32   ar
