@<TRIPOS>MOLECULE
31130_ChemDiv_4585-0002
 26 27 0 0 0
SMALL
GASTEIGER
Energy = 0

@<TRIPOS>ATOM
      1 C          -3.9290    0.9130    0.0000 C.ar    1  LIG1        0.1342
      2 N          -4.9170    0.8330    0.0000 N.ar    1  LIG1       -0.1867
      3 C          -5.1500   -0.0960    0.0000 C.ar    1  LIG1        0.3686
      4 N          -4.3170   -0.6380    0.0000 N.ar    1  LIG1       -0.1936
      5 C          -3.5380   -0.0040    0.0000 C.ar    1  LIG1        0.0846
      6 C          -2.5830   -0.2500    0.0000 C.3     1  LIG1        0.0540
      7 O          -6.1040   -0.4380    0.0000 O.2     1  LIG1       -0.2426
      8 C          -3.4290    1.8000    0.0000 C.2     1  LIG1        0.1918
      9 O          -3.9460    2.6670    0.0000 O.2     1  LIG1       -0.2897
     10 C          -2.4250    1.8000    0.0000 C.3     1  LIG1        0.0708
     11 C          -1.9500    0.9130    0.0000 C.3     1  LIG1        0.0087
     12 C          -0.9580    0.8830    0.0000 C.3     1  LIG1        0.0121
     13 C          -0.4790    0.0170    0.0000 C.3     1  LIG1        0.1096
     14 C           0.5040   -0.0040    0.0000 C.2     1  LIG1        0.3174
     15 O           1.0000    0.8330    0.0000 O.2     1  LIG1       -0.2501
     16 O           0.9830   -0.8710    0.0000 O.3     1  LIG1       -0.4383
     17 C           1.9920   -0.9330    0.0000 C.3     1  LIG1        0.2945
     18 C           2.4540   -1.8170    0.0000 C.2     1  LIG1        0.2916
     19 N           3.4630   -1.8420    0.0000 N.am    1  LIG1       -0.1540
     20 C           3.9830   -0.9960    0.0000 C.ar    1  LIG1        0.1959
     21 N           3.5710   -0.0670    0.0000 N.ar    1  LIG1       -0.0604
     22 O           4.3290    0.5880    0.0000 O.2     1  LIG1       -0.3565
     23 C           5.2130    0.1040    0.0000 C.ar    1  LIG1        0.1563
     24 C           5.0250   -0.9000    0.0000 C.ar    1  LIG1        0.0751
     25 C           6.1040    0.5380    0.0000 C.3     1  LIG1        0.0754
     26 O           1.9380   -2.6630    0.0000 O.2     1  LIG1       -0.2689
@<TRIPOS>BOND
     1     1     2   ar
     2     1     5   ar
     3     1     8    1
     4     2     3   ar
     5     3     4   ar
     6     3     7    2
     7     4     5   ar
     8     5     6    1
     9     8     9    2
    10     8    10    1
    11    10    11    1
    12    11    12    1
    13    12    13    1
    14    13    14    1
    15    14    15    2
    16    14    16    1
    17    16    17    1
    18    17    18    1
    19    18    19   am
    20    18    26    2
    21    19    20    1
    22    20    21   ar
    23    20    24   ar
    24    21    22   ar
    25    22    23   ar
    26    23    24   ar
    27    23    25    1
