@<TRIPOS>MOLECULE
31135_ChemDiv_4533-0213
 17 18 0 0 0
SMALL
GASTEIGER
Energy = 0

@<TRIPOS>ATOM
      1 N           1.4130    0.0330    0.0000 N.ar    1  LIG1       -0.0869
      2 N           0.8290    0.8500    0.0000 N.ar    1  LIG1       -0.1405
      3 C          -0.1420    0.5170    0.0000 C.ar    1  LIG1        0.1029
      4 C          -0.1210   -0.4790    0.0000 C.ar    1  LIG1        0.1127
      5 C           0.8540   -0.7500    0.0000 C.ar    1  LIG1        0.2316
      6 C           1.2170   -1.6750    0.0000 C.3     1  LIG1        0.1104
      7 C          -1.0000   -1.0000    0.0000 C.2     1  LIG1        0.1798
      8 C          -1.8790   -0.4790    0.0000 C.3     1  LIG1        0.0698
      9 C          -1.8790    0.5170    0.0000 C.3     1  LIG1        0.0130
     10 C          -1.0000    1.0170    0.0000 C.3     1  LIG1        0.0501
     11 C          -2.5380    1.3040    0.0000 C.3     1  LIG1        0.0008
     12 C          -2.8540    0.2630    0.0000 C.3     1  LIG1        0.0008
     13 O          -1.0000   -2.0000    0.0000 O.2     1  LIG1       -0.2911
     14 C           1.1330    1.7920    0.0000 C.3     1  LIG1        0.1711
     15 C           2.0960    2.0040    0.0000 C.3     1  LIG1        0.0328
     16 C           2.4210    0.0130    0.0000 C.3     1  LIG1        0.3477
     17 C           2.8500   -0.8290    0.0000 C.3     1  LIG1        0.0951
@<TRIPOS>BOND
     1     1     2   ar
     2     1     5   ar
     3     1    16    1
     4     2     3   ar
     5     2    14    1
     6     3     4   ar
     7     3    10    1
     8     4     5   ar
     9     4     7    1
    10     5     6    1
    11     7     8    1
    12     7    13    2
    13     8     9    1
    14     9    10    1
    15     9    11    1
    16     9    12    1
    17    14    15    1
    18    16    17    1
