@<TRIPOS>MOLECULE
31138_ChemDiv_4789-4709
 26 28 0 0 0
SMALL
GASTEIGER
Energy = 0

@<TRIPOS>ATOM
      1 C           0.4210   -0.9710    0.0000 C.ar    1  LIG1        0.1669
      2 C          -0.4460   -0.4790    0.0000 C.ar    1  LIG1        0.0838
      3 C          -1.2920   -0.9710    0.0000 C.ar    1  LIG1        0.0854
      4 C          -1.2920   -1.9830    0.0000 C.ar    1  LIG1        0.2979
      5 N          -0.4290   -2.4830    0.0000 N.ar    1  LIG1        0.0828
      6 C           0.4330   -1.9830    0.0000 C.ar    1  LIG1        0.3732
      7 C          -2.1460   -2.4880    0.0000 C.ar    1  LIG1        0.0702
      8 C          -3.0210   -1.9960    0.0000 C.ar    1  LIG1        0.0059
      9 C          -3.0210   -0.9880    0.0000 C.ar    1  LIG1        0.0004
     10 C          -2.1460   -0.4880    0.0000 C.ar    1  LIG1        0.0074
     11 C          -3.8880   -2.4880    0.0000 C.ar    1  LIG1        0.0002
     12 C          -3.8880   -3.4880    0.0000 C.ar    1  LIG1        0.0000
     13 C          -3.0130   -4.0000    0.0000 C.ar    1  LIG1        0.0002
     14 C          -2.1460   -3.4750    0.0000 C.ar    1  LIG1        0.0061
     15 N          -0.4460    0.5170    0.0000 N.pl3   1  LIG1       -0.2330
     16 C          -1.3000    1.0170    0.0000 C.3     1  LIG1        0.1595
     17 C          -1.3000    2.0040    0.0000 C.3     1  LIG1        0.2316
     18 O          -2.1710    2.5080    0.0000 O.3     1  LIG1       -0.4465
     19 C          -3.0380    3.0000    0.0000 C.2     1  LIG1        0.3176
     20 O          -3.9080    2.4920    0.0000 O.2     1  LIG1       -0.2501
     21 C          -3.0540    4.0000    0.0000 C.3     1  LIG1        0.1212
     22 C           1.2960   -0.4670    0.0000 C.2     1  LIG1        0.3488
     23 O           1.2960    0.5290    0.0000 O.2     1  LIG1       -0.2446
     24 O           2.1580   -0.9670    0.0000 O.3     1  LIG1       -0.4453
     25 C           3.0290   -0.4540    0.0000 C.3     1  LIG1        0.2089
     26 C           3.9040   -0.9500    0.0000 C.3     1  LIG1        0.0513
@<TRIPOS>BOND
     1     1     2   ar
     2     1     6   ar
     3     1    22    1
     4     2     3   ar
     5     2    15    1
     6     3     4   ar
     7     3    10   ar
     8     4     5   ar
     9     4     7   ar
    10     5     6   ar
    11     7     8   ar
    12     7    14   ar
    13     8     9   ar
    14     8    11   ar
    15     9    10   ar
    16    11    12   ar
    17    12    13   ar
    18    13    14   ar
    19    15    16    1
    20    16    17    1
    21    17    18    1
    22    18    19    1
    23    19    20    2
    24    19    21    1
    25    22    23    2
    26    22    24    1
    27    24    25    1
    28    25    26    1
