@<TRIPOS>MOLECULE
31142_ChemDiv_5695-0856
 35 37 0 0 0
SMALL
GASTEIGER
Energy = 0

@<TRIPOS>ATOM
      1 C           3.0460    1.4830    0.0000 C.ar    1  LIG1        0.1669
      2 C           3.0630    0.5080    0.0000 C.ar    1  LIG1        0.0837
      3 C           3.9080    0.0250    0.0000 C.ar    1  LIG1        0.0856
      4 C           3.9080   -0.9750    0.0000 C.ar    1  LIG1        0.0139
      5 C           4.7960   -1.4830    0.0000 C.ar    1  LIG1        0.0761
      6 C           4.7790   -2.4710    0.0000 C.2     1  LIG1        0.3412
      7 O           3.9080   -2.9790    0.0000 O.2     1  LIG1       -0.2449
      8 O           5.6460   -2.9790    0.0000 O.3     1  LIG1       -0.4454
      9 C           5.6420   -3.9670    0.0000 C.3     1  LIG1        0.2089
     10 C           6.4960   -4.4670    0.0000 C.3     1  LIG1        0.0513
     11 C           5.6460   -0.9830    0.0000 C.ar    1  LIG1        0.0128
     12 C           5.6460    0.0250    0.0000 C.ar    1  LIG1        0.0764
     13 C           4.7790    0.5130    0.0000 C.ar    1  LIG1        0.2981
     14 N           4.7710    1.5080    0.0000 N.ar    1  LIG1        0.0828
     15 C           3.9080    2.0040    0.0000 C.ar    1  LIG1        0.3732
     16 N           2.2000    0.0080    0.0000 N.pl3   1  LIG1       -0.2369
     17 C           1.3290   -0.5000    0.0000 C.3     1  LIG1        0.1161
     18 C           0.4750    0.0290    0.0000 C.3     1  LIG1        0.0707
     19 C          -0.4250   -0.4580    0.0000 C.3     1  LIG1        0.2106
     20 O          -1.2960    0.0710    0.0000 O.3     1  LIG1       -0.4454
     21 C          -2.1790   -0.4540    0.0000 C.2     1  LIG1        0.3412
     22 C          -3.0500    0.0540    0.0000 C.ar    1  LIG1        0.0758
     23 C          -3.0330    1.0540    0.0000 C.ar    1  LIG1        0.0096
     24 C          -3.8960    1.5420    0.0000 C.ar    1  LIG1        0.0371
     25 C          -4.7750    1.0540    0.0000 C.ar    1  LIG1        0.1387
     26 C          -4.7750    0.0460    0.0000 C.ar    1  LIG1        0.0371
     27 C          -3.8960   -0.4540    0.0000 C.ar    1  LIG1        0.0096
     28 O          -5.6380    1.5420    0.0000 O.3     1  LIG1       -0.4714
     29 C          -6.4960    1.0540    0.0000 C.3     1  LIG1        0.2525
     30 O          -2.1790   -1.4670    0.0000 O.2     1  LIG1       -0.2449
     31 C           2.1790    1.9790    0.0000 C.2     1  LIG1        0.3488
     32 O           1.3210    1.4830    0.0000 O.2     1  LIG1       -0.2446
     33 O           2.1790    2.9750    0.0000 O.3     1  LIG1       -0.4453
     34 C           3.0420    3.4790    0.0000 C.3     1  LIG1        0.2089
     35 C           3.0250    4.4670    0.0000 C.3     1  LIG1        0.0513
@<TRIPOS>BOND
     1     1     2   ar
     2     1    15   ar
     3     1    31    1
     4     2     3   ar
     5     2    16    1
     6     3     4   ar
     7     3    13   ar
     8     4     5   ar
     9     5     6    1
    10     5    11   ar
    11     6     7    2
    12     6     8    1
    13     8     9    1
    14     9    10    1
    15    11    12   ar
    16    12    13   ar
    17    13    14   ar
    18    14    15   ar
    19    16    17    1
    20    17    18    1
    21    18    19    1
    22    19    20    1
    23    20    21    1
    24    21    22    1
    25    21    30    2
    26    22    23   ar
    27    22    27   ar
    28    23    24   ar
    29    24    25   ar
    30    25    26   ar
    31    25    28    1
    32    26    27   ar
    33    28    29    1
    34    31    32    2
    35    31    33    1
    36    33    34    1
    37    34    35    1
