@<TRIPOS>MOLECULE
31145_ChemDiv_4456-0499
 29 31 0 0 0
SMALL
GASTEIGER
Energy = 0

@<TRIPOS>ATOM
      1 S          -3.4960   -0.4630    0.0000 S.O2    1  LIG1       -0.0581
      2 C          -3.4080    0.5540    0.0000 C.ar    1  LIG1        0.0853
      3 C          -2.5250    1.0040    0.0000 C.ar    1  LIG1       -0.0065
      4 C          -2.4920    2.0210    0.0000 C.ar    1  LIG1       -0.0073
      5 C          -3.3290    2.5710    0.0000 C.ar    1  LIG1       -0.0221
      6 C          -4.2000    2.0960    0.0000 C.ar    1  LIG1       -0.0030
      7 C          -4.2460    1.0830    0.0000 C.ar    1  LIG1        0.0163
      8 C          -3.2830    3.5630    0.0000 C.3     1  LIG1        0.0310
      9 C          -1.6880    0.4540    0.0000 C.3     1  LIG1        0.0323
     10 N          -3.5380   -1.4670    0.0000 N.pl3   1  LIG1       -0.5358
     11 C          -2.7000   -2.0170    0.0000 C.ar    1  LIG1       -0.1121
     12 C          -1.8630   -1.5420    0.0000 C.ar    1  LIG1       -0.0205
     13 C          -0.9790   -2.0580    0.0000 C.ar    1  LIG1        0.0416
     14 C          -0.0540   -1.7540    0.0000 C.ar    1  LIG1        0.1087
     15 C           0.5210   -2.5540    0.0000 C.ar    1  LIG1        0.1295
     16 O          -0.0540   -3.3500    0.0000 O.2     1  LIG1       -0.4575
     17 C          -0.9790   -3.0630    0.0000 C.ar    1  LIG1        0.1449
     18 C          -1.8630   -3.5580    0.0000 C.ar    1  LIG1        0.0356
     19 C          -2.7000   -3.0630    0.0000 C.ar    1  LIG1       -0.0207
     20 C           1.5330   -2.5920    0.0000 C.3     1  LIG1        0.0727
     21 C           0.2790   -0.8000    0.0000 C.2     1  LIG1        0.3440
     22 O          -0.3500   -0.0420    0.0000 O.2     1  LIG1       -0.2448
     23 O           1.2830   -0.6250    0.0000 O.3     1  LIG1       -0.4454
     24 C           1.9080   -1.3880    0.0000 C.3     1  LIG1        0.2088
     25 C           2.8790   -1.2540    0.0000 C.3     1  LIG1        0.0475
     26 C           3.5080   -2.0580    0.0000 C.3     1  LIG1        0.0038
     27 C           4.5040   -1.9290    0.0000 C.3     1  LIG1        0.0001
     28 O          -2.4920   -0.4960    0.0000 O.2     1  LIG1       -0.1842
     29 O          -4.5080   -0.3830    0.0000 O.2     1  LIG1       -0.1842
@<TRIPOS>BOND
     1     1     2    1
     2     1    10    1
     3     1    28    2
     4     1    29    2
     5     2     3   ar
     6     2     7   ar
     7     3     4   ar
     8     3     9    1
     9     4     5   ar
    10     5     6   ar
    11     5     8    1
    12     6     7   ar
    13    10    11    1
    14    11    12   ar
    15    11    19   ar
    16    12    13   ar
    17    13    14   ar
    18    13    17   ar
    19    14    15   ar
    20    14    21    1
    21    15    16   ar
    22    15    20    1
    23    16    17   ar
    24    17    18   ar
    25    18    19   ar
    26    21    22    2
    27    21    23    1
    28    23    24    1
    29    24    25    1
    30    25    26    1
    31    26    27    1
