@<TRIPOS>MOLECULE
31143_ChemDiv_4454-0024
 21 22 0 0 0
SMALL
GASTEIGER
Energy = 0

@<TRIPOS>ATOM
      1 S          -0.9790   -1.5670    0.0000 S.2     1  LIG1       -0.0661
      2 C          -0.0420   -1.2330    0.0000 C.ar    1  LIG1        0.0678
      3 C          -0.0420   -0.2170    0.0000 C.ar    1  LIG1        0.0675
      4 S          -1.0080    0.0920    0.0000 S.2     1  LIG1       -0.0661
      5 C          -1.6130   -0.7380    0.0000 C.ar    1  LIG1        0.0953
      6 S          -2.6170   -0.7380    0.0000 S.2     1  LIG1       -0.0365
      7 S           0.8460    0.2420    0.0000 S.3     1  LIG1       -0.0988
      8 C           0.8540    1.2330    0.0000 C.3     1  LIG1        0.1477
      9 C           1.7210    1.7170    0.0000 C.3     1  LIG1        0.3345
     10 N           1.7210    2.7080    0.0000 N.ar    1  LIG1       -0.1588
     11 C           2.5630    3.2040    0.0000 C.ar    1  LIG1        0.2901
     12 C           2.5460    4.2000    0.0000 C.ar    1  LIG1        0.0758
     13 C           1.6920    4.6920    0.0000 C.ar    1  LIG1        0.0126
     14 C           0.8540    4.1790    0.0000 C.ar    1  LIG1        0.0758
     15 C           0.8710    3.2000    0.0000 C.ar    1  LIG1        0.2901
     16 S           0.8460   -1.7250    0.0000 S.3     1  LIG1       -0.0944
     17 C           0.8710   -2.7250    0.0000 C.3     1  LIG1        0.1719
     18 C           1.7420   -3.1960    0.0000 C.2     1  LIG1        0.3286
     19 O           2.6130   -2.6580    0.0000 O.2     1  LIG1       -0.2491
     20 O           1.7210   -4.1830    0.0000 O.3     1  LIG1       -0.4438
     21 C           2.5630   -4.6920    0.0000 C.3     1  LIG1        0.2556
@<TRIPOS>BOND
     1     1     2   ar
     2     1     5   ar
     3     2     3   ar
     4     2    16    1
     5     3     4   ar
     6     3     7    1
     7     4     5   ar
     8     5     6    2
     9     7     8    1
    10     8     9    1
    11     9    10    1
    12    10    11   ar
    13    10    15   ar
    14    11    12   ar
    15    12    13   ar
    16    13    14   ar
    17    14    15   ar
    18    16    17    1
    19    17    18    1
    20    18    19    2
    21    18    20    1
    22    20    21    1
