@<TRIPOS>MOLECULE
31140_ChemDiv_4789-4740
 31 34 0 0 0
SMALL
GASTEIGER
Energy = 0

@<TRIPOS>ATOM
      1 C           0.4460   -1.9670    0.0000 C.ar    1  LIG1        0.1669
      2 C          -0.4330   -1.4790    0.0000 C.ar    1  LIG1        0.0838
      3 C          -1.2670   -1.9710    0.0000 C.ar    1  LIG1        0.0854
      4 C          -1.2670   -2.9790    0.0000 C.ar    1  LIG1        0.2979
      5 N          -0.4170   -3.4790    0.0000 N.ar    1  LIG1        0.0828
      6 C           0.4580   -2.9710    0.0000 C.ar    1  LIG1        0.3732
      7 C          -2.1330   -3.4790    0.0000 C.ar    1  LIG1        0.0702
      8 C          -3.0080   -2.9790    0.0000 C.ar    1  LIG1        0.0059
      9 C          -3.0080   -1.9710    0.0000 C.ar    1  LIG1        0.0004
     10 C          -2.1330   -1.4790    0.0000 C.ar    1  LIG1        0.0074
     11 C          -3.8710   -3.4790    0.0000 C.ar    1  LIG1        0.0002
     12 C          -3.8710   -4.4710    0.0000 C.ar    1  LIG1        0.0000
     13 C          -2.9830   -4.9790    0.0000 C.ar    1  LIG1        0.0002
     14 C          -2.1330   -4.4710    0.0000 C.ar    1  LIG1        0.0061
     15 N          -0.4330   -0.4710    0.0000 N.pl3   1  LIG1       -0.2330
     16 C          -1.2830    0.0290    0.0000 C.3     1  LIG1        0.1595
     17 C          -1.2830    1.0210    0.0000 C.3     1  LIG1        0.2320
     18 O          -2.1580    1.5170    0.0000 O.3     1  LIG1       -0.4434
     19 C          -3.0210    2.0170    0.0000 C.2     1  LIG1        0.3428
     20 C          -3.0380    2.9830    0.0000 C.ar    1  LIG1        0.0948
     21 C          -3.9080    3.4830    0.0000 C.ar    1  LIG1        0.1053
     22 N          -3.9170    4.4790    0.0000 N.ar    1  LIG1       -0.2421
     23 C          -3.0420    4.9790    0.0000 C.ar    1  LIG1        0.0989
     24 C          -2.1880    4.4960    0.0000 C.ar    1  LIG1        0.0209
     25 C          -2.1750    3.4920    0.0000 C.ar    1  LIG1        0.0096
     26 O          -3.8880    1.4920    0.0000 O.2     1  LIG1       -0.2448
     27 C           1.3210   -1.4670    0.0000 C.2     1  LIG1        0.3488
     28 O           1.3040   -0.4540    0.0000 O.2     1  LIG1       -0.2446
     29 O           2.1750   -1.9670    0.0000 O.3     1  LIG1       -0.4453
     30 C           3.0380   -1.4420    0.0000 C.3     1  LIG1        0.2089
     31 C           3.9130   -1.9500    0.0000 C.3     1  LIG1        0.0513
@<TRIPOS>BOND
     1     1     2   ar
     2     1     6   ar
     3     1    27    1
     4     2     3   ar
     5     2    15    1
     6     3     4   ar
     7     3    10   ar
     8     4     5   ar
     9     4     7   ar
    10     5     6   ar
    11     7     8   ar
    12     7    14   ar
    13     8     9   ar
    14     8    11   ar
    15     9    10   ar
    16    11    12   ar
    17    12    13   ar
    18    13    14   ar
    19    15    16    1
    20    16    17    1
    21    17    18    1
    22    18    19    1
    23    19    20    1
    24    19    26    2
    25    20    21   ar
    26    20    25   ar
    27    21    22   ar
    28    22    23   ar
    29    23    24   ar
    30    24    25   ar
    31    27    28    2
    32    27    29    1
    33    29    30    1
    34    30    31    1
