@<TRIPOS>MOLECULE
31148_ChemDiv_4802-0043
 28 31 0 0 0
SMALL
GASTEIGER
Energy = 0

@<TRIPOS>ATOM
      1 S           0.5540   -1.4170    0.0000 S.O2    1  LIG1       -0.0549
      2 N           0.6210   -0.4790    0.0000 N.pl3   1  LIG1       -0.4898
      3 C           0.0130   -0.3380    0.0000 C.ar    1  LIG1        0.1266
      4 N           0.0130    0.5250    0.0000 N.ar    1  LIG1       -0.2288
      5 C          -1.7000    0.5250    0.0000 C.ar    1  LIG1        0.1169
      6 C          -1.7000   -0.3380    0.0000 C.ar    1  LIG1        0.1622
      7 O          -0.8000   -0.8290    0.0000 O.2     1  LIG1       -0.4563
      8 C          -2.6250   -0.6830    0.0000 C.ar    1  LIG1        0.0361
      9 C          -2.8000   -1.6500    0.0000 C.ar    1  LIG1        0.0031
     10 C          -3.7750   -2.0290    0.0000 C.ar    1  LIG1        0.0001
     11 C          -4.5380   -1.4080    0.0000 C.ar    1  LIG1        0.0000
     12 C          -4.3960   -0.4330    0.0000 C.ar    1  LIG1        0.0001
     13 C          -3.4170   -0.0540    0.0000 C.ar    1  LIG1        0.0031
     14 C          -2.5790    0.9580    0.0000 C.ar    1  LIG1        0.0207
     15 C          -2.6540    1.9830    0.0000 C.ar    1  LIG1        0.0016
     16 C          -3.5540    2.4080    0.0000 C.ar    1  LIG1        0.0000
     17 C          -4.3670    1.8380    0.0000 C.ar    1  LIG1        0.0000
     18 C          -4.3080    0.8420    0.0000 C.ar    1  LIG1        0.0000
     19 C          -3.3880    0.4080    0.0000 C.ar    1  LIG1        0.0016
     20 C           1.5210   -1.4170    0.0000 C.ar    1  LIG1        0.0894
     21 C           2.0630   -2.2290    0.0000 C.ar    1  LIG1        0.0166
     22 C           3.1040   -2.1710    0.0000 C.ar    1  LIG1       -0.0030
     23 C           3.4920   -1.2920    0.0000 C.ar    1  LIG1       -0.0218
     24 C           2.9420   -0.4920    0.0000 C.ar    1  LIG1       -0.0030
     25 C           1.9830   -0.5500    0.0000 C.ar    1  LIG1        0.0166
     26 C           4.5330   -1.1750    0.0000 C.3     1  LIG1        0.0310
     27 O           0.5540   -2.4040    0.0000 O.2     1  LIG1       -0.1841
     28 O          -0.5380   -1.4170    0.0000 O.2     1  LIG1       -0.1841
@<TRIPOS>BOND
     1     1     2    1
     2     1    20    1
     3     1    27    2
     4     1    28    2
     5     2     3    1
     6     3     4   ar
     7     3     7   ar
     8     4     5   ar
     9     5     6   ar
    10     5    14    1
    11     6     7   ar
    12     6     8    1
    13     8     9   ar
    14     8    13   ar
    15     9    10   ar
    16    10    11   ar
    17    11    12   ar
    18    12    13   ar
    19    14    15   ar
    20    14    19   ar
    21    15    16   ar
    22    16    17   ar
    23    17    18   ar
    24    18    19   ar
    25    20    21   ar
    26    20    25   ar
    27    21    22   ar
    28    22    23   ar
    29    23    24   ar
    30    23    26    1
    31    24    25   ar
