@<TRIPOS>MOLECULE
31149_ChemDiv_4456-2729
 38 41 0 0 0
SMALL
GASTEIGER
Energy = 0

@<TRIPOS>ATOM
      1 N           2.1250   -1.3630    0.0000 N.ar    1  LIG1       -0.2130
      2 S           2.8580   -2.0540    0.0000 S.O2    1  LIG1        0.0857
      3 C           3.6040   -2.7630    0.0000 C.ar    1  LIG1        0.1276
      4 C           4.5830   -2.3880    0.0000 C.ar    1  LIG1        0.0201
      5 C           5.3170   -3.0790    0.0000 C.ar    1  LIG1       -0.0029
      6 C           5.0710   -4.0250    0.0000 C.ar    1  LIG1       -0.0218
      7 C           4.1750   -4.3580    0.0000 C.ar    1  LIG1       -0.0029
      8 C           3.3960   -3.6920    0.0000 C.ar    1  LIG1        0.0201
      9 C           5.8130   -4.7170    0.0000 C.3     1  LIG1        0.0310
     10 O           3.5580   -1.3290    0.0000 O.2     1  LIG1       -0.1476
     11 O           2.2040   -2.7960    0.0000 O.2     1  LIG1       -0.1476
     12 C           2.2460   -0.3830    0.0000 C.ar    1  LIG1        0.0668
     13 C           1.3500    0.0290    0.0000 C.ar    1  LIG1        0.0904
     14 C           0.6420   -0.7130    0.0000 C.ar    1  LIG1        0.0231
     15 C           1.1460   -1.5670    0.0000 C.ar    1  LIG1        0.0822
     16 C           0.6420   -2.4290    0.0000 C.ar    1  LIG1        0.0171
     17 C          -0.3290   -2.4290    0.0000 C.ar    1  LIG1       -0.0223
     18 C          -0.8250   -1.5670    0.0000 C.ar    1  LIG1       -0.1122
     19 N          -1.8500   -1.5670    0.0000 N.pl3   1  LIG1       -0.5358
     20 S          -2.3380   -2.4290    0.0000 S.O2    1  LIG1       -0.0578
     21 C          -3.1960   -1.9420    0.0000 C.ar    1  LIG1        0.0893
     22 C          -4.0670   -2.4290    0.0000 C.ar    1  LIG1        0.0166
     23 C          -4.9210   -1.9000    0.0000 C.ar    1  LIG1       -0.0030
     24 C          -4.9210   -0.9540    0.0000 C.ar    1  LIG1       -0.0218
     25 C          -4.0670   -0.4170    0.0000 C.ar    1  LIG1       -0.0030
     26 C          -3.1960   -0.9210    0.0000 C.ar    1  LIG1        0.0166
     27 C          -5.8170   -0.4670    0.0000 C.3     1  LIG1        0.0310
     28 O          -2.8380   -3.3330    0.0000 O.2     1  LIG1       -0.1842
     29 O          -1.4420   -2.9670    0.0000 O.2     1  LIG1       -0.1842
     30 C          -0.3290   -0.7130    0.0000 C.ar    1  LIG1       -0.0221
     31 C           1.1790    1.0170    0.0000 C.2     1  LIG1        0.3425
     32 O           0.2330    1.3750    0.0000 O.2     1  LIG1       -0.2448
     33 O           1.9630    1.6330    0.0000 O.3     1  LIG1       -0.4426
     34 C           1.8380    2.6040    0.0000 C.3     1  LIG1        0.2407
     35 C           2.6540    3.1750    0.0000 C.3     1  LIG1        0.1895
     36 O           2.5380    4.1630    0.0000 O.3     1  LIG1       -0.3471
     37 C           3.3040    4.7170    0.0000 C.3     1  LIG1        0.1743
     38 C           3.1500    0.1460    0.0000 C.3     1  LIG1        0.0522
@<TRIPOS>BOND
     1     1     2    1
     2     1    12   ar
     3     1    15   ar
     4     2     3    1
     5     2    10    2
     6     2    11    2
     7     3     4   ar
     8     3     8   ar
     9     4     5   ar
    10     5     6   ar
    11     6     7   ar
    12     6     9    1
    13     7     8   ar
    14    12    13   ar
    15    12    38    1
    16    13    14   ar
    17    13    31    1
    18    14    15   ar
    19    14    30   ar
    20    15    16   ar
    21    16    17   ar
    22    17    18   ar
    23    18    19    1
    24    18    30   ar
    25    19    20    1
    26    20    21    1
    27    20    28    2
    28    20    29    2
    29    21    22   ar
    30    21    26   ar
    31    22    23   ar
    32    23    24   ar
    33    24    25   ar
    34    24    27    1
    35    25    26   ar
    36    31    32    2
    37    31    33    1
    38    33    34    1
    39    34    35    1
    40    35    36    1
    41    36    37    1
