@<TRIPOS>MOLECULE
31159_ChemDiv_4539-0042
 18 20 0 0 0
SMALL
GASTEIGER
Energy = 0

@<TRIPOS>ATOM
      1 C           0.8630    0.2790    0.0000 C.ar    1  LIG1        0.0753
      2 C          -0.0130   -0.2000    0.0000 C.ar    1  LIG1        0.2146
      3 C          -0.8960    0.2790    0.0000 C.ar    1  LIG1        0.1204
      4 C          -0.8960    1.2960    0.0000 C.ar    1  LIG1        0.0271
      5 C          -0.0130    1.7750    0.0000 C.ar    1  LIG1        0.0361
      6 C           0.8630    1.2960    0.0000 C.ar    1  LIG1        0.0114
      7 BR         -0.0130    2.7960    0.0000 Br      1  LIG1       -0.0490
      8 C          -1.7420    1.7750    0.0000 C.ar    1  LIG1        0.0037
      9 C          -2.6130    1.2960    0.0000 C.ar    1  LIG1        0.0207
     10 C          -2.6130    0.2790    0.0000 C.ar    1  LIG1        0.0989
     11 N          -1.7420   -0.2000    0.0000 N.ar    1  LIG1       -0.2406
     12 O          -0.0130   -1.2170    0.0000 O.3     1  LIG1       -0.2851
     13 C           1.7290   -0.2290    0.0000 C.3     1  LIG1        0.1694
     14 N           1.7290   -1.2170    0.0000 N.4     1  LIG1        0.3808
     15 C           1.0040   -1.8920    0.0000 C.3     1  LIG1        0.1392
     16 C           1.3960   -2.7920    0.0000 C.3     1  LIG1        0.0689
     17 C           2.3830   -2.7040    0.0000 C.3     1  LIG1        0.0689
     18 C           2.6080   -1.7170    0.0000 C.3     1  LIG1        0.1392
@<TRIPOS>BOND
     1     1     2   ar
     2     1     6   ar
     3     1    13    1
     4     2     3   ar
     5     2    12    1
     6     3     4   ar
     7     3    11   ar
     8     4     5   ar
     9     4     8   ar
    10     5     6   ar
    11     5     7    1
    12     8     9   ar
    13     9    10   ar
    14    10    11   ar
    15    13    14    1
    16    14    15    1
    17    14    18    1
    18    15    16    1
    19    16    17    1
    20    17    18    1
