@<TRIPOS>MOLECULE
31152_ChemDiv_4817-1122
 25 29 0 0 0
SMALL
GASTEIGER
Energy = 0

@<TRIPOS>ATOM
      1 N          -1.1500    0.8130    0.0000 N.am    1  LIG1       -0.2098
      2 C          -1.7330    0.0380    0.0000 C.2     1  LIG1        0.2330
      3 C          -2.6750    0.3330    0.0000 C.3     1  LIG1        0.0901
      4 C          -2.6750    1.3130    0.0000 C.3     1  LIG1        0.0901
      5 C          -1.7330    1.6250    0.0000 C.2     1  LIG1        0.2330
      6 O          -1.4130    2.5750    0.0000 O.2     1  LIG1       -0.2744
      7 C          -3.5130    1.8170    0.0000 C.3     1  LIG1        0.0311
      8 C          -4.3710    1.3130    0.0000 C.2     1  LIG1       -0.0305
      9 C          -4.3710    0.3330    0.0000 C.2     1  LIG1       -0.0305
     10 C          -3.5130   -0.1540    0.0000 C.3     1  LIG1        0.0311
     11 C          -3.9710    0.8000    0.0000 C.3     1  LIG1        0.0096
     12 O          -1.4130   -0.9170    0.0000 O.2     1  LIG1       -0.2744
     13 C          -0.1630    0.8130    0.0000 C.3     1  LIG1        0.2146
     14 N           0.3420    0.0000    0.0000 N.pl3   1  LIG1       -0.2136
     15 C           1.3170    0.0000    0.0000 C.ar    1  LIG1        0.0848
     16 C           1.8670   -0.8080    0.0000 C.ar    1  LIG1        0.0958
     17 C           2.8540   -0.8210    0.0000 C.ar    1  LIG1        0.0150
     18 C           3.3630   -1.7130    0.0000 C.ar    1  LIG1       -0.0188
     19 C           2.8540   -2.5710    0.0000 C.ar    1  LIG1        0.0164
     20 C           1.8540   -2.5710    0.0000 C.ar    1  LIG1        0.0986
     21 N           1.3630   -1.6670    0.0000 N.ar    1  LIG1       -0.2426
     22 C           4.3670   -1.7130    0.0000 C.3     1  LIG1        0.0311
     23 C           3.3460    0.0830    0.0000 C.ar    1  LIG1        0.0013
     24 C           2.8080    0.9080    0.0000 C.ar    1  LIG1        0.0014
     25 C           1.8080    0.9080    0.0000 C.ar    1  LIG1        0.0177
@<TRIPOS>BOND
     1     1     2   am
     2     1     5   am
     3     1    13    1
     4     2     3    1
     5     2    12    2
     6     3     4    1
     7     3    10    1
     8     4     5    1
     9     4     7    1
    10     5     6    2
    11     7     8    1
    12     7    11    1
    13     8     9    2
    14     9    10    1
    15    10    11    1
    16    13    14    1
    17    14    15    1
    18    15    16   ar
    19    15    25   ar
    20    16    17   ar
    21    16    21   ar
    22    17    18   ar
    23    17    23   ar
    24    18    19   ar
    25    18    22    1
    26    19    20   ar
    27    20    21   ar
    28    23    24   ar
    29    24    25   ar
