@<TRIPOS>MOLECULE
31150_ChemDiv_4813-1567
 16 18 0 0 0
SMALL
GASTEIGER
Energy = 0

@<TRIPOS>ATOM
      1 N           0.1210    0.0080    0.0000 N.ar    1  LIG1       -0.1865
      2 C           0.7920   -0.7250    0.0000 C.ar    1  LIG1        0.2660
      3 O           0.3000   -1.6080    0.0000 O.2     1  LIG1       -0.3319
      4 N          -0.6790   -1.3920    0.0000 N.ar    1  LIG1       -0.0555
      5 C          -0.7920   -0.3920    0.0000 C.ar    1  LIG1        0.2051
      6 C          -1.6580    0.1000    0.0000 C.ar    1  LIG1        0.0583
      7 C          -2.5250   -0.3920    0.0000 C.ar    1  LIG1        0.1020
      8 N          -3.3750    0.1000    0.0000 N.ar    1  LIG1       -0.2422
      9 C          -3.3750    1.1000    0.0000 C.ar    1  LIG1        0.0989
     10 C          -2.5250    1.6130    0.0000 C.ar    1  LIG1        0.0208
     11 C          -1.6580    1.1000    0.0000 C.ar    1  LIG1        0.0063
     12 C           1.7880   -0.6170    0.0000 C.ar    1  LIG1        0.0855
     13 S           2.4580   -1.3670    0.0000 S.2     1  LIG1       -0.0817
     14 C           3.3710   -0.9500    0.0000 C.ar    1  LIG1        0.0356
     15 C           3.2630    0.0500    0.0000 C.ar    1  LIG1        0.0076
     16 C           2.2750    0.2500    0.0000 C.ar    1  LIG1        0.0118
@<TRIPOS>BOND
     1     1     2   ar
     2     1     5   ar
     3     2     3   ar
     4     2    12    1
     5     3     4   ar
     6     4     5   ar
     7     5     6    1
     8     6     7   ar
     9     6    11   ar
    10     7     8   ar
    11     8     9   ar
    12     9    10   ar
    13    10    11   ar
    14    12    13   ar
    15    12    16   ar
    16    13    14   ar
    17    14    15   ar
    18    15    16   ar
