@<TRIPOS>MOLECULE
31164_ChemDiv_4596-0326
 14 15 0 0 0
SMALL
GASTEIGER
Energy = 0

@<TRIPOS>ATOM
      1 C           0.7830    0.4380    0.0000 C.ar    1  LIG1        0.1048
      2 C           0.5290   -0.5460    0.0000 C.ar    1  LIG1        0.0594
      3 S           1.3750   -1.0750    0.0000 S.2     1  LIG1        0.0147
      4 N           2.1500   -0.4380    0.0000 N.ar    1  LIG1       -0.1970
      5 C           1.7920    0.4830    0.0000 C.ar    1  LIG1        0.1561
      6 CL          2.3540    1.3290    0.0000 Cl      1  LIG1       -0.0599
      7 C          -0.4420   -0.7960    0.0000 C.ar    1  LIG1        0.0081
      8 C          -0.6920   -1.7500    0.0000 C.ar    1  LIG1        0.0006
      9 C          -1.6540   -2.0040    0.0000 C.ar    1  LIG1        0.0000
     10 C          -2.3580   -1.3040    0.0000 C.ar    1  LIG1        0.0000
     11 C          -2.0920   -0.3380    0.0000 C.ar    1  LIG1        0.0000
     12 C          -1.1380   -0.0880    0.0000 C.ar    1  LIG1        0.0006
     13 C           0.1540    1.2210    0.0000 C.1     1  LIG1        0.1034
     14 N          -0.4750    2.0080    0.0000 N.1     1  LIG1       -0.1907
@<TRIPOS>BOND
     1     1     2   ar
     2     1     5   ar
     3     1    13    1
     4     2     3   ar
     5     2     7    1
     6     3     4   ar
     7     4     5   ar
     8     5     6    1
     9     7     8   ar
    10     7    12   ar
    11     8     9   ar
    12     9    10   ar
    13    10    11   ar
    14    11    12   ar
    15    13    14    3
