@<TRIPOS>MOLECULE
31163_ChemDiv_7706-0031
 23 26 0 0 0
SMALL
GASTEIGER
Energy = 0

@<TRIPOS>ATOM
      1 C           0.0500    0.9830    0.0000 C.ar    1  LIG1        0.0731
      2 C          -0.8130    0.4960    0.0000 C.ar    1  LIG1        0.2148
      3 C          -1.6750    1.0080    0.0000 C.ar    1  LIG1        0.1200
      4 N          -2.5250    0.4960    0.0000 N.ar    1  LIG1       -0.2406
      5 C          -3.4000    0.9830    0.0000 C.ar    1  LIG1        0.0989
      6 C          -3.4000    2.0330    0.0000 C.ar    1  LIG1        0.0207
      7 C          -2.5250    2.5210    0.0000 C.ar    1  LIG1        0.0032
      8 C          -1.6750    2.0080    0.0000 C.ar    1  LIG1        0.0208
      9 C          -0.8130    2.5210    0.0000 C.ar    1  LIG1        0.0016
     10 C           0.0500    2.0330    0.0000 C.ar    1  LIG1        0.0049
     11 O          -0.8130   -0.5000    0.0000 O.3     1  LIG1       -0.2851
     12 C           0.9210    0.4460    0.0000 C.3     1  LIG1        0.1362
     13 N           1.7830    0.9250    0.0000 N.4     1  LIG1        0.3793
     14 C           2.0210    1.9250    0.0000 C.3     1  LIG1        0.1394
     15 C           2.9830    2.0080    0.0000 C.3     1  LIG1        0.0689
     16 C           3.3960    1.1130    0.0000 C.3     1  LIG1        0.0689
     17 C           2.6330    0.4460    0.0000 C.3     1  LIG1        0.1394
     18 C           0.8960   -0.5250    0.0000 C.ar    1  LIG1        0.0359
     19 C           1.7420   -1.0380    0.0000 C.ar    1  LIG1        0.0223
     20 C           1.7420   -2.0290    0.0000 C.ar    1  LIG1        0.0988
     21 N           0.8460   -2.5170    0.0000 N.ar    1  LIG1       -0.2423
     22 C           0.0000   -2.0130    0.0000 C.ar    1  LIG1        0.0988
     23 C           0.0290   -1.0130    0.0000 C.ar    1  LIG1        0.0223
@<TRIPOS>BOND
     1     1     2   ar
     2     1    10   ar
     3     1    12    1
     4     2     3   ar
     5     2    11    1
     6     3     4   ar
     7     3     8   ar
     8     4     5   ar
     9     5     6   ar
    10     6     7   ar
    11     7     8   ar
    12     8     9   ar
    13     9    10   ar
    14    12    13    1
    15    12    18    1
    16    13    14    1
    17    13    17    1
    18    14    15    1
    19    15    16    1
    20    16    17    1
    21    18    19   ar
    22    18    23   ar
    23    19    20   ar
    24    20    21   ar
    25    21    22   ar
    26    22    23   ar
