@<TRIPOS>MOLECULE
31169_ChemDiv_4459-0102
 23 25 0 0 0
SMALL
GASTEIGER
Energy = 0

@<TRIPOS>ATOM
      1 C           0.7790    0.5080    0.0000 C.2     1  LIG1        0.3554
      2 N           1.6540    1.0080    0.0000 N.2     1  LIG1       -0.0708
      3 C           1.6540    2.0130    0.0000 C.3     1  LIG1        0.1792
      4 C           0.7790    2.5170    0.0000 C.3     1  LIG1        0.0755
      5 C          -0.0540    2.0130    0.0000 C.ar    1  LIG1       -0.0107
      6 C          -0.0540    1.0080    0.0000 C.ar    1  LIG1        0.0816
      7 C          -0.9290    0.5080    0.0000 C.ar    1  LIG1        0.0072
      8 C          -1.8000    1.0080    0.0000 C.ar    1  LIG1        0.0002
      9 C          -1.8000    2.0130    0.0000 C.ar    1  LIG1       -0.0003
     10 C          -0.9290    2.5170    0.0000 C.ar    1  LIG1       -0.0036
     11 C          -0.9290    3.5210    0.0000 C.ar    1  LIG1       -0.0003
     12 C          -1.8000    4.0130    0.0000 C.ar    1  LIG1       -0.0000
     13 C          -2.6630    3.5210    0.0000 C.ar    1  LIG1       -0.0000
     14 C          -2.6630    2.5170    0.0000 C.ar    1  LIG1       -0.0000
     15 C           2.6580    1.8380    0.0000 C.3     1  LIG1        0.0536
     16 C           2.0210    2.9830    0.0000 C.3     1  LIG1        0.0536
     17 N           0.7790   -0.4960    0.0000 N.pl3   1  LIG1       -0.0317
     18 C          -0.0540   -1.0000    0.0000 C.3     1  LIG1        0.2516
     19 C          -0.0540   -2.0040    0.0000 C.3     1  LIG1        0.0613
     20 C           0.7790   -2.5040    0.0000 C.3     1  LIG1        0.0461
     21 C           0.7790   -3.5080    0.0000 C.2     1  LIG1        0.0505
     22 O          -0.0540   -4.0130    0.0000 O.co2   1  LIG1       -0.5492
     23 O           1.6540   -4.0130    0.0000 O.co2   1  LIG1       -0.5492
@<TRIPOS>BOND
     1     1     2    2
     2     1     6    1
     3     1    17    1
     4     2     3    1
     5     3     4    1
     6     3    15    1
     7     3    16    1
     8     4     5    1
     9     5     6   ar
    10     5    10   ar
    11     6     7   ar
    12     7     8   ar
    13     8     9   ar
    14     9    10   ar
    15     9    14   ar
    16    10    11   ar
    17    11    12   ar
    18    12    13   ar
    19    13    14   ar
    20    17    18    1
    21    18    19    1
    22    19    20    1
    23    20    21    1
    24    21    22   ar
    25    21    23   ar
