@<TRIPOS>MOLECULE
31168_ChemDiv_4605-0218
 22 24 0 0 0
SMALL
GASTEIGER
Energy = 0

@<TRIPOS>ATOM
      1 C           1.1880   -0.0040    0.0000 C.3     1  LIG1        0.2007
      2 C           2.1790   -0.0040    0.0000 C.3     1  LIG1        0.2192
      3 C           2.5540    0.9290    0.0000 C.3     1  LIG1        0.1300
      4 C           1.7040    1.5790    0.0000 C.2     1  LIG1        0.3197
      5 O           0.8880    0.9920    0.0000 O.3     1  LIG1       -0.4473
      6 O           1.6830    2.6080    0.0000 O.2     1  LIG1       -0.2500
      7 C           3.0750    1.5790    0.0000 C.3     1  LIG1        0.0149
      8 C           3.3670    0.6830    0.0000 C.3     1  LIG1        0.0149
      9 O           2.4750   -1.0000    0.0000 O.3     1  LIG1       -0.4476
     10 C           1.6830   -1.5830    0.0000 C.2     1  LIG1        0.3197
     11 C           0.8500   -0.9580    0.0000 C.3     1  LIG1        0.1300
     12 C           0.7080   -1.9170    0.0000 C.3     1  LIG1        0.0151
     13 C          -0.1040   -1.3000    0.0000 C.3     1  LIG1        0.0151
     14 O           1.7130   -2.6040    0.0000 O.2     1  LIG1       -0.2500
     15 C           0.1630    0.0080    0.0000 C.ar    1  LIG1        0.0176
     16 C          -0.3420   -0.8540    0.0000 C.ar    1  LIG1       -0.0011
     17 C          -1.3710   -0.8710    0.0000 C.ar    1  LIG1       -0.0045
     18 C          -1.8920   -0.0040    0.0000 C.ar    1  LIG1       -0.0222
     19 C          -1.3710    0.8750    0.0000 C.ar    1  LIG1       -0.0045
     20 C          -0.3630    0.8750    0.0000 C.ar    1  LIG1       -0.0011
     21 C          -2.8830   -0.0250    0.0000 C.3     1  LIG1        0.0264
     22 C          -3.3710   -0.8830    0.0000 C.3     1  LIG1        0.0050
@<TRIPOS>BOND
     1     1     2    1
     2     1     5    1
     3     1    11    1
     4     1    15    1
     5     2     3    1
     6     2     9    1
     7     3     4    1
     8     3     7    1
     9     3     8    1
    10     4     5    1
    11     4     6    2
    12     9    10    1
    13    10    11    1
    14    10    14    2
    15    11    12    1
    16    11    13    1
    17    15    16   ar
    18    15    20   ar
    19    16    17   ar
    20    17    18   ar
    21    18    19   ar
    22    18    21    1
    23    19    20   ar
    24    21    22    1
