@<TRIPOS>MOLECULE
31166_ChemDiv_4596-0328
 16 17 0 0 0
SMALL
GASTEIGER
Energy = 0

@<TRIPOS>ATOM
      1 C          -1.8420   -0.5580    0.0000 C.ar    1  LIG1        0.2125
      2 N          -2.7880   -0.8750    0.0000 N.ar    1  LIG1       -0.0316
      3 O          -3.3830   -0.0670    0.0000 O.2     1  LIG1       -0.2405
      4 N          -2.8000    0.7380    0.0000 N.ar    1  LIG1       -0.0512
      5 C          -1.8500    0.4330    0.0000 C.ar    1  LIG1        0.1369
      6 C          -1.0500    1.0500    0.0000 C.3     1  LIG1        0.0589
      7 N          -0.9710   -1.0460    0.0000 N.am    1  LIG1       -0.1511
      8 C          -0.1130   -0.5420    0.0000 C.2     1  LIG1        0.3047
      9 C           0.7580   -1.0380    0.0000 C.3     1  LIG1        0.2272
     10 N           1.6420   -0.5250    0.0000 N.4     1  LIG1        0.3885
     11 C           1.5960    0.4580    0.0000 C.3     1  LIG1        0.1720
     12 C           2.4500    1.0080    0.0000 C.3     1  LIG1        0.2048
     13 O           3.3330    0.5330    0.0000 O.3     1  LIG1       -0.3411
     14 C           3.3790   -0.4580    0.0000 C.3     1  LIG1        0.2048
     15 C           2.5330   -0.9830    0.0000 C.3     1  LIG1        0.1720
     16 O          -0.1130    0.4540    0.0000 O.2     1  LIG1       -0.2665
@<TRIPOS>BOND
     1     1     2   ar
     2     1     5   ar
     3     1     7    1
     4     2     3   ar
     5     3     4   ar
     6     4     5   ar
     7     5     6    1
     8     7     8   am
     9     8     9    1
    10     8    16    2
    11     9    10    1
    12    10    11    1
    13    10    15    1
    14    11    12    1
    15    12    13    1
    16    13    14    1
    17    14    15    1
