@<TRIPOS>MOLECULE
31162_ChemDiv_4596-0096
 19 19 0 0 0
SMALL
GASTEIGER
Energy = 0

@<TRIPOS>ATOM
      1 C           2.4420    0.0250    0.0000 C.ar    1  LIG1        0.0922
      2 C           3.3500   -0.3960    0.0000 C.ar    1  LIG1        0.0790
      3 S           4.0210    0.3670    0.0000 S.2     1  LIG1        0.0199
      4 N           3.5460    1.1920    0.0000 N.ar    1  LIG1       -0.2023
      5 C           2.5670    1.0250    0.0000 C.ar    1  LIG1        0.1199
      6 S           1.8500    1.7290    0.0000 S.3     1  LIG1       -0.0932
      7 C           0.8830    1.4420    0.0000 C.3     1  LIG1        0.0757
      8 S           3.5460   -1.3880    0.0000 S.3     1  LIG1       -0.1047
      9 C           4.4960   -1.7250    0.0000 C.3     1  LIG1        0.0747
     10 C           1.5540   -0.4670    0.0000 C.2     1  LIG1        0.2678
     11 O           1.5380   -1.4670    0.0000 O.2     1  LIG1       -0.2683
     12 N           0.6920    0.0580    0.0000 N.am    1  LIG1       -0.1997
     13 C          -0.1830   -0.4170    0.0000 C.3     1  LIG1        0.1388
     14 C          -1.0250    0.0920    0.0000 C.3     1  LIG1        0.1385
     15 N          -1.9040   -0.3750    0.0000 N.am    1  LIG1       -0.2035
     16 C          -2.7630    0.1290    0.0000 C.2     1  LIG1        0.2414
     17 O          -2.7630    1.1210    0.0000 O.2     1  LIG1       -0.2733
     18 C          -3.6210   -0.3750    0.0000 C.3     1  LIG1        0.0868
     19 C          -4.5000    0.1290    0.0000 C.3     1  LIG1        0.0101
@<TRIPOS>BOND
     1     1     2   ar
     2     1     5   ar
     3     1    10    1
     4     2     3   ar
     5     2     8    1
     6     3     4   ar
     7     4     5   ar
     8     5     6    1
     9     6     7    1
    10     8     9    1
    11    10    11    2
    12    10    12   am
    13    12    13    1
    14    13    14    1
    15    14    15    1
    16    15    16   am
    17    16    17    2
    18    16    18    1
    19    18    19    1
