@<TRIPOS>MOLECULE
31179_ChemDiv_8009-3204
 20 22 0 0 0
SMALL
GASTEIGER
Energy = 0

@<TRIPOS>ATOM
      1 C          -0.0040   -0.5880    0.0000 C.2     1  LIG1        0.3178
      2 N          -0.0040    0.4380    0.0000 N.2     1  LIG1       -0.0739
      3 C          -0.8630    0.9500    0.0000 C.3     1  LIG1        0.1788
      4 C          -1.7250    0.4380    0.0000 C.3     1  LIG1        0.0755
      5 C          -1.7250   -0.5880    0.0000 C.ar    1  LIG1       -0.0109
      6 C          -0.8630   -1.0670    0.0000 C.ar    1  LIG1        0.0780
      7 C          -0.8630   -2.0920    0.0000 C.ar    1  LIG1        0.0070
      8 C          -1.7250   -2.5750    0.0000 C.ar    1  LIG1        0.0002
      9 C          -2.5960   -2.0920    0.0000 C.ar    1  LIG1       -0.0003
     10 C          -2.5960   -1.0670    0.0000 C.ar    1  LIG1       -0.0039
     11 C           0.0920    1.2000    0.0000 C.3     1  LIG1        0.0493
     12 C           0.3790    2.1630    0.0000 C.3     1  LIG1        0.0044
     13 C          -1.5670    1.6500    0.0000 C.3     1  LIG1        0.0493
     14 C          -1.2790    2.5790    0.0000 C.3     1  LIG1        0.0044
     15 N           0.8630   -1.0670    0.0000 N.pl3   1  LIG1       -0.1860
     16 C           1.7250   -0.5880    0.0000 C.3     1  LIG1        0.2346
     17 C           2.5920   -1.0670    0.0000 C.3     1  LIG1        0.1929
     18 O           2.5920   -2.0920    0.0000 O.3     1  LIG1       -0.3449
     19 C           1.7250   -2.5750    0.0000 C.3     1  LIG1        0.1929
     20 C           0.8630   -2.0920    0.0000 C.3     1  LIG1        0.2346
@<TRIPOS>BOND
     1     1     2    2
     2     1     6    1
     3     1    15    1
     4     2     3    1
     5     3     4    1
     6     3    11    1
     7     3    13    1
     8     4     5    1
     9     5     6   ar
    10     5    10   ar
    11     6     7   ar
    12     7     8   ar
    13     8     9   ar
    14     9    10   ar
    15    11    12    1
    16    13    14    1
    17    15    16    1
    18    15    20    1
    19    16    17    1
    20    17    18    1
    21    18    19    1
    22    19    20    1
