@<TRIPOS>MOLECULE
31172_ChemDiv_6455-0078
 30 34 0 0 0
SMALL
GASTEIGER
Energy = 0

@<TRIPOS>ATOM
      1 N          -1.7710    2.3920    0.0000 N.am    1  LIG1       -0.2299
      2 C          -2.3170    1.6380    0.0000 C.2     1  LIG1        0.2316
      3 C          -3.1500    2.0290    0.0000 C.3     1  LIG1        0.0900
      4 C          -3.1540    2.9540    0.0000 C.3     1  LIG1        0.0900
      5 C          -2.3330    3.1330    0.0000 C.2     1  LIG1        0.2316
      6 O          -1.9920    3.9960    0.0000 O.2     1  LIG1       -0.2745
      7 C          -4.2080    3.3170    0.0000 C.3     1  LIG1        0.0311
      8 C          -5.2250    2.6330    0.0000 C.2     1  LIG1       -0.0305
      9 C          -5.2250    1.7130    0.0000 C.2     1  LIG1       -0.0305
     10 C          -4.2080    1.4580    0.0000 C.3     1  LIG1        0.0311
     11 C          -5.0130    3.8960    0.0000 C.3     1  LIG1        0.0096
     12 O          -2.0790    0.7420    0.0000 O.2     1  LIG1       -0.2745
     13 C          -0.8500    2.3920    0.0000 C.3     1  LIG1        0.1009
     14 C          -0.3790    1.5960    0.0000 C.3     1  LIG1        0.0220
     15 C           0.5420    1.5960    0.0000 C.3     1  LIG1        0.0023
     16 C           1.0130    0.7960    0.0000 C.3     1  LIG1        0.0097
     17 C           1.9500    0.8040    0.0000 C.3     1  LIG1        0.0872
     18 C           2.4130    0.0000    0.0000 C.2     1  LIG1        0.2456
     19 N           1.9630   -0.8080    0.0000 N.am    1  LIG1       -0.1792
     20 C           2.4290   -1.6000    0.0000 C.ar    1  LIG1        0.0735
     21 C           3.3540   -1.5960    0.0000 C.ar    1  LIG1        0.0181
     22 C           3.8250   -2.3880    0.0000 C.ar    1  LIG1        0.0190
     23 C           3.3670   -3.2000    0.0000 C.ar    1  LIG1        0.0814
     24 N           3.8420   -3.9920    0.0000 N.ar    1  LIG1       -0.2438
     25 C           4.7670   -3.9880    0.0000 C.ar    1  LIG1        0.0988
     26 C           5.2210   -3.1710    0.0000 C.ar    1  LIG1        0.0207
     27 C           4.7500   -2.3750    0.0000 C.ar    1  LIG1        0.0031
     28 C           2.4460   -3.2040    0.0000 C.ar    1  LIG1        0.0204
     29 C           1.9670   -2.4040    0.0000 C.ar    1  LIG1        0.0181
     30 O           3.3420    0.0000    0.0000 O.2     1  LIG1       -0.2730
@<TRIPOS>BOND
     1     1     2   am
     2     1     5   am
     3     1    13    1
     4     2     3    1
     5     2    12    2
     6     3     4    1
     7     3    10    1
     8     4     5    1
     9     4     7    1
    10     5     6    2
    11     7     8    1
    12     7    11    1
    13     8     9    2
    14     9    10    1
    15    10    11    1
    16    13    14    1
    17    14    15    1
    18    15    16    1
    19    16    17    1
    20    17    18    1
    21    18    19   am
    22    18    30    2
    23    19    20    1
    24    20    21   ar
    25    20    29   ar
    26    21    22   ar
    27    22    23   ar
    28    22    27   ar
    29    23    24   ar
    30    23    28   ar
    31    24    25   ar
    32    25    26   ar
    33    26    27   ar
    34    28    29   ar
