@<TRIPOS>MOLECULE
31171_ChemDiv_4459-0109
 22 23 0 0 0
SMALL
GASTEIGER
Energy = 0

@<TRIPOS>ATOM
      1 C           1.2500    0.7670    0.0000 C.2     1  LIG1        0.3555
      2 N           2.1170    1.2630    0.0000 N.2     1  LIG1       -0.0708
      3 C           2.1170    2.2670    0.0000 C.3     1  LIG1        0.1792
      4 C           1.2500    2.7670    0.0000 C.3     1  LIG1        0.0756
      5 C           0.3880    2.2670    0.0000 C.ar    1  LIG1       -0.0075
      6 C           0.3880    1.2630    0.0000 C.ar    1  LIG1        0.0849
      7 C          -0.4880    0.7670    0.0000 C.ar    1  LIG1        0.0472
      8 C          -1.3540    1.2630    0.0000 C.ar    1  LIG1        0.1726
      9 C          -1.3540    2.2670    0.0000 C.ar    1  LIG1        0.1721
     10 C          -0.4880    2.7670    0.0000 C.ar    1  LIG1        0.0362
     11 O          -2.2210    2.7670    0.0000 O.3     1  LIG1       -0.4684
     12 C          -3.0830    2.2670    0.0000 C.3     1  LIG1        0.2526
     13 O          -2.2130    0.7670    0.0000 O.3     1  LIG1       -0.4684
     14 C          -2.2130   -0.2330    0.0000 C.3     1  LIG1        0.2526
     15 C           3.0790    2.1000    0.0000 C.3     1  LIG1        0.0536
     16 C           2.4500    3.2330    0.0000 C.3     1  LIG1        0.0536
     17 N           1.2500   -0.2330    0.0000 N.pl3   1  LIG1       -0.0313
     18 C           0.3880   -0.7290    0.0000 C.3     1  LIG1        0.2571
     19 C           0.3880   -1.7330    0.0000 C.3     1  LIG1        0.0970
     20 C          -0.4880   -2.2330    0.0000 C.2     1  LIG1        0.0547
     21 O          -1.3540   -1.7330    0.0000 O.co2   1  LIG1       -0.5490
     22 O          -0.4880   -3.2290    0.0000 O.co2   1  LIG1       -0.5490
@<TRIPOS>BOND
     1     1     2    2
     2     1     6    1
     3     1    17    1
     4     2     3    1
     5     3     4    1
     6     3    15    1
     7     3    16    1
     8     4     5    1
     9     5     6   ar
    10     5    10   ar
    11     6     7   ar
    12     7     8   ar
    13     8     9   ar
    14     8    13    1
    15     9    10   ar
    16     9    11    1
    17    11    12    1
    18    13    14    1
    19    17    18    1
    20    18    19    1
    21    19    20    1
    22    20    21   ar
    23    20    22   ar
