@<TRIPOS>MOLECULE
31173_ChemDiv_4459-0111
 24 26 0 0 0
SMALL
GASTEIGER
Energy = 0

@<TRIPOS>ATOM
      1 C1         -0.8750    0.2830    0.0000 C.2     1  <1>         0.3556
      2 N1          0.0000    0.7830    0.0000 N.2     1  <1>        -0.0708
      3 C2          0.0000    1.7750    0.0000 C.3     1  <1>         0.1792
      4 C3         -0.8750    2.2830    0.0000 C.3     1  <1>         0.0755
      5 C4         -1.7420    1.7750    0.0000 C.ar    1  <1>        -0.0107
      6 C5         -1.7420    0.7830    0.0000 C.ar    1  <1>         0.0816
      7 C6         -2.6080    0.2830    0.0000 C.ar    1  <1>         0.0072
      8 C7         -3.4670    0.7830    0.0000 C.ar    1  <1>         0.0002
      9 C8         -3.4670    1.7750    0.0000 C.ar    1  <1>        -0.0003
     10 C9         -2.6080    2.2830    0.0000 C.ar    1  <1>        -0.0039
     11 C10         0.9880    1.6170    0.0000 C.3     1  <1>         0.0536
     12 C11         0.3210    2.7130    0.0000 C.3     1  <1>         0.0536
     13 N2         -0.8750   -0.7130    0.0000 N.pl3   1  <1>        -0.0298
     14 C12         0.0000   -1.2130    0.0000 C.3     1  <1>         0.2452
     15 C13         0.0000   -2.2130    0.0000 C.2     1  <1>         0.0971
     16 O1         -0.8750   -2.7130    0.0000 O.co2   1  <1>        -0.5450
     17 O2          0.8580   -2.7130    0.0000 O.co2   1  <1>        -0.5450
     18 C14         0.8580   -0.7130    0.0000 C.3     1  <1>         0.0832
     19 C15         1.7250   -1.2130    0.0000 C.ar    1  <1>        -0.0176
     20 C16         1.7250   -2.2130    0.0000 C.ar    1  <1>        -0.0041
     21 C17         2.5920   -2.7130    0.0000 C.ar    1  <1>        -0.0003
     22 C18         3.4630   -2.2130    0.0000 C.ar    1  <1>        -0.0000
     23 C19         3.4630   -1.2130    0.0000 C.ar    1  <1>        -0.0003
     24 C20         2.5920   -0.7130    0.0000 C.ar    1  <1>        -0.0041
@<TRIPOS>BOND
     1     1     2    2
     2     1     6    1
     3     1    13    1
     4     2     3    1
     5     3     4    1
     6     3    11    1
     7     3    12    1
     8     4     5    1
     9     5     6   ar
    10     5    10   ar
    11     6     7   ar
    12     7     8   ar
    13     8     9   ar
    14     9    10   ar
    15    13    14    1
    16    14    15    1
    17    14    18    1
    18    15    16   ar
    19    15    17   ar
    20    18    19    1
    21    19    20   ar
    22    19    24   ar
    23    20    21   ar
    24    21    22   ar
    25    22    23   ar
    26    23    24   ar
