@<TRIPOS>MOLECULE
31177_ChemDiv_8008-4169
 18 20 0 0 0
SMALL
GASTEIGER
Energy = 0

@<TRIPOS>ATOM
      1 C           0.4330    0.2580    0.0000 C.2     1  LIG1        0.3178
      2 N           1.3000    0.7540    0.0000 N.2     1  LIG1       -0.0738
      3 C           1.3130    1.7630    0.0000 C.3     1  LIG1        0.1791
      4 C           0.4330    2.2710    0.0000 C.3     1  LIG1        0.0755
      5 C          -0.4250    1.7460    0.0000 C.ar    1  LIG1       -0.0109
      6 C          -0.4250    0.7540    0.0000 C.ar    1  LIG1        0.0780
      7 C          -1.2920    0.2580    0.0000 C.ar    1  LIG1        0.0070
      8 C          -2.1710    0.7540    0.0000 C.ar    1  LIG1        0.0002
      9 C          -2.1710    1.7630    0.0000 C.ar    1  LIG1       -0.0003
     10 C          -1.2920    2.2540    0.0000 C.ar    1  LIG1       -0.0039
     11 C           1.3130    2.7540    0.0000 C.3     1  LIG1        0.0536
     12 C           2.1670    1.2670    0.0000 C.3     1  LIG1        0.0536
     13 N           0.4250   -0.7380    0.0000 N.pl3   1  LIG1       -0.1860
     14 C          -0.4420   -1.2580    0.0000 C.3     1  LIG1        0.2346
     15 C          -0.4420   -2.2460    0.0000 C.3     1  LIG1        0.1929
     16 O           0.4250   -2.7500    0.0000 O.3     1  LIG1       -0.3449
     17 C           1.2750   -2.2540    0.0000 C.3     1  LIG1        0.1929
     18 C           1.2750   -1.2420    0.0000 C.3     1  LIG1        0.2346
@<TRIPOS>BOND
     1     1     2    2
     2     1     6    1
     3     1    13    1
     4     2     3    1
     5     3     4    1
     6     3    11    1
     7     3    12    1
     8     4     5    1
     9     5     6   ar
    10     5    10   ar
    11     6     7   ar
    12     7     8   ar
    13     8     9   ar
    14     9    10   ar
    15    13    14    1
    16    13    18    1
    17    14    15    1
    18    15    16    1
    19    16    17    1
    20    17    18    1
