@<TRIPOS>MOLECULE
31174_ChemDiv_6455-0084
 26 30 0 0 0
SMALL
GASTEIGER
Energy = 0

@<TRIPOS>ATOM
      1 N          -1.0750    1.1710    0.0000 N.am    1  LIG1       -0.2206
      2 C          -1.6130    0.4210    0.0000 C.2     1  LIG1        0.2321
      3 C          -2.4380    0.8130    0.0000 C.3     1  LIG1        0.0900
      4 C          -2.4380    1.7210    0.0000 C.3     1  LIG1        0.0900
      5 C          -1.6210    1.9040    0.0000 C.2     1  LIG1        0.2321
      6 O          -1.2880    2.7630    0.0000 O.2     1  LIG1       -0.2744
      7 C          -3.4830    2.0790    0.0000 C.3     1  LIG1        0.0311
      8 C          -4.4830    1.4170    0.0000 C.2     1  LIG1       -0.0305
      9 C          -4.4830    0.4960    0.0000 C.2     1  LIG1       -0.0305
     10 C          -3.4830    0.2500    0.0000 C.3     1  LIG1        0.0311
     11 C          -4.2750    2.6630    0.0000 C.3     1  LIG1        0.0096
     12 O          -1.3790   -0.4630    0.0000 O.2     1  LIG1       -0.2744
     13 C          -0.1540    1.1710    0.0000 C.3     1  LIG1        0.1877
     14 C           0.3130    0.3880    0.0000 C.2     1  LIG1        0.2663
     15 N           1.2330    0.3920    0.0000 N.am    1  LIG1       -0.1777
     16 C           1.7040   -0.3960    0.0000 C.ar    1  LIG1        0.0750
     17 C           2.6170   -0.3710    0.0000 C.ar    1  LIG1        0.0372
     18 C           3.0880   -1.1580    0.0000 C.ar    1  LIG1        0.1002
     19 N           4.0040   -1.1420    0.0000 N.ar    1  LIG1       -0.2406
     20 C           4.4790   -1.9290    0.0000 C.ar    1  LIG1        0.1195
     21 C           4.0420   -2.7420    0.0000 C.ar    1  LIG1        0.1195
     22 N           3.1170   -2.7580    0.0000 N.ar    1  LIG1       -0.2407
     23 C           2.6420   -1.9710    0.0000 C.ar    1  LIG1        0.0990
     24 C           1.7250   -1.9880    0.0000 C.ar    1  LIG1        0.0220
     25 C           1.2540   -1.1880    0.0000 C.ar    1  LIG1        0.0182
     26 O          -0.1380   -0.4170    0.0000 O.2     1  LIG1       -0.2711
@<TRIPOS>BOND
     1     1     2   am
     2     1     5   am
     3     1    13    1
     4     2     3    1
     5     2    12    2
     6     3     4    1
     7     3    10    1
     8     4     5    1
     9     4     7    1
    10     5     6    2
    11     7     8    1
    12     7    11    1
    13     8     9    2
    14     9    10    1
    15    10    11    1
    16    13    14    1
    17    14    15   am
    18    14    26    2
    19    15    16    1
    20    16    17   ar
    21    16    25   ar
    22    17    18   ar
    23    18    19   ar
    24    18    23   ar
    25    19    20   ar
    26    20    21   ar
    27    21    22   ar
    28    22    23   ar
    29    23    24   ar
    30    24    25   ar
