@<TRIPOS>MOLECULE
31175_ChemDiv_4459-0113
 21 22 0 0 0
SMALL
GASTEIGER
Energy = 0

@<TRIPOS>ATOM
      1 N           0.4130    2.2880    0.0000 N.2     1  LIG1       -0.0708
      2 C          -0.4250    1.7790    0.0000 C.2     1  LIG1        0.3554
      3 C          -1.2920    2.2880    0.0000 C.ar    1  LIG1        0.0816
      4 C          -1.2920    3.2920    0.0000 C.ar    1  LIG1       -0.0107
      5 C          -0.4250    3.7920    0.0000 C.3     1  LIG1        0.0755
      6 C           0.4130    3.2920    0.0000 C.3     1  LIG1        0.1792
      7 C           0.7750    4.2250    0.0000 C.3     1  LIG1        0.0536
      8 C           1.4170    3.1210    0.0000 C.3     1  LIG1        0.0536
      9 C          -2.1630    3.7920    0.0000 C.ar    1  LIG1       -0.0039
     10 C          -3.0250    3.2920    0.0000 C.ar    1  LIG1       -0.0003
     11 C          -3.0250    2.2880    0.0000 C.ar    1  LIG1        0.0002
     12 C          -2.1630    1.7790    0.0000 C.ar    1  LIG1        0.0072
     13 N          -0.4250    0.7830    0.0000 N.pl3   1  LIG1       -0.0317
     14 C           0.4130    0.2750    0.0000 C.3     1  LIG1        0.2512
     15 C           0.4130   -0.7250    0.0000 C.3     1  LIG1        0.0554
     16 C           1.2790   -1.2250    0.0000 C.3     1  LIG1        0.0048
     17 C           1.2790   -2.2210    0.0000 C.3     1  LIG1        0.0060
     18 C           2.1460   -2.7250    0.0000 C.3     1  LIG1        0.0417
     19 C           2.1460   -3.7290    0.0000 C.2     1  LIG1        0.0503
     20 O           1.2790   -4.2250    0.0000 O.co2   1  LIG1       -0.5492
     21 O           3.0210   -4.2250    0.0000 O.co2   1  LIG1       -0.5492
@<TRIPOS>BOND
     1     1     2    2
     2     1     6    1
     3     2     3    1
     4     2    13    1
     5     3     4   ar
     6     3    12   ar
     7     4     5    1
     8     4     9   ar
     9     5     6    1
    10     6     7    1
    11     6     8    1
    12     9    10   ar
    13    10    11   ar
    14    11    12   ar
    15    13    14    1
    16    14    15    1
    17    15    16    1
    18    16    17    1
    19    17    18    1
    20    18    19    1
    21    19    20   ar
    22    19    21   ar
