@<TRIPOS>MOLECULE
31176_ChemDiv_8005-9162
 20 24 0 0 0
SMALL
GASTEIGER
Energy = 0

@<TRIPOS>ATOM
      1 N           0.2380   -0.0630    0.0000 N.am    1  LIG1       -0.2077
      2 C          -0.3920   -0.8170    0.0000 C.2     1  LIG1        0.2354
      3 C          -1.2960   -0.5080    0.0000 C.3     1  LIG1        0.0903
      4 C          -1.2960    0.4130    0.0000 C.3     1  LIG1        0.0903
      5 C          -0.4210    0.7580    0.0000 C.2     1  LIG1        0.2354
      6 O          -0.2290    1.7130    0.0000 O.2     1  LIG1       -0.2741
      7 C          -2.2790    0.4130    0.0000 C.3     1  LIG1        0.0311
      8 C          -2.7880    1.0920    0.0000 C.3     1  LIG1        0.0084
      9 C          -2.2460   -0.5080    0.0000 C.3     1  LIG1        0.0311
     10 C          -2.8460   -1.3130    0.0000 C.2     1  LIG1       -0.0305
     11 C          -2.8380   -0.3750    0.0000 C.2     1  LIG1       -0.0305
     12 C          -2.2790    1.7790    0.0000 C.3     1  LIG1        0.0007
     13 C          -3.3000    1.7790    0.0000 C.3     1  LIG1        0.0007
     14 O          -0.1580   -1.7750    0.0000 O.2     1  LIG1       -0.2741
     15 C           1.2830   -0.0630    0.0000 C.ar    1  LIG1        0.0734
     16 C           1.7710   -0.9170    0.0000 C.ar    1  LIG1        0.0983
     17 C           2.7710   -0.9170    0.0000 C.ar    1  LIG1        0.3672
     18 N           3.2960   -0.0630    0.0000 N.ar    1  LIG1        0.0892
     19 C           2.7710    0.8250    0.0000 C.ar    1  LIG1        0.3672
     20 C           1.7710    0.8250    0.0000 C.ar    1  LIG1        0.0983
@<TRIPOS>BOND
     1     1     2   am
     2     1     5   am
     3     1    15    1
     4     2     3    1
     5     2    14    2
     6     3     4    1
     7     3     9    1
     8     4     5    1
     9     4     7    1
    10     5     6    2
    11     7     8    1
    12     7    11    1
    13     8     9    1
    14     8    12    1
    15     8    13    1
    16     9    10    1
    17    10    11    2
    18    12    13    1
    19    15    16   ar
    20    15    20   ar
    21    16    17   ar
    22    17    18   ar
    23    18    19   ar
    24    19    20   ar
