@<TRIPOS>MOLECULE
31170_ChemDiv_6080-0028
 23 27 0 0 0
SMALL
GASTEIGER
Energy = 0

@<TRIPOS>ATOM
      1 N           0.1290   -0.4130    0.0000 N.am    1  LIG1       -0.2067
      2 C          -0.4540   -1.2250    0.0000 C.2     1  LIG1        0.2350
      3 C          -1.4000   -0.9130    0.0000 C.3     1  LIG1        0.0819
      4 C          -1.4000    0.0790    0.0000 C.3     1  LIG1        0.0899
      5 C          -0.4540    0.3880    0.0000 C.2     1  LIG1        0.2355
      6 O          -0.1500    1.3460    0.0000 O.2     1  LIG1       -0.2741
      7 C          -2.2630    0.5880    0.0000 C.3     1  LIG1        0.0311
      8 C          -3.1290    0.0790    0.0000 C.2     1  LIG1       -0.0305
      9 C          -3.1290   -0.9170    0.0000 C.2     1  LIG1       -0.0305
     10 C          -2.2630   -1.4170    0.0000 C.3     1  LIG1        0.0307
     11 C          -2.0040   -0.4500    0.0000 C.3     1  LIG1        0.0096
     12 C          -1.4130   -1.9130    0.0000 C.3     1  LIG1        0.0099
     13 O          -0.1500   -2.1710    0.0000 O.2     1  LIG1       -0.2741
     14 C           1.1290   -0.4130    0.0000 C.ar    1  LIG1        0.0782
     15 C           1.6210    0.4460    0.0000 C.ar    1  LIG1        0.0953
     16 N           1.1210    1.3040    0.0000 N.ar    1  LIG1       -0.2426
     17 C           1.6040    2.1670    0.0000 C.ar    1  LIG1        0.0989
     18 C           2.6040    2.1750    0.0000 C.ar    1  LIG1        0.0207
     19 C           3.1040    1.3210    0.0000 C.ar    1  LIG1        0.0031
     20 C           2.6170    0.4540    0.0000 C.ar    1  LIG1        0.0189
     21 C           3.1250   -0.4080    0.0000 C.ar    1  LIG1        0.0016
     22 C           2.6250   -1.2790    0.0000 C.ar    1  LIG1        0.0014
     23 C           1.6250   -1.2790    0.0000 C.ar    1  LIG1        0.0168
@<TRIPOS>BOND
     1     1     2   am
     2     1     5   am
     3     1    14    1
     4     2     3    1
     5     2    13    2
     6     3     4    1
     7     3    10    1
     8     3    12    1
     9     4     5    1
    10     4     7    1
    11     5     6    2
    12     7     8    1
    13     7    11    1
    14     8     9    2
    15     9    10    1
    16    10    11    1
    17    14    15   ar
    18    14    23   ar
    19    15    16   ar
    20    15    20   ar
    21    16    17   ar
    22    17    18   ar
    23    18    19   ar
    24    19    20   ar
    25    20    21   ar
    26    21    22   ar
    27    22    23   ar
