@<TRIPOS>MOLECULE
31183_ChemDiv_8012-2891
 22 23 0 0 0
SMALL
GASTEIGER
Energy = 0

@<TRIPOS>ATOM
      1 C1          0.7080   -0.0960    0.0000 C.2     1  <1>         0.3557
      2 N1          1.2080    0.7630    0.0000 N.2     1  <1>        -0.0708
      3 C2          0.7380    1.6080    0.0000 C.3     1  <1>         0.1792
      4 C3         -0.2630    1.6080    0.0000 C.3     1  <1>         0.0756
      5 C4         -0.7710    0.7540    0.0000 C.ar    1  <1>        -0.0075
      6 C5         -0.3000   -0.0960    0.0000 C.ar    1  <1>         0.0849
      7 C6         -0.7880   -0.9540    0.0000 C.ar    1  <1>         0.0472
      8 C7         -1.7960   -0.9540    0.0000 C.ar    1  <1>         0.1726
      9 C8         -2.2670   -0.0960    0.0000 C.ar    1  <1>         0.1721
     10 C9         -1.7580    0.7540    0.0000 C.ar    1  <1>         0.0362
     11 O1         -3.2380   -0.0960    0.0000 O.3     1  <1>        -0.4684
     12 C10        -3.7290    0.7540    0.0000 C.3     1  <1>         0.2526
     13 O2         -2.3130   -1.8080    0.0000 O.3     1  <1>        -0.4684
     14 C11        -3.3040   -1.8080    0.0000 C.3     1  <1>         0.2526
     15 C12         1.9250    1.6080    0.0000 C.3     1  <1>         0.0536
     16 C13         0.2500    2.6000    0.0000 C.3     1  <1>         0.0536
     17 N2          1.2080   -0.9420    0.0000 N.pl3   1  <1>        -0.0302
     18 C14         2.2170   -0.9420    0.0000 C.3     1  <1>         0.2410
     19 C15         2.7380   -1.7920    0.0000 C.2     1  <1>         0.0967
     20 O3          3.7250   -1.7920    0.0000 O.co2   1  <1>        -0.5450
     21 O4          2.2580   -2.5960    0.0000 O.co2   1  <1>        -0.5450
     22 C16         2.6880   -0.0960    0.0000 C.3     1  <1>         0.0616
@<TRIPOS>BOND
     1     1     2    2
     2     1     6    1
     3     1    17    1
     4     2     3    1
     5     3     4    1
     6     3    15    1
     7     3    16    1
     8     4     5    1
     9     5     6   ar
    10     5    10   ar
    11     6     7   ar
    12     7     8   ar
    13     8     9   ar
    14     8    13    1
    15     9    10   ar
    16     9    11    1
    17    11    12    1
    18    13    14    1
    19    17    18    1
    20    18    19    1
    21    18    22    1
    22    19    20   ar
    23    19    21   ar
