@<TRIPOS>MOLECULE
31184_ChemDiv_K978-0096
 30 34 0 0 0
SMALL
GASTEIGER
Energy = 0

@<TRIPOS>ATOM
      1 N           0.5880    3.0040    0.0000 N.am    1  LIG1       -0.2206
      2 C           1.0540    3.9170    0.0000 C.2     1  LIG1        0.2321
      3 C           2.0130    3.8830    0.0000 C.3     1  LIG1        0.0900
      4 C           2.2750    2.9630    0.0000 C.3     1  LIG1        0.0900
      5 C           1.4830    2.4330    0.0000 C.2     1  LIG1        0.2321
      6 O           1.4500    1.4790    0.0000 O.2     1  LIG1       -0.2744
      7 C           3.2000    2.7420    0.0000 C.3     1  LIG1        0.0311
      8 C           3.8710    3.4210    0.0000 C.2     1  LIG1       -0.0305
      9 C           3.6080    4.3420    0.0000 C.2     1  LIG1       -0.0305
     10 C           2.6670    4.5750    0.0000 C.3     1  LIG1        0.0311
     11 C           3.3960    3.9500    0.0000 C.3     1  LIG1        0.0096
     12 O           0.5170    4.7170    0.0000 O.2     1  LIG1       -0.2744
     13 C          -0.4000    2.7420    0.0000 C.3     1  LIG1        0.1877
     14 C          -1.2880    3.2920    0.0000 C.2     1  LIG1        0.2663
     15 N          -2.1580    2.8000    0.0000 N.am    1  LIG1       -0.1778
     16 C          -2.1580    1.8130    0.0000 C.ar    1  LIG1        0.0736
     17 C          -1.3000    1.3040    0.0000 C.ar    1  LIG1        0.0197
     18 C          -1.2880    0.3000    0.0000 C.ar    1  LIG1        0.0382
     19 C          -2.1380   -0.2130    0.0000 C.ar    1  LIG1        0.1391
     20 O          -2.1380   -1.2040    0.0000 O.3     1  LIG1       -0.4706
     21 C          -3.0170   -1.7000    0.0000 C.3     1  LIG1        0.2320
     22 C          -3.0040   -2.7130    0.0000 C.ar    1  LIG1        0.0212
     23 C          -3.8750   -3.2080    0.0000 C.ar    1  LIG1       -0.0007
     24 C          -3.8630   -4.2210    0.0000 C.ar    1  LIG1       -0.0002
     25 C          -2.9960   -4.7170    0.0000 C.ar    1  LIG1       -0.0000
     26 C          -2.1420   -4.2170    0.0000 C.ar    1  LIG1       -0.0002
     27 C          -2.1500   -3.2040    0.0000 C.ar    1  LIG1       -0.0007
     28 C          -3.0040    0.2920    0.0000 C.ar    1  LIG1        0.0382
     29 C          -3.0210    1.2920    0.0000 C.ar    1  LIG1        0.0197
     30 O          -1.3330    4.3630    0.0000 O.2     1  LIG1       -0.2711
@<TRIPOS>BOND
     1     1     2   am
     2     1     5   am
     3     1    13    1
     4     2     3    1
     5     2    12    2
     6     3     4    1
     7     3    10    1
     8     4     5    1
     9     4     7    1
    10     5     6    2
    11     7     8    1
    12     7    11    1
    13     8     9    2
    14     9    10    1
    15    10    11    1
    16    13    14    1
    17    14    15   am
    18    14    30    2
    19    15    16    1
    20    16    17   ar
    21    16    29   ar
    22    17    18   ar
    23    18    19   ar
    24    19    20    1
    25    19    28   ar
    26    20    21    1
    27    21    22    1
    28    22    23   ar
    29    22    27   ar
    30    23    24   ar
    31    24    25   ar
    32    25    26   ar
    33    26    27   ar
    34    28    29   ar
