@<TRIPOS>MOLECULE
31181_ChemDiv_8010-8882
 25 26 0 0 0
SMALL
GASTEIGER
Energy = 0

@<TRIPOS>ATOM
      1 C          -0.7040   -0.4790    0.0000 C.2     1  LIG1        0.3555
      2 N          -0.2000    0.3920    0.0000 N.2     1  LIG1       -0.0708
      3 C          -0.6830    1.2540    0.0000 C.3     1  LIG1        0.1792
      4 C          -1.7000    1.2540    0.0000 C.3     1  LIG1        0.0756
      5 C          -2.2080    0.3790    0.0000 C.ar    1  LIG1       -0.0075
      6 C          -1.7420   -0.4790    0.0000 C.ar    1  LIG1        0.0849
      7 C          -2.2420   -1.3540    0.0000 C.ar    1  LIG1        0.0472
      8 C          -3.2540   -1.3540    0.0000 C.ar    1  LIG1        0.1726
      9 C          -3.7420   -0.4790    0.0000 C.ar    1  LIG1        0.1721
     10 C          -3.2170    0.3790    0.0000 C.ar    1  LIG1        0.0362
     11 O          -4.7250   -0.4790    0.0000 O.3     1  LIG1       -0.4684
     12 C          -5.2130    0.3670    0.0000 C.3     1  LIG1        0.2526
     13 O          -3.7670   -2.2000    0.0000 O.3     1  LIG1       -0.4684
     14 C          -4.7670   -2.2000    0.0000 C.3     1  LIG1        0.2526
     15 C          -1.1920    2.2040    0.0000 C.3     1  LIG1        0.0536
     16 C           0.2880    1.2540    0.0000 C.3     1  LIG1        0.0536
     17 N          -0.2000   -1.3380    0.0000 N.pl3   1  LIG1       -0.0317
     18 C           0.7880   -1.3380    0.0000 C.3     1  LIG1        0.2512
     19 C           1.2920   -0.5040    0.0000 C.3     1  LIG1        0.0554
     20 C           2.2500   -0.5040    0.0000 C.3     1  LIG1        0.0048
     21 C           2.7080    0.3920    0.0000 C.3     1  LIG1        0.0060
     22 C           3.7630    0.3960    0.0000 C.3     1  LIG1        0.0417
     23 C           4.2380    1.2540    0.0000 C.2     1  LIG1        0.0503
     24 O           3.7290    2.1170    0.0000 O.co2   1  LIG1       -0.5492
     25 O           5.2080    1.2540    0.0000 O.co2   1  LIG1       -0.5492
@<TRIPOS>BOND
     1     1     2    2
     2     1     6    1
     3     1    17    1
     4     2     3    1
     5     3     4    1
     6     3    15    1
     7     3    16    1
     8     4     5    1
     9     5     6   ar
    10     5    10   ar
    11     6     7   ar
    12     7     8   ar
    13     8     9   ar
    14     8    13    1
    15     9    10   ar
    16     9    11    1
    17    11    12    1
    18    13    14    1
    19    17    18    1
    20    18    19    1
    21    19    20    1
    22    20    21    1
    23    21    22    1
    24    22    23    1
    25    23    24   ar
    26    23    25   ar
