@<TRIPOS>MOLECULE
31192_ChemDiv_4605-0230
 24 26 0 0 0
SMALL
GASTEIGER
Energy = 0

@<TRIPOS>ATOM
      1 C           1.4420   -0.0040    0.0000 C.3     1  LIG1        0.2007
      2 C           2.4330   -0.0040    0.0000 C.3     1  LIG1        0.2192
      3 C           2.8040    0.9290    0.0000 C.3     1  LIG1        0.1300
      4 C           1.9540    1.5790    0.0000 C.2     1  LIG1        0.3197
      5 O           1.1420    0.9920    0.0000 O.3     1  LIG1       -0.4473
      6 O           1.9380    2.6080    0.0000 O.2     1  LIG1       -0.2500
      7 C           3.3290    1.5790    0.0000 C.3     1  LIG1        0.0149
      8 C           3.6170    0.6830    0.0000 C.3     1  LIG1        0.0149
      9 O           2.7290   -1.0000    0.0000 O.3     1  LIG1       -0.4476
     10 C           1.9380   -1.5830    0.0000 C.2     1  LIG1        0.3197
     11 C           1.1040   -0.9580    0.0000 C.3     1  LIG1        0.1300
     12 C           0.9580   -1.9170    0.0000 C.3     1  LIG1        0.0151
     13 C           0.1460   -1.3000    0.0000 C.3     1  LIG1        0.0151
     14 O           1.9670   -2.6040    0.0000 O.2     1  LIG1       -0.2500
     15 C           0.4170    0.0080    0.0000 C.ar    1  LIG1        0.0176
     16 C          -0.0880   -0.8540    0.0000 C.ar    1  LIG1       -0.0011
     17 C          -1.1210   -0.8710    0.0000 C.ar    1  LIG1       -0.0045
     18 C          -1.6380   -0.0040    0.0000 C.ar    1  LIG1       -0.0228
     19 C          -2.6330   -0.0250    0.0000 C.3     1  LIG1        0.0189
     20 C          -3.6210   -0.0420    0.0000 C.3     1  LIG1        0.0044
     21 C          -2.6170   -1.0250    0.0000 C.3     1  LIG1        0.0044
     22 C          -2.6460    0.9790    0.0000 C.3     1  LIG1        0.0044
     23 C          -1.1210    0.8750    0.0000 C.ar    1  LIG1       -0.0045
     24 C          -0.1080    0.8750    0.0000 C.ar    1  LIG1       -0.0011
@<TRIPOS>BOND
     1     1     2    1
     2     1     5    1
     3     1    11    1
     4     1    15    1
     5     2     3    1
     6     2     9    1
     7     3     4    1
     8     3     7    1
     9     3     8    1
    10     4     5    1
    11     4     6    2
    12     9    10    1
    13    10    11    1
    14    10    14    2
    15    11    12    1
    16    11    13    1
    17    15    16   ar
    18    15    24   ar
    19    16    17   ar
    20    17    18   ar
    21    18    19    1
    22    18    23   ar
    23    19    20    1
    24    19    21    1
    25    19    22    1
    26    23    24   ar
