@<TRIPOS>MOLECULE
31194_ChemDiv_4605-0231
 19 21 0 0 0
SMALL
GASTEIGER
Energy = 0

@<TRIPOS>ATOM
      1 C           0.8460   -0.0040    0.0000 C.3     1  LIG1        0.2013
      2 C           1.8250   -0.0040    0.0000 C.3     1  LIG1        0.2198
      3 O           2.1170   -0.9830    0.0000 O.3     1  LIG1       -0.4476
      4 C           1.3380   -1.5580    0.0000 C.2     1  LIG1        0.3204
      5 C           0.5170   -0.9420    0.0000 C.3     1  LIG1        0.1430
      6 C          -0.4250   -1.1960    0.0000 C.3     1  LIG1        0.0158
      7 O           1.3630   -2.5630    0.0000 O.2     1  LIG1       -0.2500
      8 C           2.1920    0.9170    0.0000 C.3     1  LIG1        0.1429
      9 C           1.3540    1.5540    0.0000 C.2     1  LIG1        0.3204
     10 O           0.5540    0.9750    0.0000 O.3     1  LIG1       -0.4472
     11 O           1.3380    2.5670    0.0000 O.2     1  LIG1       -0.2500
     12 C           3.1540    1.1420    0.0000 C.3     1  LIG1        0.0156
     13 C          -0.1630    0.0080    0.0000 C.ar    1  LIG1        0.0177
     14 C          -0.6580   -0.8420    0.0000 C.ar    1  LIG1       -0.0003
     15 C          -1.6710   -0.8580    0.0000 C.ar    1  LIG1        0.0065
     16 C          -2.1830   -0.0040    0.0000 C.ar    1  LIG1        0.0345
     17 C          -1.6710    0.8630    0.0000 C.ar    1  LIG1        0.0065
     18 C          -0.6790    0.8630    0.0000 C.ar    1  LIG1       -0.0003
     19 BR         -3.1580   -0.0250    0.0000 Br      1  LIG1       -0.0490
@<TRIPOS>BOND
     1     1     2    1
     2     1     5    1
     3     1    10    1
     4     1    13    1
     5     2     3    1
     6     2     8    1
     7     3     4    1
     8     4     5    1
     9     4     7    2
    10     5     6    1
    11     8     9    1
    12     8    12    1
    13     9    10    1
    14     9    11    2
    15    13    14   ar
    16    13    18   ar
    17    14    15   ar
    18    15    16   ar
    19    16    17   ar
    20    16    19    1
    21    17    18   ar
