@<TRIPOS>MOLECULE
31196_ChemDiv_5824-0050
 25 29 0 0 0
SMALL
GASTEIGER
Energy = 0

@<TRIPOS>ATOM
      1 C           1.1630    0.0040    0.0000 C.3     1  LIG1        0.2007
      2 C           2.1420    0.0040    0.0000 C.3     1  LIG1        0.2192
      3 C           2.4500   -0.8960    0.0000 C.3     1  LIG1        0.1299
      4 C           1.6460   -1.4920    0.0000 C.2     1  LIG1        0.3197
      5 O           0.8920   -0.9000    0.0000 O.3     1  LIG1       -0.4473
      6 O           1.6460   -2.4380    0.0000 O.2     1  LIG1       -0.2500
      7 C           2.8290   -1.7960    0.0000 C.3     1  LIG1        0.0143
      8 C           3.7790   -1.7080    0.0000 C.3     1  LIG1        0.0007
      9 C           3.9960   -0.8130    0.0000 C.3     1  LIG1        0.0007
     10 C           3.1750   -0.2880    0.0000 C.3     1  LIG1        0.0143
     11 O           2.4210    0.9130    0.0000 O.3     1  LIG1       -0.4476
     12 C           1.6630    1.4880    0.0000 C.2     1  LIG1        0.3197
     13 C           0.8670    0.9130    0.0000 C.3     1  LIG1        0.1300
     14 C           0.5330    1.8080    0.0000 C.3     1  LIG1        0.0145
     15 C          -0.4250    1.7710    0.0000 C.3     1  LIG1        0.0007
     16 C          -0.6580    0.8920    0.0000 C.3     1  LIG1        0.0007
     17 C           0.1330    0.3460    0.0000 C.3     1  LIG1        0.0145
     18 O           1.6630    2.4420    0.0000 O.2     1  LIG1       -0.2500
     19 C          -1.1080    0.0040    0.0000 C.ar    1  LIG1        0.0176
     20 C          -1.5920    0.8130    0.0000 C.ar    1  LIG1       -0.0003
     21 C          -2.5460    0.8130    0.0000 C.ar    1  LIG1        0.0065
     22 C          -3.0330   -0.0170    0.0000 C.ar    1  LIG1        0.0345
     23 C          -2.5460   -0.8130    0.0000 C.ar    1  LIG1        0.0065
     24 C          -1.5710   -0.8130    0.0000 C.ar    1  LIG1       -0.0003
     25 BR         -4.0000   -0.0380    0.0000 Br      1  LIG1       -0.0490
@<TRIPOS>BOND
     1     1     2    1
     2     1     5    1
     3     1    13    1
     4     1    19    1
     5     2     3    1
     6     2    11    1
     7     3     4    1
     8     3     7    1
     9     3    10    1
    10     4     5    1
    11     4     6    2
    12     7     8    1
    13     8     9    1
    14     9    10    1
    15    11    12    1
    16    12    13    1
    17    12    18    2
    18    13    14    1
    19    13    17    1
    20    14    15    1
    21    15    16    1
    22    16    17    1
    23    19    20   ar
    24    19    24   ar
    25    20    21   ar
    26    21    22   ar
    27    22    23   ar
    28    22    25    1
    29    23    24   ar
