@<TRIPOS>MOLECULE
31201_ChemDiv_4463-0083
 21 24 0 0 0
SMALL
GASTEIGER
Energy = 0

@<TRIPOS>ATOM
      1 C          -0.0080   -0.2080    0.0000 C.2     1  LIG1        0.0007
      2 C           0.8630    0.3210    0.0000 C.ar    1  LIG1        0.0031
      3 C           0.8630    1.2880    0.0000 C.ar    1  LIG1        0.0389
      4 C          -0.0080    1.8080    0.0000 C.2     1  LIG1        0.1955
      5 C          -0.8540    1.2880    0.0000 C.ar    1  LIG1        0.0389
      6 C          -0.8540    0.3210    0.0000 C.ar    1  LIG1        0.0031
      7 C          -1.7250   -0.2080    0.0000 C.ar    1  LIG1        0.0001
      8 C          -2.5960    0.3210    0.0000 C.ar    1  LIG1        0.0000
      9 C          -2.5960    1.2880    0.0000 C.ar    1  LIG1        0.0001
     10 C          -1.7250    1.8080    0.0000 C.ar    1  LIG1        0.0032
     11 O          -0.0080    2.7880    0.0000 O.2     1  LIG1       -0.2866
     12 C           1.7210    1.8080    0.0000 C.ar    1  LIG1        0.0032
     13 C           2.5920    1.2880    0.0000 C.ar    1  LIG1        0.0001
     14 C           2.5920    0.3210    0.0000 C.ar    1  LIG1        0.0000
     15 C           1.7210   -0.2080    0.0000 C.ar    1  LIG1        0.0001
     16 C          -0.0080   -1.1880    0.0000 C.2     1  LIG1        0.0065
     17 C           0.8630   -1.7080    0.0000 C.ar    1  LIG1        0.0295
     18 S           1.0630   -2.6880    0.0000 S.2     1  LIG1       -0.0864
     19 C           2.0500   -2.7830    0.0000 C.ar    1  LIG1        0.0354
     20 C           2.4790   -1.8710    0.0000 C.ar    1  LIG1        0.0075
     21 C           1.7210   -1.1880    0.0000 C.ar    1  LIG1        0.0070
@<TRIPOS>BOND
     1     1     2    1
     2     1     6    1
     3     1    16    2
     4     2     3   ar
     5     2    15   ar
     6     3     4    1
     7     3    12   ar
     8     4     5    1
     9     4    11    2
    10     5     6   ar
    11     5    10   ar
    12     6     7   ar
    13     7     8   ar
    14     8     9   ar
    15     9    10   ar
    16    12    13   ar
    17    13    14   ar
    18    14    15   ar
    19    16    17    1
    20    17    18   ar
    21    17    21   ar
    22    18    19   ar
    23    19    20   ar
    24    20    21   ar
