@<TRIPOS>MOLECULE
31206_ChemDiv_4817-2853
 22 24 0 0 0
SMALL
GASTEIGER
Energy = 0

@<TRIPOS>ATOM
      1 C          -1.6830   -0.2250    0.0000 C.ar    1  LIG1        0.0765
      2 C          -0.8290   -0.7130    0.0000 C.ar    1  LIG1        0.0586
      3 C          -0.8210   -1.6960    0.0000 C.ar    1  LIG1        0.2707
      4 N          -1.6830   -2.1830    0.0000 N.ar    1  LIG1        0.0659
      5 C          -2.5080   -1.6880    0.0000 C.ar    1  LIG1        0.2707
      6 C          -2.5080   -0.7130    0.0000 C.ar    1  LIG1        0.0586
      7 C          -3.3460   -0.2460    0.0000 C.3     1  LIG1        0.0336
      8 C          -4.1920   -0.7210    0.0000 C.3     1  LIG1        0.0055
      9 C          -4.1920   -1.6880    0.0000 C.3     1  LIG1        0.0117
     10 C          -3.3460   -2.1830    0.0000 C.3     1  LIG1        0.1035
     11 C           0.0210   -2.1830    0.0000 C.3     1  LIG1        0.1039
     12 C           0.8540   -1.6710    0.0000 C.3     1  LIG1        0.0162
     13 C           0.8540   -0.7130    0.0000 C.3     1  LIG1        0.0341
     14 N          -1.6830    0.7330    0.0000 N.am    1  LIG1       -0.1795
     15 C          -0.8460    1.2170    0.0000 C.2     1  LIG1        0.2455
     16 O          -0.8460    2.1880    0.0000 O.2     1  LIG1       -0.2730
     17 C           0.0000    0.7330    0.0000 C.3     1  LIG1        0.0872
     18 C           0.8420    1.2170    0.0000 C.3     1  LIG1        0.0096
     19 C           1.6790    0.7330    0.0000 C.3     1  LIG1        0.0005
     20 C           2.5250    1.2210    0.0000 C.3     1  LIG1        0.0000
     21 C           3.3580    0.7330    0.0000 C.3     1  LIG1        0.0000
     22 C           4.1880    1.2210    0.0000 C.3     1  LIG1        0.0000
@<TRIPOS>BOND
     1     1     2   ar
     2     1     6   ar
     3     1    14    1
     4     2     3   ar
     5     2    13    1
     6     3     4   ar
     7     3    11    1
     8     4     5   ar
     9     5     6   ar
    10     5    10    1
    11     6     7    1
    12     7     8    1
    13     8     9    1
    14     9    10    1
    15    11    12    1
    16    12    13    1
    17    14    15   am
    18    15    16    2
    19    15    17    1
    20    17    18    1
    21    18    19    1
    22    19    20    1
    23    20    21    1
    24    21    22    1
