@<TRIPOS>MOLECULE
31208_ChemDiv_4823-2748
 29 32 0 0 0
SMALL
GASTEIGER
Energy = 0

@<TRIPOS>ATOM
      1 N          -0.2880    0.8130    0.0000 N.am    1  LIG1       -0.1316
      2 C           0.4580    1.4790    0.0000 C.ar    1  LIG1        0.1889
      3 S           1.4290    1.2750    0.0000 S.2     1  LIG1       -0.0434
      4 C           1.9380    2.1380    0.0000 C.ar    1  LIG1        0.1212
      5 C           1.2710    2.8880    0.0000 C.ar    1  LIG1        0.0736
      6 N           0.3630    2.4880    0.0000 N.ar    1  LIG1       -0.2265
      7 C           1.4750    3.8540    0.0000 C.3     1  LIG1        0.0529
      8 C           2.9290    2.2460    0.0000 C.2     1  LIG1        0.3486
      9 O           3.5290    1.4170    0.0000 O.2     1  LIG1       -0.2443
     10 O           3.3460    3.1540    0.0000 O.3     1  LIG1       -0.4451
     11 C           4.3380    3.2500    0.0000 C.3     1  LIG1        0.2089
     12 C           4.7460    4.1540    0.0000 C.3     1  LIG1        0.0513
     13 C          -1.2580    1.0330    0.0000 C.2     1  LIG1        0.2746
     14 C          -1.7790    0.1630    0.0000 C.2     1  LIG1        0.0707
     15 C          -2.7670    0.0670    0.0000 C.2     1  LIG1        0.0064
     16 C          -3.1750   -0.8420    0.0000 C.ar    1  LIG1        0.0096
     17 C          -4.1630   -0.9460    0.0000 C.ar    1  LIG1        0.0378
     18 C          -4.5830   -1.8540    0.0000 C.ar    1  LIG1        0.0469
     19 C          -3.9830   -2.6580    0.0000 C.ar    1  LIG1        0.1769
     20 C          -3.0080   -2.5790    0.0000 C.ar    1  LIG1        0.1765
     21 C          -2.6000   -1.6540    0.0000 C.ar    1  LIG1        0.0407
     22 O          -2.6000   -3.4880    0.0000 O.3     1  LIG1       -0.4346
     23 C          -3.3290   -4.1540    0.0000 C.3     1  LIG1        0.4294
     24 O          -4.2040   -3.6540    0.0000 O.3     1  LIG1       -0.4346
     25 BR         -4.7500   -0.1420    0.0000 Br      1  LIG1       -0.0489
     26 C          -1.1170   -0.5790    0.0000 C.2     1  LIG1        0.0817
     27 N          -0.1790   -0.1750    0.0000 N.2     1  LIG1       -0.1738
     28 C          -1.3170   -1.5540    0.0000 C.3     1  LIG1        0.0539
     29 O          -1.6750    1.9580    0.0000 O.2     1  LIG1       -0.2677
@<TRIPOS>BOND
     1     1     2    1
     2     1    13   am
     3     1    27    1
     4     2     3   ar
     5     2     6   ar
     6     3     4   ar
     7     4     5   ar
     8     4     8    1
     9     5     6   ar
    10     5     7    1
    11     8     9    2
    12     8    10    1
    13    10    11    1
    14    11    12    1
    15    13    14    1
    16    13    29    2
    17    14    15    2
    18    14    26    1
    19    15    16    1
    20    16    17   ar
    21    16    21   ar
    22    17    18   ar
    23    17    25    1
    24    18    19   ar
    25    19    20   ar
    26    19    24    1
    27    20    21   ar
    28    20    22    1
    29    22    23    1
    30    23    24    1
    31    26    27    2
    32    26    28    1
