@<TRIPOS>MOLECULE
31216_ChemDiv_4826-0010
 22 24 0 0 0
SMALL
GASTEIGER
Energy = 0

@<TRIPOS>ATOM
      1 N           1.3830   -1.1790    0.0000 N.ar    1  LIG1       -0.1754
      2 C           0.5130   -0.6750    0.0000 C.ar    1  LIG1        0.2631
      3 N           0.5130    0.3380    0.0000 N.ar    1  LIG1       -0.1252
      4 N           2.2380    0.3250    0.0000 N.ar    1  LIG1       -0.1948
      5 C           2.2380   -0.6750    0.0000 C.ar    1  LIG1        0.2602
      6 N           3.0670   -1.1500    0.0000 N.pl3   1  LIG1       -0.0859
      7 C           2.9170    1.0040    0.0000 C.ar    1  LIG1        0.0858
      8 C           2.6790    1.9330    0.0000 C.ar    1  LIG1        0.0192
      9 C           3.3420    2.5830    0.0000 C.ar    1  LIG1        0.0015
     10 C           4.2830    2.3580    0.0000 C.ar    1  LIG1        0.0001
     11 C           4.5210    1.4250    0.0000 C.ar    1  LIG1        0.0015
     12 C           3.8460    0.7540    0.0000 C.ar    1  LIG1        0.0192
     13 N          -0.3290   -1.1420    0.0000 N.am    1  LIG1       -0.1381
     14 C          -1.1500   -0.6580    0.0000 C.2     1  LIG1        0.2715
     15 C          -1.9880   -1.1420    0.0000 C.ar    1  LIG1        0.0556
     16 C          -2.8210   -0.6420    0.0000 C.ar    1  LIG1        0.0069
     17 C          -3.6420   -1.1170    0.0000 C.ar    1  LIG1        0.0298
     18 C          -3.6580   -2.0920    0.0000 C.ar    1  LIG1        0.1401
     19 C          -2.8210   -2.5710    0.0000 C.ar    1  LIG1        0.0298
     20 C          -1.9880   -2.0920    0.0000 C.ar    1  LIG1        0.0069
     21 F          -4.5250   -2.5790    0.0000 F       1  LIG1       -0.2042
     22 O          -1.1460    0.3040    0.0000 O.2     1  LIG1       -0.2679
@<TRIPOS>BOND
     1     1     2   ar
     2     1     5   ar
     3     2     3   ar
     4     2    13    1
     5     3     4   ar
     6     4     5   ar
     7     4     7    1
     8     5     6    1
     9     7     8   ar
    10     7    12   ar
    11     8     9   ar
    12     9    10   ar
    13    10    11   ar
    14    11    12   ar
    15    13    14   am
    16    14    15    1
    17    14    22    2
    18    15    16   ar
    19    15    20   ar
    20    16    17   ar
    21    17    18   ar
    22    18    19   ar
    23    18    21    1
    24    19    20   ar
