@<TRIPOS>MOLECULE
31210_ChemDiv_4823-2815
 35 39 0 0 0
SMALL
GASTEIGER
Energy = 0

@<TRIPOS>ATOM
      1 N           0.5460    1.5420    0.0000 N.am    1  LIG1       -0.1316
      2 C           1.5130    1.7630    0.0000 C.ar    1  LIG1        0.1889
      3 S           2.2460    1.0880    0.0000 S.2     1  LIG1       -0.0434
      4 C           3.1080    1.5830    0.0000 C.ar    1  LIG1        0.1212
      5 C           2.9040    2.5580    0.0000 C.ar    1  LIG1        0.0736
      6 N           1.9250    2.6630    0.0000 N.ar    1  LIG1       -0.2265
      7 C           3.5630    3.2750    0.0000 C.3     1  LIG1        0.0529
      8 C           4.0080    1.1790    0.0000 C.2     1  LIG1        0.3486
      9 O           4.1040    0.1790    0.0000 O.2     1  LIG1       -0.2443
     10 O           4.8080    1.7460    0.0000 O.3     1  LIG1       -0.4451
     11 C           5.7040    1.3420    0.0000 C.3     1  LIG1        0.2089
     12 C           6.5170    1.9170    0.0000 C.3     1  LIG1        0.0513
     13 C          -0.1880    2.2170    0.0000 C.2     1  LIG1        0.2746
     14 C          -1.0500    1.7210    0.0000 C.2     1  LIG1        0.0707
     15 C          -2.2710    2.2750    0.0000 C.2     1  LIG1        0.0070
     16 C          -3.0880    1.7040    0.0000 C.ar    1  LIG1        0.0133
     17 C          -3.0880    0.7040    0.0000 C.ar    1  LIG1        0.0414
     18 N          -4.0210    0.4040    0.0000 N.ar    1  LIG1       -0.3134
     19 C          -4.6080    1.2080    0.0000 C.ar    1  LIG1        0.0414
     20 C          -4.0210    2.0170    0.0000 C.ar    1  LIG1        0.0142
     21 C          -5.5920    1.2250    0.0000 C.3     1  LIG1        0.0504
     22 C          -4.3330   -0.5420    0.0000 C.ar    1  LIG1        0.0666
     23 C          -5.3040   -0.7380    0.0000 C.ar    1  LIG1        0.0577
     24 C          -5.6040   -1.6920    0.0000 C.ar    1  LIG1        0.1779
     25 C          -4.9460   -2.4170    0.0000 C.ar    1  LIG1        0.1765
     26 O          -5.4460   -3.2710    0.0000 O.3     1  LIG1       -0.4346
     27 C          -6.4170   -3.0710    0.0000 C.3     1  LIG1        0.4294
     28 O          -6.5170   -2.0710    0.0000 O.3     1  LIG1       -0.4346
     29 C          -3.9880   -2.2170    0.0000 C.ar    1  LIG1        0.0417
     30 C          -3.6630   -1.2750    0.0000 C.ar    1  LIG1        0.0208
     31 C          -2.2710    0.1250    0.0000 C.3     1  LIG1        0.0504
     32 C          -0.8460    0.7580    0.0000 C.2     1  LIG1        0.0817
     33 N           0.1330    0.6460    0.0000 N.2     1  LIG1       -0.1738
     34 C          -1.5040    0.0250    0.0000 C.3     1  LIG1        0.0539
     35 O          -0.0750    3.2000    0.0000 O.2     1  LIG1       -0.2677
@<TRIPOS>BOND
     1     1     2    1
     2     1    13   am
     3     1    33    1
     4     2     3   ar
     5     2     6   ar
     6     3     4   ar
     7     4     5   ar
     8     4     8    1
     9     5     6   ar
    10     5     7    1
    11     8     9    2
    12     8    10    1
    13    10    11    1
    14    11    12    1
    15    13    14    1
    16    13    35    2
    17    14    15    2
    18    14    32    1
    19    15    16    1
    20    16    17   ar
    21    16    20   ar
    22    17    18   ar
    23    17    31    1
    24    18    19   ar
    25    18    22    1
    26    19    20   ar
    27    19    21    1
    28    22    23   ar
    29    22    30   ar
    30    23    24   ar
    31    24    25   ar
    32    24    28    1
    33    25    26    1
    34    25    29   ar
    35    26    27    1
    36    27    28    1
    37    29    30   ar
    38    32    33    2
    39    32    34    1
