@<TRIPOS>MOLECULE
31215_ChemDiv_D012-0123
 18 20 0 0 0
SMALL
GASTEIGER
Energy = 0

@<TRIPOS>ATOM
      1 C           0.0630    0.7960    0.0000 C.2     1  LIG1        0.3235
      2 N           0.9330    0.2960    0.0000 N.am    1  LIG1       -0.2511
      3 C           0.9330   -0.7130    0.0000 C.3     1  LIG1        0.1517
      4 C           1.8040   -1.2000    0.0000 C.3     1  LIG1        0.1074
      5 N           2.6670   -0.7130    0.0000 N.4     1  LIG1        0.3756
      6 C           2.6670    0.2960    0.0000 C.3     1  LIG1        0.1603
      7 C           1.7960    0.8040    0.0000 C.3     1  LIG1        0.1578
      8 C           3.4040   -1.3670    0.0000 C.3     1  LIG1        0.1386
      9 C           3.0000   -2.2790    0.0000 C.3     1  LIG1        0.0687
     10 C           2.0170   -2.1830    0.0000 C.3     1  LIG1        0.0646
     11 N          -0.8080    0.2880    0.0000 N.am    1  LIG1       -0.1902
     12 C          -1.6790    0.7880    0.0000 C.3     1  LIG1        0.0969
     13 C          -1.6790    1.7880    0.0000 C.3     1  LIG1        0.0217
     14 C          -2.5460    2.2830    0.0000 C.3     1  LIG1        0.0018
     15 C          -3.4080    1.7830    0.0000 C.3     1  LIG1        0.0001
     16 C          -3.4080    0.7830    0.0000 C.3     1  LIG1        0.0018
     17 C          -2.5460    0.2830    0.0000 C.3     1  LIG1        0.0217
     18 O           0.0540    1.8000    0.0000 O.2     1  LIG1       -0.2508
@<TRIPOS>BOND
     1     1     2   am
     2     1    11   am
     3     1    18    2
     4     2     3    1
     5     2     7    1
     6     3     4    1
     7     4     5    1
     8     4    10    1
     9     5     6    1
    10     5     8    1
    11     6     7    1
    12     8     9    1
    13     9    10    1
    14    11    12    1
    15    12    13    1
    16    12    17    1
    17    13    14    1
    18    14    15    1
    19    15    16    1
    20    16    17    1
