@<TRIPOS>MOLECULE
31221_ChemDiv_4550-5828
 29 32 0 0 0
SMALL
GASTEIGER
Energy = 0

@<TRIPOS>ATOM
      1 C          -4.7420   -0.1500    0.0000 C.3     1  LIG1        0.0250
      2 C          -4.1630    0.4460    0.0000 C.3     1  LIG1        0.1150
      3 C          -4.7710    1.2330    0.0000 C.3     1  LIG1        0.0250
      4 C          -5.5170    0.4630    0.0000 C.3     1  LIG1        0.0023
      5 C          -6.3750    0.4920    0.0000 C.3     1  LIG1        0.0024
      6 C          -5.3290   -0.4830    0.0000 C.3     1  LIG1        0.0002
      7 C          -4.6790   -1.0580    0.0000 C.3     1  LIG1        0.0023
      8 C          -4.3790    2.0080    0.0000 C.3     1  LIG1        0.0024
      9 C          -5.6580    1.5580    0.0000 C.3     1  LIG1        0.0024
     10 O          -3.1630    0.4750    0.0000 O.3     1  LIG1       -0.3533
     11 C          -2.6460   -0.3750    0.0000 C.3     1  LIG1        0.1810
     12 C          -1.6540   -0.3460    0.0000 C.3     1  LIG1        0.2375
     13 C          -1.1290   -1.1920    0.0000 C.3     1  LIG1        0.1746
     14 N          -0.1330   -1.1580    0.0000 N.4     1  LIG1        0.3820
     15 C           0.3920   -2.0040    0.0000 C.3     1  LIG1        0.1606
     16 C           1.3830   -1.9750    0.0000 C.3     1  LIG1        0.1544
     17 N           1.8670   -1.0880    0.0000 N.pl3   1  LIG1       -0.2972
     18 C           2.8540   -1.0580    0.0000 C.ar    1  LIG1        0.0483
     19 C           3.3170   -0.1790    0.0000 C.ar    1  LIG1        0.0176
     20 C           4.3170   -0.1420    0.0000 C.ar    1  LIG1        0.0382
     21 C           4.8420   -0.9920    0.0000 C.ar    1  LIG1        0.1388
     22 C           4.3630   -1.8710    0.0000 C.ar    1  LIG1        0.0382
     23 C           3.3790   -1.9000    0.0000 C.ar    1  LIG1        0.0176
     24 O           5.8460   -0.9540    0.0000 O.3     1  LIG1       -0.4714
     25 C           6.3750   -1.8040    0.0000 C.3     1  LIG1        0.2525
     26 C           1.3330   -0.2460    0.0000 C.3     1  LIG1        0.1544
     27 C           0.3330   -0.2750    0.0000 C.3     1  LIG1        0.1606
     28 O          -1.1880    0.5380    0.0000 O.3     1  LIG1       -0.2140
     29 C          -3.8830   -0.6460    0.0000 C.3     1  LIG1        0.0024
@<TRIPOS>BOND
     1     1     2    1
     2     1     5    1
     3     1     7    1
     4     1    29    1
     5     2     3    1
     6     2    10    1
     7     3     4    1
     8     3     8    1
     9     3     9    1
    10     4     5    1
    11     4     6    1
    12     6     7    1
    13    10    11    1
    14    11    12    1
    15    12    13    1
    16    12    28    1
    17    13    14    1
    18    14    15    1
    19    14    27    1
    20    15    16    1
    21    16    17    1
    22    17    18    1
    23    17    26    1
    24    18    19   ar
    25    18    23   ar
    26    19    20   ar
    27    20    21   ar
    28    21    22   ar
    29    21    24    1
    30    22    23   ar
    31    24    25    1
    32    26    27    1
