@<TRIPOS>MOLECULE
31225_ChemDiv_D089-0226
 28 31 0 0 0
SMALL
GASTEIGER
Energy = 0

@<TRIPOS>ATOM
      1 C           1.4290   -1.1420    0.0000 C.ar    1  LIG1        0.1088
      2 C           1.2420   -2.1290    0.0000 C.ar    1  LIG1        0.0481
      3 C           0.3790   -2.6290    0.0000 C.ar    1  LIG1        0.0765
      4 C          -0.4830   -2.1290    0.0000 C.3     1  LIG1        0.1695
      5 N          -1.3460   -2.6290    0.0000 N.4     1  LIG1        0.3808
      6 C          -1.4500   -3.6250    0.0000 C.3     1  LIG1        0.1392
      7 C          -2.4210   -3.8250    0.0000 C.3     1  LIG1        0.0689
      8 C          -2.9210   -2.9630    0.0000 C.3     1  LIG1        0.0689
      9 C          -2.2500   -2.2290    0.0000 C.3     1  LIG1        0.1392
     10 C           0.3670   -3.6380    0.0000 C.ar    1  LIG1        0.1974
     11 C           1.2380   -4.1420    0.0000 C.ar    1  LIG1        0.0450
     12 C           2.1040   -3.6250    0.0000 C.ar    1  LIG1        0.0407
     13 C           2.1130   -2.6170    0.0000 C.ar    1  LIG1        0.1451
     14 O           2.8420   -1.9290    0.0000 O.2     1  LIG1       -0.4575
     15 C           2.4290   -1.0250    0.0000 C.ar    1  LIG1        0.1295
     16 C           2.9170   -0.1500    0.0000 C.3     1  LIG1        0.0727
     17 O          -0.4750   -4.1500    0.0000 O.3     1  LIG1       -0.2867
     18 C           0.7500   -0.4130    0.0000 C.2     1  LIG1        0.3440
     19 O          -0.2250   -0.6290    0.0000 O.2     1  LIG1       -0.2448
     20 O           1.0420    0.5420    0.0000 O.3     1  LIG1       -0.4450
     21 C           2.0170    0.7670    0.0000 C.3     1  LIG1        0.2134
     22 C           2.3170    1.7210    0.0000 C.3     1  LIG1        0.0738
     23 C           1.6380    2.4580    0.0000 C.ar    1  LIG1       -0.0184
     24 C           1.9290    3.4170    0.0000 C.ar    1  LIG1       -0.0041
     25 C           1.2540    4.1500    0.0000 C.ar    1  LIG1       -0.0003
     26 C           0.2750    3.9290    0.0000 C.ar    1  LIG1       -0.0000
     27 C          -0.0210    2.9670    0.0000 C.ar    1  LIG1       -0.0003
     28 C           0.6630    2.2290    0.0000 C.ar    1  LIG1       -0.0041
@<TRIPOS>BOND
     1     1     2   ar
     2     1    15   ar
     3     1    18    1
     4     2     3   ar
     5     2    13   ar
     6     3     4    1
     7     3    10   ar
     8     4     5    1
     9     5     6    1
    10     5     9    1
    11     6     7    1
    12     7     8    1
    13     8     9    1
    14    10    11   ar
    15    10    17    1
    16    11    12   ar
    17    12    13   ar
    18    13    14   ar
    19    14    15   ar
    20    15    16    1
    21    18    19    2
    22    18    20    1
    23    20    21    1
    24    21    22    1
    25    22    23    1
    26    23    24   ar
    27    23    28   ar
    28    24    25   ar
    29    25    26   ar
    30    26    27   ar
    31    27    28   ar
