@<TRIPOS>MOLECULE
31223_ChemDiv_4550-6107
 36 40 0 0 0
SMALL
GASTEIGER
Energy = 0

@<TRIPOS>ATOM
      1 C          -0.3710   -1.9830    0.0000 C.ar    1  LIG1        0.1086
      2 C          -1.1000   -1.3170    0.0000 C.ar    1  LIG1        0.0441
      3 C          -1.1000   -0.3380    0.0000 C.ar    1  LIG1        0.0386
      4 C          -1.9540    0.1670    0.0000 C.ar    1  LIG1        0.1934
      5 C          -2.8130   -0.3380    0.0000 C.ar    1  LIG1        0.0416
      6 C          -2.8130   -1.3170    0.0000 C.ar    1  LIG1        0.0376
      7 C          -1.9540   -1.8170    0.0000 C.ar    1  LIG1        0.1449
      8 O          -1.7710   -2.7540    0.0000 O.2     1  LIG1       -0.4575
      9 C          -0.8080   -2.8580    0.0000 C.ar    1  LIG1        0.1294
     10 C          -0.3290   -3.7290    0.0000 C.3     1  LIG1        0.0727
     11 C          -3.6460   -1.8170    0.0000 C.ar    1  LIG1        0.0031
     12 C          -4.4960   -1.3170    0.0000 C.ar    1  LIG1        0.0001
     13 C          -4.4960   -0.3380    0.0000 C.ar    1  LIG1        0.0001
     14 C          -3.6460    0.1670    0.0000 C.ar    1  LIG1        0.0033
     15 O          -1.9540    1.1420    0.0000 O.3     1  LIG1       -0.2869
     16 C          -0.2460    0.1670    0.0000 C.3     1  LIG1        0.1065
     17 N           1.1210    0.1000    0.0000 N.3     1  LIG1       -0.2566
     18 C           1.6130   -0.7540    0.0000 C.3     1  LIG1        0.1363
     19 C           2.5880   -0.7880    0.0000 C.3     1  LIG1        0.1566
     20 N           3.1000    0.1000    0.0000 N.4     1  LIG1        0.3842
     21 C           2.5880    0.9580    0.0000 C.3     1  LIG1        0.1566
     22 C           1.6130    0.9580    0.0000 C.3     1  LIG1        0.1363
     23 C           4.4920    0.0460    0.0000 C.3     1  LIG1        0.2024
     24 C          -0.2460    1.1670    0.0000 C.ar    1  LIG1       -0.0033
     25 C           0.6080    1.6420    0.0000 C.ar    1  LIG1        0.0005
     26 C           0.6080    2.6420    0.0000 C.ar    1  LIG1        0.0366
     27 C          -0.2460    3.1210    0.0000 C.ar    1  LIG1        0.1387
     28 C          -1.1210    2.6250    0.0000 C.ar    1  LIG1        0.0366
     29 C          -1.1000    1.6420    0.0000 C.ar    1  LIG1        0.0005
     30 O          -0.2330    3.9040    0.0000 O.3     1  LIG1       -0.4714
     31 C           0.7250    4.1920    0.0000 C.3     1  LIG1        0.2525
     32 C           0.6080   -1.7960    0.0000 C.2     1  LIG1        0.3440
     33 O           0.9380   -0.8580    0.0000 O.2     1  LIG1       -0.2448
     34 O           1.2330   -2.5250    0.0000 O.3     1  LIG1       -0.4454
     35 C           0.9000   -3.4420    0.0000 C.3     1  LIG1        0.2089
     36 C           1.5250   -4.1920    0.0000 C.3     1  LIG1        0.0513
@<TRIPOS>BOND
     1     1     2   ar
     2     1     9   ar
     3     1    32    1
     4     2     3   ar
     5     2     7   ar
     6     3     4   ar
     7     3    16    1
     8     4     5   ar
     9     4    15    1
    10     5     6   ar
    11     5    14   ar
    12     6     7   ar
    13     6    11   ar
    14     7     8   ar
    15     8     9   ar
    16     9    10    1
    17    11    12   ar
    18    12    13   ar
    19    13    14   ar
    20    16    17    1
    21    16    24    1
    22    17    18    1
    23    17    22    1
    24    18    19    1
    25    19    20    1
    26    20    21    1
    27    20    23    1
    28    21    22    1
    29    24    25   ar
    30    24    29   ar
    31    25    26   ar
    32    26    27   ar
    33    27    28   ar
    34    27    30    1
    35    28    29   ar
    36    30    31    1
    37    32    33    2
    38    32    34    1
    39    34    35    1
    40    35    36    1
