@<TRIPOS>MOLECULE
31220_ChemDiv_4613-0315
 41 45 0 0 0
SMALL
GASTEIGER
Energy = 0

@<TRIPOS>ATOM
      1 S           2.8500   -2.9170    0.0000 S.O2    1  LIG1       -0.0577
      2 N           3.7130   -2.4170    0.0000 N.pl3   1  LIG1       -0.5335
      3 C           4.5790   -2.9170    0.0000 C.ar    1  LIG1       -0.0778
      4 C           5.4290   -2.4170    0.0000 C.ar    1  LIG1        0.1167
      5 C           6.3000   -2.9170    0.0000 C.ar    1  LIG1        0.0347
      6 C           6.3170   -3.9040    0.0000 C.ar    1  LIG1       -0.0013
      7 C           5.4420   -4.4130    0.0000 C.ar    1  LIG1       -0.0235
      8 C           4.5670   -3.9040    0.0000 C.ar    1  LIG1       -0.0252
      9 C           5.4420   -5.4040    0.0000 C.3     1  LIG1        0.0310
     10 O           5.4290   -1.4040    0.0000 O.3     1  LIG1       -0.4733
     11 C           4.5580   -0.9210    0.0000 C.3     1  LIG1        0.2524
     12 C           1.9750   -2.4290    0.0000 C.ar    1  LIG1        0.0894
     13 C           1.9750   -1.4040    0.0000 C.ar    1  LIG1        0.0182
     14 C           1.1130   -0.9170    0.0000 C.ar    1  LIG1        0.0179
     15 C           0.2580   -1.4210    0.0000 C.ar    1  LIG1        0.0738
     16 N          -0.6040   -0.9210    0.0000 N.am    1  LIG1       -0.1754
     17 C          -1.4750   -1.4210    0.0000 C.2     1  LIG1        0.2690
     18 C          -2.3460   -0.9170    0.0000 C.ar    1  LIG1        0.0554
     19 C          -2.2500    0.0920    0.0000 C.ar    1  LIG1        0.0043
     20 C          -3.0670    0.6750    0.0000 C.ar    1  LIG1       -0.0017
     21 C          -3.9750    0.2500    0.0000 C.ar    1  LIG1        0.0061
     22 C          -4.7670    0.8330    0.0000 C.3     1  LIG1        0.1471
     23 N          -4.7920    1.8080    0.0000 N.am    1  LIG1       -0.2635
     24 C          -5.7330    2.1130    0.0000 C.2     1  LIG1        0.2377
     25 C          -6.3170    1.3040    0.0000 C.3     1  LIG1        0.1444
     26 S          -5.7290    0.4920    0.0000 S.3     1  LIG1       -0.1069
     27 O          -6.0750    3.0630    0.0000 O.2     1  LIG1       -0.2739
     28 C          -3.9960    2.4080    0.0000 C.3     1  LIG1        0.1212
     29 C          -4.1170    3.4080    0.0000 C.ar    1  LIG1       -0.0023
     30 C          -5.0250    3.7880    0.0000 C.ar    1  LIG1       -0.0026
     31 C          -5.1290    4.7960    0.0000 C.ar    1  LIG1       -0.0003
     32 C          -4.3420    5.4040    0.0000 C.ar    1  LIG1       -0.0000
     33 C          -3.4290    4.9790    0.0000 C.ar    1  LIG1       -0.0003
     34 C          -3.3130    4.0000    0.0000 C.ar    1  LIG1       -0.0026
     35 C          -4.0790   -0.7420    0.0000 C.ar    1  LIG1       -0.0017
     36 C          -3.2540   -1.3250    0.0000 C.ar    1  LIG1        0.0043
     37 O          -1.4750   -2.4290    0.0000 O.2     1  LIG1       -0.2680
     38 C           0.2580   -2.4290    0.0000 C.ar    1  LIG1        0.0179
     39 C           1.1130   -2.9210    0.0000 C.ar    1  LIG1        0.0182
     40 O           2.3540   -3.7830    0.0000 O.2     1  LIG1       -0.1842
     41 O           3.3540   -3.7830    0.0000 O.2     1  LIG1       -0.1842
@<TRIPOS>BOND
     1     1     2    1
     2     1    12    1
     3     1    40    2
     4     1    41    2
     5     2     3    1
     6     3     4   ar
     7     3     8   ar
     8     4     5   ar
     9     4    10    1
    10     5     6   ar
    11     6     7   ar
    12     7     8   ar
    13     7     9    1
    14    10    11    1
    15    12    13   ar
    16    12    39   ar
    17    13    14   ar
    18    14    15   ar
    19    15    16    1
    20    15    38   ar
    21    16    17   am
    22    17    18    1
    23    17    37    2
    24    18    19   ar
    25    18    36   ar
    26    19    20   ar
    27    20    21   ar
    28    21    22    1
    29    21    35   ar
    30    22    23    1
    31    22    26    1
    32    23    24   am
    33    23    28    1
    34    24    25    1
    35    24    27    2
    36    25    26    1
    37    28    29    1
    38    29    30   ar
    39    29    34   ar
    40    30    31   ar
    41    31    32   ar
    42    32    33   ar
    43    33    34   ar
    44    35    36   ar
    45    38    39   ar
