@<TRIPOS>MOLECULE
31238_ChemDiv_4826-0082
 29 32 0 0 0
SMALL
GASTEIGER
Energy = 0

@<TRIPOS>ATOM
      1 C           1.2000    0.1130    0.0000 C.ar    1  LIG1        0.2471
      2 N           0.3380   -0.3790    0.0000 N.ar    1  LIG1       -0.1764
      3 C          -0.5380    0.1290    0.0000 C.ar    1  LIG1        0.2631
      4 N          -0.5380    1.1170    0.0000 N.ar    1  LIG1       -0.1252
      5 N           1.2000    1.1170    0.0000 N.ar    1  LIG1       -0.1957
      6 C           1.8830    1.7880    0.0000 C.ar    1  LIG1        0.0858
      7 C           2.7960    1.5330    0.0000 C.ar    1  LIG1        0.0192
      8 C           3.4830    2.1920    0.0000 C.ar    1  LIG1        0.0015
      9 C           3.2250    3.1250    0.0000 C.ar    1  LIG1        0.0001
     10 C           2.3130    3.3830    0.0000 C.ar    1  LIG1        0.0015
     11 C           1.6330    2.7000    0.0000 C.ar    1  LIG1        0.0192
     12 N          -1.3670   -0.3580    0.0000 N.am    1  LIG1       -0.1381
     13 C          -2.1960    0.1290    0.0000 C.2     1  LIG1        0.2715
     14 O          -2.1790    1.0920    0.0000 O.2     1  LIG1       -0.2679
     15 C          -3.0250   -0.3500    0.0000 C.ar    1  LIG1        0.0555
     16 C          -3.8380    0.1330    0.0000 C.ar    1  LIG1        0.0046
     17 C          -4.6670   -0.3330    0.0000 C.ar    1  LIG1        0.0001
     18 C          -4.6670   -1.2880    0.0000 C.ar    1  LIG1        0.0000
     19 C          -3.8380   -1.7790    0.0000 C.ar    1  LIG1        0.0001
     20 C          -3.0250   -1.3040    0.0000 C.ar    1  LIG1        0.0046
     21 N           2.0290   -0.3580    0.0000 N.am    1  LIG1       -0.1393
     22 C           2.0290   -1.3710    0.0000 C.2     1  LIG1        0.2715
     23 O           1.1630   -1.8790    0.0000 O.2     1  LIG1       -0.2679
     24 C           2.9080   -1.8790    0.0000 C.ar    1  LIG1        0.0555
     25 C           2.9080   -2.8830    0.0000 C.ar    1  LIG1        0.0046
     26 C           3.7790   -3.3790    0.0000 C.ar    1  LIG1        0.0001
     27 C           4.6630   -2.8670    0.0000 C.ar    1  LIG1        0.0000
     28 C           4.6460   -1.8630    0.0000 C.ar    1  LIG1        0.0001
     29 C           3.7790   -1.3710    0.0000 C.ar    1  LIG1        0.0046
@<TRIPOS>BOND
     1     1     2   ar
     2     1     5   ar
     3     1    21    1
     4     2     3   ar
     5     3     4   ar
     6     3    12    1
     7     4     5   ar
     8     5     6    1
     9     6     7   ar
    10     6    11   ar
    11     7     8   ar
    12     8     9   ar
    13     9    10   ar
    14    10    11   ar
    15    12    13   am
    16    13    14    2
    17    13    15    1
    18    15    16   ar
    19    15    20   ar
    20    16    17   ar
    21    17    18   ar
    22    18    19   ar
    23    19    20   ar
    24    21    22   am
    25    22    23    2
    26    22    24    1
    27    24    25   ar
    28    24    29   ar
    29    25    26   ar
    30    26    27   ar
    31    27    28   ar
    32    28    29   ar
