@<TRIPOS>MOLECULE
31230_ChemDiv_4638-0135
 36 40 0 0 0
SMALL
GASTEIGER
Energy = 0

@<TRIPOS>ATOM
      1 N           3.4580   -0.2500    0.0000 N.am    1  LIG1       -0.2679
      2 C           2.5960    0.2460    0.0000 C.2     1  LIG1        0.2495
      3 C           1.7040   -0.2500    0.0000 C.ar    1  LIG1        0.0537
      4 C           0.8380    0.2460    0.0000 C.ar    1  LIG1        0.0058
      5 C          -0.0250   -0.2500    0.0000 C.ar    1  LIG1        0.0167
      6 C          -0.0250   -1.2670    0.0000 C.ar    1  LIG1        0.0735
      7 N          -0.8960   -1.7710    0.0000 N.am    1  LIG1       -0.1761
      8 C          -1.7630   -1.2670    0.0000 C.2     1  LIG1        0.2897
      9 C          -2.6210   -1.7710    0.0000 C.3     1  LIG1        0.2863
     10 O          -3.4880   -1.2670    0.0000 O.3     1  LIG1       -0.4629
     11 C          -4.3500   -1.7710    0.0000 C.ar    1  LIG1        0.1729
     12 C          -4.3500   -2.7670    0.0000 C.ar    1  LIG1        0.1724
     13 O          -3.4880   -3.2670    0.0000 O.3     1  LIG1       -0.4679
     14 C          -2.6210   -2.7670    0.0000 C.3     1  LIG1        0.2584
     15 C          -5.1920   -3.2670    0.0000 C.ar    1  LIG1        0.0400
     16 C          -6.0500   -2.7670    0.0000 C.ar    1  LIG1        0.0033
     17 C          -6.0500   -1.7710    0.0000 C.ar    1  LIG1        0.0033
     18 C          -5.1920   -1.2670    0.0000 C.ar    1  LIG1        0.0401
     19 O          -1.7630   -0.2500    0.0000 O.2     1  LIG1       -0.2689
     20 C           0.8380   -1.7710    0.0000 C.ar    1  LIG1        0.0167
     21 C           1.7040   -1.2670    0.0000 C.ar    1  LIG1        0.0058
     22 O           2.6210    1.2460    0.0000 O.2     1  LIG1       -0.2699
     23 C           3.4580   -1.2460    0.0000 C.3     1  LIG1        0.1208
     24 C           4.3080   -1.7420    0.0000 C.ar    1  LIG1       -0.0023
     25 C           4.3080   -2.7420    0.0000 C.ar    1  LIG1       -0.0026
     26 C           5.1750   -3.2500    0.0000 C.ar    1  LIG1       -0.0003
     27 C           6.0500   -2.7670    0.0000 C.ar    1  LIG1       -0.0000
     28 C           6.0500   -1.7580    0.0000 C.ar    1  LIG1       -0.0003
     29 C           5.1830   -1.2630    0.0000 C.ar    1  LIG1       -0.0026
     30 C           4.3250    0.2460    0.0000 C.3     1  LIG1        0.1208
     31 C           4.3250    1.2460    0.0000 C.ar    1  LIG1       -0.0023
     32 C           3.4580    1.7500    0.0000 C.ar    1  LIG1       -0.0026
     33 C           3.4580    2.7500    0.0000 C.ar    1  LIG1       -0.0003
     34 C           4.3250    3.2710    0.0000 C.ar    1  LIG1       -0.0000
     35 C           5.1830    2.7500    0.0000 C.ar    1  LIG1       -0.0003
     36 C           5.1830    1.7500    0.0000 C.ar    1  LIG1       -0.0026
@<TRIPOS>BOND
     1     1     2   am
     2     1    23    1
     3     1    30    1
     4     2     3    1
     5     2    22    2
     6     3     4   ar
     7     3    21   ar
     8     4     5   ar
     9     5     6   ar
    10     6     7    1
    11     6    20   ar
    12     7     8   am
    13     8     9    1
    14     8    19    2
    15     9    10    1
    16     9    14    1
    17    10    11    1
    18    11    12   ar
    19    11    18   ar
    20    12    13    1
    21    12    15   ar
    22    13    14    1
    23    15    16   ar
    24    16    17   ar
    25    17    18   ar
    26    20    21   ar
    27    23    24    1
    28    24    25   ar
    29    24    29   ar
    30    25    26   ar
    31    26    27   ar
    32    27    28   ar
    33    28    29   ar
    34    30    31    1
    35    31    32   ar
    36    31    36   ar
    37    32    33   ar
    38    33    34   ar
    39    34    35   ar
    40    35    36   ar
