@<TRIPOS>MOLECULE
31236_ChemDiv_4826-0025
 20 22 0 0 0
SMALL
GASTEIGER
Energy = 0

@<TRIPOS>ATOM
      1 N           0.8750   -1.3290    0.0000 N.ar    1  LIG1       -0.1754
      2 C          -0.0040   -0.8250    0.0000 C.ar    1  LIG1        0.2632
      3 N          -0.0040    0.1830    0.0000 N.ar    1  LIG1       -0.1252
      4 N           1.7290    0.1830    0.0000 N.ar    1  LIG1       -0.1948
      5 C           1.7290   -0.8250    0.0000 C.ar    1  LIG1        0.2602
      6 N           2.5500   -1.2960    0.0000 N.pl3   1  LIG1       -0.0859
      7 C           2.4000    0.8460    0.0000 C.ar    1  LIG1        0.0858
      8 C           2.1580    1.7710    0.0000 C.ar    1  LIG1        0.0192
      9 C           2.8380    2.4330    0.0000 C.ar    1  LIG1        0.0015
     10 C           3.7630    2.1960    0.0000 C.ar    1  LIG1        0.0001
     11 C           4.0040    1.2750    0.0000 C.ar    1  LIG1        0.0015
     12 C           3.3380    0.6000    0.0000 C.ar    1  LIG1        0.0192
     13 N          -0.8420   -1.2960    0.0000 N.am    1  LIG1       -0.1355
     14 C          -1.6750   -0.8130    0.0000 C.2     1  LIG1        0.3062
     15 C          -2.4960   -1.2920    0.0000 C.ar    1  LIG1        0.2006
     16 O          -2.5960   -2.2380    0.0000 O.2     1  LIG1       -0.4457
     17 C          -3.5380   -2.4290    0.0000 C.ar    1  LIG1        0.1798
     18 C          -4.0080   -1.5960    0.0000 C.ar    1  LIG1        0.0440
     19 C          -3.3670   -0.8880    0.0000 C.ar    1  LIG1        0.0455
     20 O          -1.6580    0.1500    0.0000 O.2     1  LIG1       -0.2646
@<TRIPOS>BOND
     1     1     2   ar
     2     1     5   ar
     3     2     3   ar
     4     2    13    1
     5     3     4   ar
     6     4     5   ar
     7     4     7    1
     8     5     6    1
     9     7     8   ar
    10     7    12   ar
    11     8     9   ar
    12     9    10   ar
    13    10    11   ar
    14    11    12   ar
    15    13    14   am
    16    14    15    1
    17    14    20    2
    18    15    16   ar
    19    15    19   ar
    20    16    17   ar
    21    17    18   ar
    22    18    19   ar
