@<TRIPOS>MOLECULE
31234_ChemDiv_4826-0011
 22 24 0 0 0
SMALL
GASTEIGER
Energy = 0

@<TRIPOS>ATOM
      1 N           1.3750   -1.1920    0.0000 N.ar    1  LIG1       -0.1754
      2 C           0.5080   -0.6880    0.0000 C.ar    1  LIG1        0.2631
      3 N           0.5170    0.3170    0.0000 N.ar    1  LIG1       -0.1252
      4 N           2.2380    0.3170    0.0000 N.ar    1  LIG1       -0.1948
      5 C           2.2380   -0.6880    0.0000 C.ar    1  LIG1        0.2602
      6 N           3.0670   -1.1670    0.0000 N.pl3   1  LIG1       -0.0859
      7 C           2.9170    0.9960    0.0000 C.ar    1  LIG1        0.0858
      8 C           2.6670    1.9210    0.0000 C.ar    1  LIG1        0.0192
      9 C           3.3500    2.5920    0.0000 C.ar    1  LIG1        0.0015
     10 C           4.2830    2.3460    0.0000 C.ar    1  LIG1        0.0001
     11 C           4.5210    1.4130    0.0000 C.ar    1  LIG1        0.0015
     12 C           3.8420    0.7460    0.0000 C.ar    1  LIG1        0.0192
     13 N          -0.3330   -1.1500    0.0000 N.am    1  LIG1       -0.1381
     14 C          -1.1540   -0.6710    0.0000 C.2     1  LIG1        0.2715
     15 C          -1.9920   -1.1500    0.0000 C.ar    1  LIG1        0.0555
     16 C          -2.8170   -0.6630    0.0000 C.ar    1  LIG1        0.0054
     17 C          -3.6540   -1.1380    0.0000 C.ar    1  LIG1        0.0115
     18 C          -3.6540   -2.1000    0.0000 C.ar    1  LIG1        0.0577
     19 C          -2.8170   -2.5830    0.0000 C.ar    1  LIG1        0.0115
     20 C          -1.9920   -2.1000    0.0000 C.ar    1  LIG1        0.0054
     21 CL         -4.5250   -2.5880    0.0000 Cl      1  LIG1       -0.0822
     22 O          -1.1540    0.2880    0.0000 O.2     1  LIG1       -0.2679
@<TRIPOS>BOND
     1     1     2   ar
     2     1     5   ar
     3     2     3   ar
     4     2    13    1
     5     3     4   ar
     6     4     5   ar
     7     4     7    1
     8     5     6    1
     9     7     8   ar
    10     7    12   ar
    11     8     9   ar
    12     9    10   ar
    13    10    11   ar
    14    11    12   ar
    15    13    14   am
    16    14    15    1
    17    14    22    2
    18    15    16   ar
    19    15    20   ar
    20    16    17   ar
    21    17    18   ar
    22    18    19   ar
    23    18    21    1
    24    19    20   ar
