@<TRIPOS>MOLECULE
31231_ChemDiv_D089-0531
 33 37 0 0 0
SMALL
GASTEIGER
Energy = 0

@<TRIPOS>ATOM
      1 C           2.3790    1.0290    0.0000 C.ar    1  LIG1        0.0881
      2 C           2.1830    0.0460    0.0000 C.ar    1  LIG1        0.0420
      3 C           1.3210   -0.4540    0.0000 C.ar    1  LIG1        0.0360
      4 C           0.4670    0.0460    0.0000 C.3     1  LIG1        0.1028
      5 N          -0.3960   -0.4540    0.0000 N.3     1  LIG1       -0.2588
      6 C          -1.2670    0.0460    0.0000 C.3     1  LIG1        0.1361
      7 C          -2.1170   -0.4500    0.0000 C.3     1  LIG1        0.1568
      8 N          -2.1290   -1.4500    0.0000 N.4     1  LIG1        0.3829
      9 C          -3.0040   -1.9460    0.0000 C.3     1  LIG1        0.1663
     10 C          -3.0040   -2.9380    0.0000 C.ar    1  LIG1        0.0344
     11 C          -2.1420   -3.4380    0.0000 C.ar    1  LIG1        0.0014
     12 C          -2.1420   -4.4330    0.0000 C.ar    1  LIG1       -0.0001
     13 C          -3.0170   -4.9250    0.0000 C.ar    1  LIG1       -0.0000
     14 C          -3.8710   -4.4250    0.0000 C.ar    1  LIG1       -0.0001
     15 C          -3.8670   -3.4330    0.0000 C.ar    1  LIG1        0.0014
     16 C          -1.2670   -1.9460    0.0000 C.3     1  LIG1        0.1568
     17 C          -0.3960   -1.4500    0.0000 C.3     1  LIG1        0.1361
     18 C           1.3170   -1.4630    0.0000 C.ar    1  LIG1        0.1932
     19 C           2.1830   -1.9630    0.0000 C.ar    1  LIG1        0.0449
     20 C           3.0540   -1.4500    0.0000 C.ar    1  LIG1        0.0407
     21 C           3.0580   -0.4420    0.0000 C.ar    1  LIG1        0.1449
     22 O           3.7960    0.2420    0.0000 O.2     1  LIG1       -0.4576
     23 C           3.3790    1.1540    0.0000 C.ar    1  LIG1        0.1276
     24 C           3.8670    2.0290    0.0000 C.3     1  LIG1        0.0726
     25 O           0.4670   -1.9750    0.0000 O.3     1  LIG1       -0.2869
     26 C           1.6960    1.7670    0.0000 C.2     1  LIG1        0.2675
     27 N           1.9920    2.7290    0.0000 N.am    1  LIG1       -0.2034
     28 C           1.3080    3.4580    0.0000 C.3     1  LIG1        0.0956
     29 C           1.5080    4.4420    0.0000 C.3     1  LIG1        0.0217
     30 C           0.6210    4.9250    0.0000 C.3     1  LIG1        0.0018
     31 C          -0.1080    4.2420    0.0000 C.3     1  LIG1        0.0018
     32 C           0.3170    3.3420    0.0000 C.3     1  LIG1        0.0217
     33 O           0.7170    1.5420    0.0000 O.2     1  LIG1       -0.2683
@<TRIPOS>BOND
     1     1     2   ar
     2     1    23   ar
     3     1    26    1
     4     2     3   ar
     5     2    21   ar
     6     3     4    1
     7     3    18   ar
     8     4     5    1
     9     5     6    1
    10     5    17    1
    11     6     7    1
    12     7     8    1
    13     8     9    1
    14     8    16    1
    15     9    10    1
    16    10    11   ar
    17    10    15   ar
    18    11    12   ar
    19    12    13   ar
    20    13    14   ar
    21    14    15   ar
    22    16    17    1
    23    18    19   ar
    24    18    25    1
    25    19    20   ar
    26    20    21   ar
    27    21    22   ar
    28    22    23   ar
    29    23    24    1
    30    26    27   am
    31    26    33    2
    32    27    28    1
    33    28    29    1
    34    28    32    1
    35    29    30    1
    36    30    31    1
    37    31    32    1
