@<TRIPOS>MOLECULE
31248_ChemDiv_6529-0308
 21 23 0 0 0
SMALL
GASTEIGER
Energy = 0

@<TRIPOS>ATOM
      1 N           0.5500   -1.5130    0.0000 N.ar    1  LIG1       -0.1758
      2 C           1.5500   -1.5130    0.0000 C.ar    1  LIG1        0.2602
      3 N           1.8630   -0.5540    0.0000 N.ar    1  LIG1       -0.1948
      4 N           1.0460    0.0330    0.0000 N.ar    1  LIG1       -0.1256
      5 C           0.2460   -0.5540    0.0000 C.ar    1  LIG1        0.2566
      6 N          -0.7040   -0.2500    0.0000 N.pl3   1  LIG1       -0.1977
      7 C          -0.9210    0.7290    0.0000 C.3     1  LIG1        0.1417
      8 C          -1.8710    1.0460    0.0000 C.ar    1  LIG1       -0.0005
      9 C          -2.6040    0.3710    0.0000 C.ar    1  LIG1       -0.0020
     10 C          -3.5540    0.6750    0.0000 C.ar    1  LIG1        0.0064
     11 C          -3.7670    1.6540    0.0000 C.ar    1  LIG1        0.0345
     12 BR         -4.7210    1.9580    0.0000 Br      1  LIG1       -0.0490
     13 C          -3.0250    2.3250    0.0000 C.ar    1  LIG1        0.0064
     14 C          -2.0710    2.0210    0.0000 C.ar    1  LIG1       -0.0020
     15 C           2.8130   -0.2500    0.0000 C.ar    1  LIG1        0.0858
     16 C           3.5580   -0.9170    0.0000 C.ar    1  LIG1        0.0192
     17 C           4.5080   -0.6130    0.0000 C.ar    1  LIG1        0.0015
     18 C           4.7170    0.3630    0.0000 C.ar    1  LIG1        0.0001
     19 C           3.9670    1.0330    0.0000 C.ar    1  LIG1        0.0015
     20 C           3.0210    0.7290    0.0000 C.ar    1  LIG1        0.0192
     21 N           2.1380   -2.3210    0.0000 N.pl3   1  LIG1       -0.0859
@<TRIPOS>BOND
     1     1     2   ar
     2     1     5   ar
     3     2     3   ar
     4     2    21    1
     5     3     4   ar
     6     3    15    1
     7     4     5   ar
     8     5     6    1
     9     6     7    1
    10     7     8    1
    11     8     9   ar
    12     8    14   ar
    13     9    10   ar
    14    10    11   ar
    15    11    12    1
    16    11    13   ar
    17    13    14   ar
    18    15    16   ar
    19    15    20   ar
    20    16    17   ar
    21    17    18   ar
    22    18    19   ar
    23    19    20   ar
