@<TRIPOS>MOLECULE
31244_ChemDiv_5454-0091
 33 37 0 0 0
SMALL
GASTEIGER
Energy = 0

@<TRIPOS>ATOM
      1 N           2.2460   -1.1710    0.0000 N.am    1  LIG1       -0.1693
      2 C           1.6500   -0.3630    0.0000 C.ar    1  LIG1        0.2362
      3 N           0.6580   -0.3630    0.0000 N.ar    1  LIG1       -0.1773
      4 C           0.3420    0.6000    0.0000 C.ar    1  LIG1        0.2631
      5 N           1.1460    1.1790    0.0000 N.ar    1  LIG1       -0.1252
      6 N           1.9540    0.6000    0.0000 N.ar    1  LIG1       -0.1966
      7 C           2.9000    0.9000    0.0000 C.ar    1  LIG1        0.0858
      8 C           3.1040    1.8750    0.0000 C.ar    1  LIG1        0.0192
      9 C           4.0540    2.1920    0.0000 C.ar    1  LIG1        0.0015
     10 C           4.8130    1.5250    0.0000 C.ar    1  LIG1        0.0001
     11 C           4.6000    0.5460    0.0000 C.ar    1  LIG1        0.0015
     12 C           3.6540    0.2330    0.0000 C.ar    1  LIG1        0.0192
     13 N          -0.6080    0.9000    0.0000 N.am    1  LIG1       -0.1381
     14 C          -0.8130    1.8920    0.0000 C.2     1  LIG1        0.2715
     15 C          -1.7630    2.1920    0.0000 C.ar    1  LIG1        0.0557
     16 C          -1.9670    3.1710    0.0000 C.ar    1  LIG1        0.0077
     17 C          -2.9170    3.4710    0.0000 C.ar    1  LIG1        0.0370
     18 C          -3.6580    2.8130    0.0000 C.ar    1  LIG1        0.1387
     19 C          -3.4500    1.8420    0.0000 C.ar    1  LIG1        0.0370
     20 C          -2.5040    1.5250    0.0000 C.ar    1  LIG1        0.0077
     21 O          -4.6210    3.1130    0.0000 O.3     1  LIG1       -0.4714
     22 C          -4.8170    4.1000    0.0000 C.3     1  LIG1        0.2525
     23 O          -0.0710    2.5670    0.0000 O.2     1  LIG1       -0.2679
     24 C           1.9290   -2.1170    0.0000 C.2     1  LIG1        0.2611
     25 C           2.7420   -2.6920    0.0000 C.ar    1  LIG1        0.0588
     26 C           3.5500   -2.1170    0.0000 C.ar    1  LIG1        0.0588
     27 C           3.2500   -1.1710    0.0000 C.2     1  LIG1        0.2611
     28 O           3.8290   -0.3500    0.0000 O.2     1  LIG1       -0.2691
     29 C           4.4580   -2.5170    0.0000 C.ar    1  LIG1        0.0047
     30 C           4.5750   -3.5080    0.0000 C.ar    1  LIG1        0.0002
     31 C           3.7630   -4.1000    0.0000 C.ar    1  LIG1        0.0002
     32 C           2.8380   -3.6880    0.0000 C.ar    1  LIG1        0.0047
     33 O           0.9830   -2.4250    0.0000 O.2     1  LIG1       -0.2691
@<TRIPOS>BOND
     1     1     2    1
     2     1    24   am
     3     1    27   am
     4     2     3   ar
     5     2     6   ar
     6     3     4   ar
     7     4     5   ar
     8     4    13    1
     9     5     6   ar
    10     6     7    1
    11     7     8   ar
    12     7    12   ar
    13     8     9   ar
    14     9    10   ar
    15    10    11   ar
    16    11    12   ar
    17    13    14   am
    18    14    15    1
    19    14    23    2
    20    15    16   ar
    21    15    20   ar
    22    16    17   ar
    23    17    18   ar
    24    18    19   ar
    25    18    21    1
    26    19    20   ar
    27    21    22    1
    28    24    25    1
    29    24    33    2
    30    25    26   ar
    31    25    32   ar
    32    26    27    1
    33    26    29   ar
    34    27    28    2
    35    29    30   ar
    36    30    31   ar
    37    31    32   ar
