@<TRIPOS>MOLECULE
31246_ChemDiv_5454-0094
 33 37 0 0 0
SMALL
GASTEIGER
Energy = 0

@<TRIPOS>ATOM
      1 N           2.2580   -0.2080    0.0000 N.am    1  LIG1       -0.1693
      2 C           1.6580    0.6080    0.0000 C.ar    1  LIG1        0.2333
      3 N           0.6630    0.6080    0.0000 N.ar    1  LIG1       -0.2160
      4 C           0.3630    1.5580    0.0000 C.ar    1  LIG1        0.0823
      5 N           1.1670    2.1330    0.0000 N.ar    1  LIG1       -0.1675
      6 N           1.9750    1.5580    0.0000 N.ar    1  LIG1       -0.1997
      7 C           2.9210    1.8750    0.0000 C.ar    1  LIG1        0.0856
      8 C           3.1290    2.8290    0.0000 C.ar    1  LIG1        0.0192
      9 C           4.0790    3.1460    0.0000 C.ar    1  LIG1        0.0015
     10 C           4.8210    2.4750    0.0000 C.ar    1  LIG1        0.0001
     11 C           4.6290    1.5170    0.0000 C.ar    1  LIG1        0.0015
     12 C           3.6630    1.2000    0.0000 C.ar    1  LIG1        0.0192
     13 N          -0.6040    1.8750    0.0000 N.pl3   1  LIG1       -0.5034
     14 S          -1.3460    1.2000    0.0000 S.O2    1  LIG1       -0.0559
     15 C          -2.2040    0.7040    0.0000 C.ar    1  LIG1        0.0893
     16 C          -3.0880    1.2250    0.0000 C.ar    1  LIG1        0.0166
     17 C          -3.9420    0.7330    0.0000 C.ar    1  LIG1       -0.0030
     18 C          -3.9580   -0.2790    0.0000 C.ar    1  LIG1       -0.0218
     19 C          -3.0920   -0.7830    0.0000 C.ar    1  LIG1       -0.0030
     20 C          -2.2210   -0.2920    0.0000 C.ar    1  LIG1        0.0166
     21 C          -4.8250   -0.7790    0.0000 C.3     1  LIG1        0.0310
     22 O          -0.7500    0.3880    0.0000 O.2     1  LIG1       -0.1841
     23 O          -1.9330    2.0170    0.0000 O.2     1  LIG1       -0.1841
     24 C           1.9420   -1.1580    0.0000 C.2     1  LIG1        0.2611
     25 C           2.7500   -1.7330    0.0000 C.ar    1  LIG1        0.0588
     26 C           3.5580   -1.1580    0.0000 C.ar    1  LIG1        0.0588
     27 C           3.2580   -0.2080    0.0000 C.2     1  LIG1        0.2611
     28 O           3.8420    0.6080    0.0000 O.2     1  LIG1       -0.2691
     29 C           4.4750   -1.5580    0.0000 C.ar    1  LIG1        0.0047
     30 C           4.5880   -2.5500    0.0000 C.ar    1  LIG1        0.0002
     31 C           3.7790   -3.1420    0.0000 C.ar    1  LIG1        0.0002
     32 C           2.8630   -2.7420    0.0000 C.ar    1  LIG1        0.0047
     33 O           0.9960   -1.4750    0.0000 O.2     1  LIG1       -0.2691
@<TRIPOS>BOND
     1     1     2    1
     2     1    24   am
     3     1    27   am
     4     2     3   ar
     5     2     6   ar
     6     3     4   ar
     7     4     5   ar
     8     4    13    1
     9     5     6   ar
    10     6     7    1
    11     7     8   ar
    12     7    12   ar
    13     8     9   ar
    14     9    10   ar
    15    10    11   ar
    16    11    12   ar
    17    13    14    1
    18    14    15    1
    19    14    22    2
    20    14    23    2
    21    15    16   ar
    22    15    20   ar
    23    16    17   ar
    24    17    18   ar
    25    18    19   ar
    26    18    21    1
    27    19    20   ar
    28    24    25    1
    29    24    33    2
    30    25    26   ar
    31    25    32   ar
    32    26    27    1
    33    26    29   ar
    34    27    28    2
    35    29    30   ar
    36    30    31   ar
    37    31    32   ar
