@<TRIPOS>MOLECULE
31249_ChemDiv_D089-0698
 26 28 0 0 0
SMALL
GASTEIGER
Energy = 0

@<TRIPOS>ATOM
      1 C          -0.4750   -0.8540    0.0000 C.ar    1  LIG1        0.1088
      2 C          -1.4130   -1.1790    0.0000 C.ar    1  LIG1        0.0481
      3 C          -2.2830   -0.6920    0.0000 C.ar    1  LIG1        0.0765
      4 C          -3.1580   -1.1790    0.0000 C.ar    1  LIG1        0.1974
      5 C          -3.1580   -2.1790    0.0000 C.ar    1  LIG1        0.0450
      6 C          -2.2830   -2.6790    0.0000 C.ar    1  LIG1        0.0407
      7 C          -1.4080   -2.1790    0.0000 C.ar    1  LIG1        0.1451
      8 O          -0.4460   -2.4790    0.0000 O.2     1  LIG1       -0.4575
      9 C           0.1250   -1.6540    0.0000 C.ar    1  LIG1        0.1295
     10 C           1.1290   -1.6420    0.0000 C.3     1  LIG1        0.0727
     11 O          -4.0210   -0.7040    0.0000 O.3     1  LIG1       -0.2867
     12 C          -2.2830    0.3080    0.0000 C.3     1  LIG1        0.1701
     13 N          -3.1580    0.8080    0.0000 N.4     1  LIG1        0.3902
     14 C          -3.1580    1.8080    0.0000 C.3     1  LIG1        0.2030
     15 C          -4.0080    0.3000    0.0000 C.3     1  LIG1        0.2030
     16 C          -0.1830    0.1000    0.0000 C.2     1  LIG1        0.3440
     17 O          -0.8630    0.8330    0.0000 O.2     1  LIG1       -0.2448
     18 O           0.8040    0.3250    0.0000 O.3     1  LIG1       -0.4450
     19 C           1.4790   -0.4000    0.0000 C.3     1  LIG1        0.2134
     20 C           2.4500   -0.1790    0.0000 C.3     1  LIG1        0.0738
     21 C           2.7540    0.7710    0.0000 C.ar    1  LIG1       -0.0184
     22 C           3.7290    0.9880    0.0000 C.ar    1  LIG1       -0.0041
     23 C           4.0170    1.9460    0.0000 C.ar    1  LIG1       -0.0003
     24 C           3.3420    2.6830    0.0000 C.ar    1  LIG1       -0.0000
     25 C           2.3540    2.4500    0.0000 C.ar    1  LIG1       -0.0003
     26 C           2.0670    1.4960    0.0000 C.ar    1  LIG1       -0.0041
@<TRIPOS>BOND
     1     1     2   ar
     2     1     9   ar
     3     1    16    1
     4     2     3   ar
     5     2     7   ar
     6     3     4   ar
     7     3    12    1
     8     4     5   ar
     9     4    11    1
    10     5     6   ar
    11     6     7   ar
    12     7     8   ar
    13     8     9   ar
    14     9    10    1
    15    12    13    1
    16    13    14    1
    17    13    15    1
    18    16    17    2
    19    16    18    1
    20    18    19    1
    21    19    20    1
    22    20    21    1
    23    21    22   ar
    24    21    26   ar
    25    22    23   ar
    26    23    24   ar
    27    24    25   ar
    28    25    26   ar
