@<TRIPOS>MOLECULE
31240_ChemDiv_4826-0162
 32 35 0 0 0
SMALL
GASTEIGER
Energy = 0

@<TRIPOS>ATOM
      1 C           1.1670    0.6250    0.0000 C.ar    1  LIG1        0.2471
      2 N           0.3040    0.1130    0.0000 N.ar    1  LIG1       -0.1764
      3 C          -0.5750    0.6250    0.0000 C.ar    1  LIG1        0.2631
      4 N          -0.5580    1.6130    0.0000 N.ar    1  LIG1       -0.1252
      5 N           1.1670    1.6130    0.0000 N.ar    1  LIG1       -0.1957
      6 C           1.8330    2.2830    0.0000 C.ar    1  LIG1        0.0858
      7 C           2.7710    2.0290    0.0000 C.ar    1  LIG1        0.0192
      8 C           3.4460    2.7040    0.0000 C.ar    1  LIG1        0.0015
      9 C           3.1920    3.6420    0.0000 C.ar    1  LIG1        0.0001
     10 C           2.2750    3.8790    0.0000 C.ar    1  LIG1        0.0015
     11 C           1.5960    3.2080    0.0000 C.ar    1  LIG1        0.0192
     12 N          -1.4040    0.1500    0.0000 N.am    1  LIG1       -0.1381
     13 C          -2.2330    0.6420    0.0000 C.2     1  LIG1        0.2715
     14 C          -3.0630    0.1500    0.0000 C.ar    1  LIG1        0.0556
     15 C          -3.8750    0.6420    0.0000 C.ar    1  LIG1        0.0069
     16 C          -4.7210    0.1670    0.0000 C.ar    1  LIG1        0.0298
     17 C          -4.7210   -0.8080    0.0000 C.ar    1  LIG1        0.1401
     18 C          -3.8750   -1.2750    0.0000 C.ar    1  LIG1        0.0298
     19 C          -3.0460   -0.8080    0.0000 C.ar    1  LIG1        0.0069
     20 F          -5.5080   -1.2580    0.0000 F       1  LIG1       -0.2042
     21 O          -2.2170    1.5830    0.0000 O.2     1  LIG1       -0.2679
     22 N           1.9960    0.1460    0.0000 N.am    1  LIG1       -0.1393
     23 C           1.9960   -0.8710    0.0000 C.2     1  LIG1        0.2715
     24 C           2.8710   -1.3670    0.0000 C.ar    1  LIG1        0.0557
     25 C           2.8710   -2.3750    0.0000 C.ar    1  LIG1        0.0077
     26 C           3.7500   -2.8880    0.0000 C.ar    1  LIG1        0.0370
     27 C           4.6210   -2.3750    0.0000 C.ar    1  LIG1        0.1387
     28 C           4.6210   -1.3540    0.0000 C.ar    1  LIG1        0.0370
     29 C           3.7460   -0.8540    0.0000 C.ar    1  LIG1        0.0077
     30 O           5.5040   -2.8710    0.0000 O.3     1  LIG1       -0.4714
     31 C           5.5040   -3.8750    0.0000 C.3     1  LIG1        0.2525
     32 O           1.1290   -1.3790    0.0000 O.2     1  LIG1       -0.2679
@<TRIPOS>BOND
     1     1     2   ar
     2     1     5   ar
     3     1    22    1
     4     2     3   ar
     5     3     4   ar
     6     3    12    1
     7     4     5   ar
     8     5     6    1
     9     6     7   ar
    10     6    11   ar
    11     7     8   ar
    12     8     9   ar
    13     9    10   ar
    14    10    11   ar
    15    12    13   am
    16    13    14    1
    17    13    21    2
    18    14    15   ar
    19    14    19   ar
    20    15    16   ar
    21    16    17   ar
    22    17    18   ar
    23    17    20    1
    24    18    19   ar
    25    22    23   am
    26    23    24    1
    27    23    32    2
    28    24    25   ar
    29    24    29   ar
    30    25    26   ar
    31    26    27   ar
    32    27    28   ar
    33    27    30    1
    34    28    29   ar
    35    30    31    1
