@<TRIPOS>MOLECULE
31251_ChemDiv_4551-1176
 28 29 0 0 0
SMALL
GASTEIGER
Energy = 0

@<TRIPOS>ATOM
      1 N           1.3630    0.8170    0.0000 N.ar    1  LIG1       -0.2924
      2 C           2.1670    0.2250    0.0000 C.ar    1  LIG1        0.1935
      3 N           1.8580   -0.7330    0.0000 N.ar    1  LIG1       -0.1224
      4 N           0.8710   -0.7420    0.0000 N.ar    1  LIG1       -0.1310
      5 C           0.5500    0.2170    0.0000 C.ar    1  LIG1        0.1658
      6 C          -0.4080    0.5130    0.0000 C.3     1  LIG1        0.1808
      7 N          -0.9210   -0.3540    0.0000 N.am    1  LIG1       -0.1934
      8 C          -1.9250   -0.3380    0.0000 C.2     1  LIG1        0.2652
      9 C          -2.4250   -1.2040    0.0000 C.ar    1  LIG1        0.0553
     10 C          -3.4290   -1.1920    0.0000 C.ar    1  LIG1        0.0077
     11 C          -3.9330   -2.0580    0.0000 C.ar    1  LIG1        0.0370
     12 C          -3.4460   -2.9250    0.0000 C.ar    1  LIG1        0.1387
     13 C          -2.4420   -2.9380    0.0000 C.ar    1  LIG1        0.0370
     14 C          -1.9380   -2.0710    0.0000 C.ar    1  LIG1        0.0077
     15 O          -3.9460   -3.7920    0.0000 O.3     1  LIG1       -0.4714
     16 C          -4.9420   -3.7880    0.0000 C.3     1  LIG1        0.2525
     17 O          -2.4170    0.5290    0.0000 O.2     1  LIG1       -0.2684
     18 S           3.1250    0.5290    0.0000 S.3     1  LIG1       -0.0637
     19 C           3.8710   -0.1420    0.0000 C.3     1  LIG1        0.1743
     20 C           3.6580   -1.1130    0.0000 C.2     1  LIG1        0.3286
     21 O           2.7170   -1.4170    0.0000 O.2     1  LIG1       -0.2491
     22 O           4.4040   -1.7830    0.0000 O.3     1  LIG1       -0.4479
     23 C           4.1920   -2.7580    0.0000 C.3     1  LIG1        0.2086
     24 C           4.9380   -3.4250    0.0000 C.3     1  LIG1        0.0513
     25 C           1.3630    1.8080    0.0000 C.3     1  LIG1        0.1092
     26 C           0.4960    2.3040    0.0000 C.3     1  LIG1        0.0246
     27 C           0.4960    3.3040    0.0000 C.3     1  LIG1        0.0020
     28 C          -0.3630    3.7960    0.0000 C.3     1  LIG1        0.0001
@<TRIPOS>BOND
     1     1     2   ar
     2     1     5   ar
     3     1    25    1
     4     2     3   ar
     5     2    18    1
     6     3     4   ar
     7     4     5   ar
     8     5     6    1
     9     6     7    1
    10     7     8   am
    11     8     9    1
    12     8    17    2
    13     9    10   ar
    14     9    14   ar
    15    10    11   ar
    16    11    12   ar
    17    12    13   ar
    18    12    15    1
    19    13    14   ar
    20    15    16    1
    21    18    19    1
    22    19    20    1
    23    20    21    2
    24    20    22    1
    25    22    23    1
    26    23    24    1
    27    25    26    1
    28    26    27    1
    29    27    28    1
