@<TRIPOS>MOLECULE
31255_ChemDiv_4552-0116
 16 18 0 0 0
SMALL
GASTEIGER
Energy = 0

@<TRIPOS>ATOM
      1 C          -0.1040   -0.3080    0.0000 C.ar    1  LIG1        0.0951
      2 C           0.8880   -0.1500    0.0000 C.ar    1  LIG1        0.2572
      3 O           1.5880   -0.8580    0.0000 O.2     1  LIG1       -0.4099
      4 C           2.4880   -0.4040    0.0000 C.ar    1  LIG1        0.2886
      5 N           2.3380    0.5920    0.0000 N.ar    1  LIG1       -0.0998
      6 N           1.3420    0.7420    0.0000 N.ar    1  LIG1       -0.1059
      7 S           3.3790   -0.8580    0.0000 S.2     1  LIG1        0.0128
      8 S          -0.6630   -1.1330    0.0000 S.2     1  LIG1       -0.0814
      9 C          -1.6170   -0.8750    0.0000 C.ar    1  LIG1        0.0304
     10 C          -1.6630    0.1290    0.0000 C.ar    1  LIG1        0.0172
     11 C          -0.7250    0.4880    0.0000 C.ar    1  LIG1        0.0687
     12 CL         -0.3630    1.4080    0.0000 Cl      1  LIG1       -0.0816
     13 C          -2.5380    0.5920    0.0000 C.ar    1  LIG1        0.0014
     14 C          -3.3830    0.0630    0.0000 C.ar    1  LIG1        0.0001
     15 C          -3.3460   -0.9330    0.0000 C.ar    1  LIG1        0.0005
     16 C          -2.4630   -1.4040    0.0000 C.ar    1  LIG1        0.0065
@<TRIPOS>BOND
     1     1     2    1
     2     1     8   ar
     3     1    11   ar
     4     2     3   ar
     5     2     6   ar
     6     3     4   ar
     7     4     5   ar
     8     4     7    2
     9     5     6   ar
    10     8     9   ar
    11     9    10   ar
    12     9    16   ar
    13    10    11   ar
    14    10    13   ar
    15    11    12    1
    16    13    14   ar
    17    14    15   ar
    18    15    16   ar
