@<TRIPOS>MOLECULE
31269_ChemDiv_6529-0318
 22 24 0 0 0
SMALL
GASTEIGER
Energy = 0

@<TRIPOS>ATOM
      1 N           0.2830   -2.1540    0.0000 N.ar    1  LIG1       -0.1758
      2 C           1.2830   -2.1540    0.0000 C.ar    1  LIG1        0.2602
      3 N           1.5920   -1.2000    0.0000 N.ar    1  LIG1       -0.1948
      4 N           0.7830   -0.6130    0.0000 N.ar    1  LIG1       -0.1256
      5 C          -0.0250   -1.2000    0.0000 C.ar    1  LIG1        0.2566
      6 N          -0.9750   -0.8920    0.0000 N.pl3   1  LIG1       -0.1977
      7 C          -1.1880    0.0880    0.0000 C.3     1  LIG1        0.1418
      8 C          -2.1380    0.3960    0.0000 C.ar    1  LIG1        0.0025
      9 C          -2.3380    1.3750    0.0000 C.ar    1  LIG1        0.0343
     10 C          -3.2920    1.6830    0.0000 C.ar    1  LIG1        0.1385
     11 O          -3.4960    2.6630    0.0000 O.3     1  LIG1       -0.4714
     12 C          -4.4500    2.9670    0.0000 C.3     1  LIG1        0.2525
     13 C          -4.0330    1.0130    0.0000 C.ar    1  LIG1        0.0369
     14 C          -3.8210    0.0290    0.0000 C.ar    1  LIG1        0.0028
     15 C          -2.8710   -0.2790    0.0000 C.ar    1  LIG1       -0.0024
     16 C           2.5420   -0.8920    0.0000 C.ar    1  LIG1        0.0858
     17 C           3.2880   -1.5630    0.0000 C.ar    1  LIG1        0.0192
     18 C           4.2330   -1.2540    0.0000 C.ar    1  LIG1        0.0015
     19 C           4.4460   -0.2790    0.0000 C.ar    1  LIG1        0.0001
     20 C           3.6960    0.3920    0.0000 C.ar    1  LIG1        0.0015
     21 C           2.7500    0.0880    0.0000 C.ar    1  LIG1        0.0192
     22 N           1.8710   -2.9630    0.0000 N.pl3   1  LIG1       -0.0859
@<TRIPOS>BOND
     1     1     2   ar
     2     1     5   ar
     3     2     3   ar
     4     2    22    1
     5     3     4   ar
     6     3    16    1
     7     4     5   ar
     8     5     6    1
     9     6     7    1
    10     7     8    1
    11     8     9   ar
    12     8    15   ar
    13     9    10   ar
    14    10    11    1
    15    10    13   ar
    16    11    12    1
    17    13    14   ar
    18    14    15   ar
    19    16    17   ar
    20    16    21   ar
    21    17    18   ar
    22    18    19   ar
    23    19    20   ar
    24    20    21   ar
