@<TRIPOS>MOLECULE
31265_ChemDiv_6529-0311
 23 25 0 0 0
SMALL
GASTEIGER
Energy = 0

@<TRIPOS>ATOM
      1 N           1.3960   -1.5130    0.0000 N.ar    1  LIG1       -0.1758
      2 C           2.3960   -1.5130    0.0000 C.ar    1  LIG1        0.2602
      3 N           2.7080   -0.5540    0.0000 N.ar    1  LIG1       -0.1948
      4 N           1.8960    0.0330    0.0000 N.ar    1  LIG1       -0.1256
      5 C           1.0920   -0.5540    0.0000 C.ar    1  LIG1        0.2566
      6 N           0.1420   -0.2500    0.0000 N.pl3   1  LIG1       -0.1977
      7 C          -0.0750    0.7290    0.0000 C.3     1  LIG1        0.1417
      8 C          -1.0210    1.0460    0.0000 C.ar    1  LIG1       -0.0004
      9 C          -1.2250    2.0210    0.0000 C.ar    1  LIG1        0.0006
     10 C          -2.1750    2.3250    0.0000 C.ar    1  LIG1        0.0366
     11 C          -2.9210    1.6540    0.0000 C.ar    1  LIG1        0.1385
     12 C          -2.7040    0.6750    0.0000 C.ar    1  LIG1        0.0366
     13 C          -1.7540    0.3710    0.0000 C.ar    1  LIG1        0.0006
     14 O          -3.8750    1.9580    0.0000 O.3     1  LIG1       -0.4755
     15 C          -4.6170    1.2920    0.0000 C.3     1  LIG1        0.2055
     16 C          -5.5670    1.6000    0.0000 C.3     1  LIG1        0.0512
     17 C           3.6580   -0.2500    0.0000 C.ar    1  LIG1        0.0858
     18 C           4.4040   -0.9170    0.0000 C.ar    1  LIG1        0.0192
     19 C           5.3540   -0.6130    0.0000 C.ar    1  LIG1        0.0015
     20 C           5.5630    0.3630    0.0000 C.ar    1  LIG1        0.0001
     21 C           4.8170    1.0330    0.0000 C.ar    1  LIG1        0.0015
     22 C           3.8710    0.7290    0.0000 C.ar    1  LIG1        0.0192
     23 N           2.9830   -2.3210    0.0000 N.pl3   1  LIG1       -0.0859
@<TRIPOS>BOND
     1     1     2   ar
     2     1     5   ar
     3     2     3   ar
     4     2    23    1
     5     3     4   ar
     6     3    17    1
     7     4     5   ar
     8     5     6    1
     9     6     7    1
    10     7     8    1
    11     8     9   ar
    12     8    13   ar
    13     9    10   ar
    14    10    11   ar
    15    11    12   ar
    16    11    14    1
    17    12    13   ar
    18    14    15    1
    19    15    16    1
    20    17    18   ar
    21    17    22   ar
    22    18    19   ar
    23    19    20   ar
    24    20    21   ar
    25    21    22   ar
