@<TRIPOS>MOLECULE
31263_ChemDiv_4552-4632
 23 25 0 0 0
SMALL
GASTEIGER
Energy = 0

@<TRIPOS>ATOM
      1 S           0.0000   -0.2500    0.0000 S.3     1  LIG1       -0.1320
      2 C          -0.8580    0.2500    0.0000 C.3     1  LIG1        0.0803
      3 C          -1.7380   -0.2580    0.0000 C.ar    1  LIG1        0.0219
      4 C          -1.7250   -1.2540    0.0000 C.ar    1  LIG1        0.1355
      5 O          -0.8580   -1.7460    0.0000 O.3     1  LIG1       -0.4717
      6 C          -0.8580   -2.7420    0.0000 C.3     1  LIG1        0.2525
      7 C          -2.5880   -1.7580    0.0000 C.ar    1  LIG1        0.0366
      8 C          -3.4630   -1.2630    0.0000 C.ar    1  LIG1        0.0031
      9 C          -3.4630   -0.2580    0.0000 C.ar    1  LIG1       -0.0001
     10 C          -2.5960    0.2500    0.0000 C.ar    1  LIG1       -0.0004
     11 C          -0.8580    1.2460    0.0000 C.3     1  LIG1        0.0798
     12 C           0.0000    1.7500    0.0000 C.2     1  LIG1        0.1530
     13 C           0.8630    1.2460    0.0000 C.3     1  LIG1        0.0798
     14 C           0.8630    0.2500    0.0000 C.3     1  LIG1        0.0803
     15 C           1.7380   -0.2580    0.0000 C.ar    1  LIG1        0.0219
     16 C           1.7210   -1.2630    0.0000 C.ar    1  LIG1        0.1355
     17 O           0.8630   -1.7540    0.0000 O.3     1  LIG1       -0.4717
     18 C           0.8630   -2.7500    0.0000 C.3     1  LIG1        0.2525
     19 C           2.5920   -1.7580    0.0000 C.ar    1  LIG1        0.0366
     20 C           3.4580   -1.2630    0.0000 C.ar    1  LIG1        0.0031
     21 C           3.4580   -0.2500    0.0000 C.ar    1  LIG1       -0.0001
     22 C           2.5920    0.2500    0.0000 C.ar    1  LIG1       -0.0004
     23 O           0.0000    2.7540    0.0000 O.2     1  LIG1       -0.2960
@<TRIPOS>BOND
     1     1     2    1
     2     1    14    1
     3     2     3    1
     4     2    11    1
     5     3     4   ar
     6     3    10   ar
     7     4     5    1
     8     4     7   ar
     9     5     6    1
    10     7     8   ar
    11     8     9   ar
    12     9    10   ar
    13    11    12    1
    14    12    13    1
    15    12    23    2
    16    13    14    1
    17    14    15    1
    18    15    16   ar
    19    15    22   ar
    20    16    17    1
    21    16    19   ar
    22    17    18    1
    23    19    20   ar
    24    20    21   ar
    25    21    22   ar
