@<TRIPOS>MOLECULE
31260_ChemDiv_8017-4122
 22 26 0 0 0
SMALL
GASTEIGER
Energy = 0

@<TRIPOS>ATOM
      1 C           0.0250   -0.6170    0.0000 C.3     1  LIG1        0.1876
      2 C          -0.4630   -1.3630    0.0000 C.2     1  LIG1        0.2947
      3 N           0.1080   -2.0630    0.0000 N.am    1  LIG1       -0.2510
      4 C           0.9420   -1.7420    0.0000 C.ar    1  LIG1        0.0571
      5 C           0.8960   -0.8500    0.0000 C.ar    1  LIG1        0.0605
      6 C           1.6580   -0.4040    0.0000 C.ar    1  LIG1        0.0042
      7 C           2.4330   -0.8420    0.0000 C.ar    1  LIG1        0.0000
      8 C           2.4420   -1.7420    0.0000 C.ar    1  LIG1        0.0013
      9 C           1.6670   -2.1880    0.0000 C.ar    1  LIG1        0.0148
     10 C           0.0880   -2.9540    0.0000 C.3     1  LIG1        0.1203
     11 O          -1.3580   -1.3540    0.0000 O.2     1  LIG1       -0.2666
     12 N           0.2710    0.4630    0.0000 N.3     1  LIG1       -0.2252
     13 C           0.2710    1.4630    0.0000 C.3     1  LIG1        0.0834
     14 C          -0.5960    1.9580    0.0000 C.3     1  LIG1        0.0669
     15 C          -1.0830    1.3500    0.0000 C.3     1  LIG1        0.1419
     16 N          -1.0250   -0.4130    0.0000 N.4     1  LIG1        0.3890
     17 C          -2.1380   -0.8250    0.0000 C.3     1  LIG1        0.1419
     18 C          -1.4460    0.4460    0.0000 C.3     1  LIG1        0.0669
     19 C          -0.5880   -0.0290    0.0000 C.3     1  LIG1        0.0834
     20 C          -1.4500    1.4580    0.0000 C.3     1  LIG1        0.0142
     21 C          -2.4460    0.4460    0.0000 C.3     1  LIG1        0.0073
     22 C          -0.6080    2.9580    0.0000 C.3     1  LIG1        0.0073
@<TRIPOS>BOND
     1     1     2    1
     2     1     5    1
     3     1    12    1
     4     1    16    1
     5     2     3   am
     6     2    11    2
     7     3     4    1
     8     3    10    1
     9     4     5   ar
    10     4     9   ar
    11     5     6   ar
    12     6     7   ar
    13     7     8   ar
    14     8     9   ar
    15    12    13    1
    16    12    19    1
    17    13    14    1
    18    14    15    1
    19    14    20    1
    20    14    22    1
    21    15    16    1
    22    16    17    1
    23    17    18    1
    24    18    19    1
    25    18    20    1
    26    18    21    1
