@<TRIPOS>MOLECULE
31267_ChemDiv_6529-0317
 21 23 0 0 0
SMALL
GASTEIGER
Energy = 0

@<TRIPOS>ATOM
      1 N           0.0710   -2.0000    0.0000 N.ar    1  LIG1       -0.1758
      2 C           1.0750   -2.0000    0.0000 C.ar    1  LIG1        0.2602
      3 N           1.3830   -1.0460    0.0000 N.ar    1  LIG1       -0.1948
      4 N           0.5750   -0.4580    0.0000 N.ar    1  LIG1       -0.1256
      5 C          -0.2290   -1.0460    0.0000 C.ar    1  LIG1        0.2566
      6 N          -1.1790   -0.7380    0.0000 N.pl3   1  LIG1       -0.1977
      7 C          -1.3920    0.2330    0.0000 C.3     1  LIG1        0.1417
      8 C          -2.3420    0.5500    0.0000 C.ar    1  LIG1       -0.0009
      9 C          -2.5420    1.5250    0.0000 C.ar    1  LIG1       -0.0068
     10 C          -3.4920    1.8330    0.0000 C.ar    1  LIG1       -0.0221
     11 C          -4.2420    1.1580    0.0000 C.ar    1  LIG1       -0.0043
     12 C          -4.0250    0.1790    0.0000 C.ar    1  LIG1       -0.0006
     13 C          -3.0710   -0.1250    0.0000 C.ar    1  LIG1       -0.0026
     14 C          -3.7000    2.8130    0.0000 C.3     1  LIG1        0.0310
     15 C           2.3380   -0.7380    0.0000 C.ar    1  LIG1        0.0858
     16 C           2.5420    0.2330    0.0000 C.ar    1  LIG1        0.0192
     17 C           3.4880    0.5460    0.0000 C.ar    1  LIG1        0.0015
     18 C           4.2380   -0.1250    0.0000 C.ar    1  LIG1        0.0001
     19 C           4.0290   -1.1040    0.0000 C.ar    1  LIG1        0.0015
     20 C           3.0790   -1.4130    0.0000 C.ar    1  LIG1        0.0192
     21 N           1.6670   -2.8080    0.0000 N.pl3   1  LIG1       -0.0859
@<TRIPOS>BOND
     1     1     2   ar
     2     1     5   ar
     3     2     3   ar
     4     2    21    1
     5     3     4   ar
     6     3    15    1
     7     4     5   ar
     8     5     6    1
     9     6     7    1
    10     7     8    1
    11     8     9   ar
    12     8    13   ar
    13     9    10   ar
    14    10    11   ar
    15    10    14    1
    16    11    12   ar
    17    12    13   ar
    18    15    16   ar
    19    15    20   ar
    20    16    17   ar
    21    17    18   ar
    22    18    19   ar
    23    19    20   ar
