@<TRIPOS>MOLECULE
31276_ChemDiv_5151-0805
 25 26 0 0 0
SMALL
GASTEIGER
Energy = 0

@<TRIPOS>ATOM
      1 N           1.2920   -0.6290    0.0000 N.am    1  LIG1       -0.1935
      2 C           1.7790    0.2250    0.0000 C.2     1  LIG1        0.4092
      3 O           1.1080    0.9790    0.0000 O.3     1  LIG1       -0.4325
      4 C           0.2210    0.5540    0.0000 C.3     1  LIG1        0.2337
      5 C           0.3290   -0.4170    0.0000 C.3     1  LIG1        0.1497
      6 C          -0.6630    1.0580    0.0000 C.3     1  LIG1        0.2505
      7 O          -0.6630    2.0790    0.0000 O.3     1  LIG1       -0.4718
      8 C          -1.5210    2.5630    0.0000 C.ar    1  LIG1        0.1347
      9 C          -1.5210    3.5880    0.0000 C.ar    1  LIG1        0.0121
     10 C          -0.6790    4.1000    0.0000 C.3     1  LIG1        0.0342
     11 C          -2.3750    4.0540    0.0000 C.ar    1  LIG1       -0.0013
     12 C          -3.2380    3.5880    0.0000 C.ar    1  LIG1       -0.0001
     13 C          -3.2380    2.5630    0.0000 C.ar    1  LIG1        0.0031
     14 C          -2.3750    2.0790    0.0000 C.ar    1  LIG1        0.0366
     15 O           2.7880    0.3080    0.0000 O.2     1  LIG1       -0.2260
     16 C           1.7790   -1.4880    0.0000 C.3     1  LIG1        0.2476
     17 N           1.2500   -2.3250    0.0000 N.4     1  LIG1        0.3935
     18 C           1.7170   -3.2130    0.0000 C.3     1  LIG1        0.1408
     19 C           2.7210   -3.2290    0.0000 C.3     1  LIG1        0.0571
     20 C           3.2250   -4.1000    0.0000 C.3     1  LIG1        0.0061
     21 C           3.2330   -2.3580    0.0000 C.3     1  LIG1        0.0061
     22 C           0.2420   -2.3040    0.0000 C.3     1  LIG1        0.1408
     23 C          -0.2580   -3.1630    0.0000 C.3     1  LIG1        0.0571
     24 C           0.2380   -4.0630    0.0000 C.3     1  LIG1        0.0061
     25 C          -1.2790   -3.1250    0.0000 C.3     1  LIG1        0.0061
@<TRIPOS>BOND
     1     1     2   am
     2     1     5    1
     3     1    16    1
     4     2     3    1
     5     2    15    2
     6     3     4    1
     7     4     5    1
     8     4     6    1
     9     6     7    1
    10     7     8    1
    11     8     9   ar
    12     8    14   ar
    13     9    10    1
    14     9    11   ar
    15    11    12   ar
    16    12    13   ar
    17    13    14   ar
    18    16    17    1
    19    17    18    1
    20    17    22    1
    21    18    19    1
    22    19    20    1
    23    19    21    1
    24    22    23    1
    25    23    24    1
    26    23    25    1
