@<TRIPOS>MOLECULE
31275_ChemDiv_6529-0328
 19 21 0 0 0
SMALL
GASTEIGER
Energy = 0

@<TRIPOS>ATOM
      1 N          -0.0670   -1.3420    0.0000 N.ar    1  LIG1       -0.1758
      2 C           0.9330   -1.3420    0.0000 C.ar    1  LIG1        0.2602
      3 N           1.2460   -0.3880    0.0000 N.ar    1  LIG1       -0.1948
      4 N           0.4330    0.2040    0.0000 N.ar    1  LIG1       -0.1256
      5 C          -0.3710   -0.3880    0.0000 C.ar    1  LIG1        0.2567
      6 N          -1.3210   -0.0790    0.0000 N.pl3   1  LIG1       -0.1944
      7 C          -1.5380    0.8960    0.0000 C.3     1  LIG1        0.1794
      8 C          -2.4880    1.2080    0.0000 C.ar    1  LIG1        0.1449
      9 O          -3.2960    0.6210    0.0000 O.2     1  LIG1       -0.4529
     10 C          -4.1040    1.2040    0.0000 C.ar    1  LIG1        0.1792
     11 C          -3.7920    2.1540    0.0000 C.ar    1  LIG1        0.0435
     12 C          -2.7920    2.1540    0.0000 C.ar    1  LIG1        0.0380
     13 C           2.1960   -0.0790    0.0000 C.ar    1  LIG1        0.0858
     14 C           2.9420   -0.7500    0.0000 C.ar    1  LIG1        0.0192
     15 C           3.8920   -0.4460    0.0000 C.ar    1  LIG1        0.0015
     16 C           4.1000    0.5330    0.0000 C.ar    1  LIG1        0.0001
     17 C           3.3500    1.2040    0.0000 C.ar    1  LIG1        0.0015
     18 C           2.4000    0.8960    0.0000 C.ar    1  LIG1        0.0192
     19 N           1.5210   -2.1500    0.0000 N.pl3   1  LIG1       -0.0859
@<TRIPOS>BOND
     1     1     2   ar
     2     1     5   ar
     3     2     3   ar
     4     2    19    1
     5     3     4   ar
     6     3    13    1
     7     4     5   ar
     8     5     6    1
     9     6     7    1
    10     7     8    1
    11     8     9   ar
    12     8    12   ar
    13     9    10   ar
    14    10    11   ar
    15    11    12   ar
    16    13    14   ar
    17    13    18   ar
    18    14    15   ar
    19    15    16   ar
    20    16    17   ar
    21    17    18   ar
