@<TRIPOS>MOLECULE
31274_ChemDiv_5151-0720
 22 24 0 0 0
SMALL
GASTEIGER
Energy = 0

@<TRIPOS>ATOM
      1 N           0.5130   -1.5130    0.0000 N.am    1  LIG1       -0.1935
      2 C           1.0000   -0.6540    0.0000 C.2     1  LIG1        0.4092
      3 O           0.3290    0.1000    0.0000 O.3     1  LIG1       -0.4325
      4 C          -0.5630   -0.3250    0.0000 C.3     1  LIG1        0.2337
      5 C          -0.4540   -1.3000    0.0000 C.3     1  LIG1        0.1497
      6 C          -1.4460    0.1790    0.0000 C.3     1  LIG1        0.2505
      7 O          -1.4460    1.2040    0.0000 O.3     1  LIG1       -0.4718
      8 C          -2.3080    1.6880    0.0000 C.ar    1  LIG1        0.1347
      9 C          -2.3080    2.7130    0.0000 C.ar    1  LIG1        0.0121
     10 C          -1.4630    3.2330    0.0000 C.3     1  LIG1        0.0342
     11 C          -3.1630    3.1880    0.0000 C.ar    1  LIG1       -0.0013
     12 C          -4.0290    2.7130    0.0000 C.ar    1  LIG1       -0.0001
     13 C          -4.0290    1.6880    0.0000 C.ar    1  LIG1        0.0031
     14 C          -3.1630    1.2040    0.0000 C.ar    1  LIG1        0.0366
     15 O           2.0130   -0.5710    0.0000 O.2     1  LIG1       -0.2260
     16 C           1.0000   -2.3710    0.0000 C.3     1  LIG1        0.2476
     17 N           2.0130   -2.3710    0.0000 N.4     1  LIG1        0.3935
     18 C           2.5000   -3.2290    0.0000 C.3     1  LIG1        0.1410
     19 C           3.5210   -3.2290    0.0000 C.3     1  LIG1        0.0630
     20 C           4.0250   -2.3710    0.0000 C.3     1  LIG1        0.0123
     21 C           3.5210   -1.5130    0.0000 C.3     1  LIG1        0.0630
     22 C           2.5000   -1.5130    0.0000 C.3     1  LIG1        0.1410
@<TRIPOS>BOND
     1     1     2   am
     2     1     5    1
     3     1    16    1
     4     2     3    1
     5     2    15    2
     6     3     4    1
     7     4     5    1
     8     4     6    1
     9     6     7    1
    10     7     8    1
    11     8     9   ar
    12     8    14   ar
    13     9    10    1
    14     9    11   ar
    15    11    12   ar
    16    12    13   ar
    17    13    14   ar
    18    16    17    1
    19    17    18    1
    20    17    22    1
    21    18    19    1
    22    19    20    1
    23    20    21    1
    24    21    22    1
