@<TRIPOS>MOLECULE
31271_ChemDiv_6529-0323
 21 23 0 0 0
SMALL
GASTEIGER
Energy = 0

@<TRIPOS>ATOM
      1 N           0.0710   -1.6920    0.0000 N.ar    1  LIG1       -0.1758
      2 C           1.0710   -1.6920    0.0000 C.ar    1  LIG1        0.2602
      3 N           1.3830   -0.7330    0.0000 N.ar    1  LIG1       -0.1948
      4 N           0.5710   -0.1500    0.0000 N.ar    1  LIG1       -0.1256
      5 C          -0.2330   -0.7330    0.0000 C.ar    1  LIG1        0.2566
      6 N          -1.1830   -0.4250    0.0000 N.pl3   1  LIG1       -0.1977
      7 C          -1.3920    0.5500    0.0000 C.3     1  LIG1        0.1440
      8 C          -2.3460    0.8630    0.0000 C.ar    1  LIG1        0.0269
      9 C          -2.5460    1.8380    0.0000 C.ar    1  LIG1        0.1378
     10 F          -1.8040    2.5040    0.0000 F       1  LIG1       -0.2044
     11 C          -3.4960    2.1460    0.0000 C.ar    1  LIG1        0.0294
     12 C          -4.2420    1.4750    0.0000 C.ar    1  LIG1        0.0023
     13 C          -4.0290    0.4960    0.0000 C.ar    1  LIG1       -0.0001
     14 C          -3.0750    0.1830    0.0000 C.ar    1  LIG1       -0.0003
     15 C           2.3380   -0.4250    0.0000 C.ar    1  LIG1        0.0858
     16 C           2.5420    0.5500    0.0000 C.ar    1  LIG1        0.0192
     17 C           3.4880    0.8580    0.0000 C.ar    1  LIG1        0.0015
     18 C           4.2380    0.1830    0.0000 C.ar    1  LIG1        0.0001
     19 C           4.0290   -0.7920    0.0000 C.ar    1  LIG1        0.0015
     20 C           3.0790   -1.0960    0.0000 C.ar    1  LIG1        0.0192
     21 N           1.6670   -2.5000    0.0000 N.pl3   1  LIG1       -0.0859
@<TRIPOS>BOND
     1     1     2   ar
     2     1     5   ar
     3     2     3   ar
     4     2    21    1
     5     3     4   ar
     6     3    15    1
     7     4     5   ar
     8     5     6    1
     9     6     7    1
    10     7     8    1
    11     8     9   ar
    12     8    14   ar
    13     9    10    1
    14     9    11   ar
    15    11    12   ar
    16    12    13   ar
    17    13    14   ar
    18    15    16   ar
    19    15    20   ar
    20    16    17   ar
    21    17    18   ar
    22    18    19   ar
    23    19    20   ar
