@<TRIPOS>MOLECULE
31279_ChemDiv_4826-0423
 16 18 0 0 0
SMALL
GASTEIGER
Energy = 0

@<TRIPOS>ATOM
      1 N           0.4040   -0.9130    0.0000 N.ar    1  LIG1       -0.1937
      2 C           0.3880   -1.9000    0.0000 C.ar    1  LIG1        0.2556
      3 N          -0.4420   -2.3790    0.0000 N.ar    1  LIG1       -0.1733
      4 C          -1.2960   -1.8880    0.0000 C.ar    1  LIG1        0.2761
      5 N          -1.2830   -0.8960    0.0000 N.ar    1  LIG1       -0.1238
      6 N          -2.1040   -2.3500    0.0000 N.pl3   1  LIG1       -0.0847
      7 N           1.2330   -2.3790    0.0000 N.ar    1  LIG1       -0.2083
      8 C           2.0830   -1.9080    0.0000 C.ar    1  LIG1        0.1036
      9 C           2.1000   -0.9290    0.0000 C.ar    1  LIG1        0.0400
     10 C           1.2540   -0.4250    0.0000 C.ar    1  LIG1        0.0875
     11 C           1.2540    0.5130    0.0000 C.ar    1  LIG1        0.0179
     12 C           0.4460    0.9880    0.0000 C.ar    1  LIG1        0.0015
     13 C           0.4460    1.9210    0.0000 C.ar    1  LIG1        0.0000
     14 C           1.2670    2.3830    0.0000 C.ar    1  LIG1        0.0000
     15 C           2.0830    1.9130    0.0000 C.ar    1  LIG1        0.0000
     16 C           2.0710    0.9710    0.0000 C.ar    1  LIG1        0.0015
@<TRIPOS>BOND
     1     1     2   ar
     2     1     5   ar
     3     1    10   ar
     4     2     3   ar
     5     2     7   ar
     6     3     4   ar
     7     4     5   ar
     8     4     6    1
     9     7     8   ar
    10     8     9   ar
    11     9    10   ar
    12    10    11    1
    13    11    12   ar
    14    11    16   ar
    15    12    13   ar
    16    13    14   ar
    17    14    15   ar
    18    15    16   ar
