@<TRIPOS>MOLECULE
31278_ChemDiv_5151-1708
 26 29 0 0 0
SMALL
GASTEIGER
Energy = 0

@<TRIPOS>ATOM
      1 N           0.4630   -1.4880    0.0000 N.am    1  LIG1       -0.1935
      2 C           0.9790   -0.6170    0.0000 C.2     1  LIG1        0.4092
      3 O           0.3000    0.1210    0.0000 O.3     1  LIG1       -0.4325
      4 C          -0.5960   -0.2880    0.0000 C.3     1  LIG1        0.2337
      5 C          -0.5040   -1.2580    0.0000 C.3     1  LIG1        0.1497
      6 C          -1.4920    0.2290    0.0000 C.3     1  LIG1        0.2505
      7 O          -1.4920    1.2420    0.0000 O.3     1  LIG1       -0.4715
      8 C          -2.3630    1.7250    0.0000 C.ar    1  LIG1        0.1386
      9 C          -3.2330    1.2420    0.0000 C.ar    1  LIG1        0.0340
     10 C          -4.0920    1.7250    0.0000 C.ar    1  LIG1        0.0029
     11 C          -4.0920    2.7250    0.0000 C.ar    1  LIG1        0.0002
     12 C          -3.2330    3.2210    0.0000 C.ar    1  LIG1        0.0031
     13 C          -2.3630    2.7250    0.0000 C.ar    1  LIG1        0.0369
     14 C          -4.9630    1.2250    0.0000 C.ar    1  LIG1        0.0001
     15 C          -4.9500    0.2210    0.0000 C.ar    1  LIG1        0.0000
     16 C          -4.0880   -0.2710    0.0000 C.ar    1  LIG1        0.0001
     17 C          -3.2210    0.2290    0.0000 C.ar    1  LIG1        0.0030
     18 O           1.9880   -0.5000    0.0000 O.2     1  LIG1       -0.2260
     19 C           0.9790   -2.3460    0.0000 C.3     1  LIG1        0.2476
     20 N           1.9880   -2.3460    0.0000 N.4     1  LIG1        0.3935
     21 C           2.4790   -3.2170    0.0000 C.3     1  LIG1        0.1410
     22 C           3.4750   -3.2170    0.0000 C.3     1  LIG1        0.0630
     23 C           3.9710   -2.3460    0.0000 C.3     1  LIG1        0.0119
     24 C           3.4750   -1.4880    0.0000 C.3     1  LIG1        0.0630
     25 C           2.4790   -1.4880    0.0000 C.3     1  LIG1        0.1410
     26 C           4.9580   -2.3460    0.0000 C.3     1  LIG1        0.0004
@<TRIPOS>BOND
     1     1     2   am
     2     1     5    1
     3     1    19    1
     4     2     3    1
     5     2    18    2
     6     3     4    1
     7     4     5    1
     8     4     6    1
     9     6     7    1
    10     7     8    1
    11     8     9   ar
    12     8    13   ar
    13     9    10   ar
    14     9    17   ar
    15    10    11   ar
    16    10    14   ar
    17    11    12   ar
    18    12    13   ar
    19    14    15   ar
    20    15    16   ar
    21    16    17   ar
    22    19    20    1
    23    20    21    1
    24    20    25    1
    25    21    22    1
    26    22    23    1
    27    23    24    1
    28    23    26    1
    29    24    25    1
