@<TRIPOS>MOLECULE
31288_ChemDiv_8012-4868
 19 20 0 0 0
SMALL
GASTEIGER
Energy = 0

@<TRIPOS>ATOM
      1 C           2.0250    0.0250    0.0000 C.ar    1  LIG1        0.1218
      2 S           1.1830   -0.4460    0.0000 S.2     1  LIG1       -0.0792
      3 C           0.3420    0.0250    0.0000 C.ar    1  LIG1        0.0315
      4 C           0.3420    0.9830    0.0000 C.ar    1  LIG1        0.0235
      5 C           2.0250    0.9830    0.0000 C.ar    1  LIG1        0.1018
      6 N           2.8830    1.4670    0.0000 N.pl3   1  LIG1       -0.1273
      7 C          -0.4960    1.4580    0.0000 C.ar    1  LIG1        0.0024
      8 C          -1.3380    0.9830    0.0000 C.ar    1  LIG1        0.0062
      9 C          -1.3380    0.0250    0.0000 C.ar    1  LIG1        0.0261
     10 C          -0.4960   -0.4460    0.0000 C.ar    1  LIG1        0.0127
     11 S          -2.1630   -0.4420    0.0000 S.3     1  LIG1       -0.1076
     12 C          -3.0080    0.0250    0.0000 C.3     1  LIG1        0.1036
     13 C          -3.8000   -0.4170    0.0000 C.2     1  LIG1        0.0616
     14 O          -3.8000   -1.3710    0.0000 O.co2   1  LIG1       -0.5483
     15 O          -4.6080    0.0250    0.0000 O.co2   1  LIG1       -0.5483
     16 C           2.8830   -0.4580    0.0000 C.2     1  LIG1        0.3488
     17 O           2.8960   -1.4630    0.0000 O.2     1  LIG1       -0.2443
     18 O           3.7250    0.0080    0.0000 O.3     1  LIG1       -0.4410
     19 C           4.6040   -0.5210    0.0000 C.3     1  LIG1        0.2560
@<TRIPOS>BOND
     1     1     2   ar
     2     1     5   ar
     3     1    16    1
     4     2     3   ar
     5     3     4   ar
     6     3    10   ar
     7     4     5   ar
     8     4     7   ar
     9     5     6    1
    10     7     8   ar
    11     8     9   ar
    12     9    10   ar
    13     9    11    1
    14    11    12    1
    15    12    13    1
    16    13    14   ar
    17    13    15   ar
    18    16    17    2
    19    16    18    1
    20    18    19    1
