@<TRIPOS>MOLECULE
31284_ChemDiv_5067-3110
 16 17 0 0 0
SMALL
GASTEIGER
Energy = 0

@<TRIPOS>ATOM
      1 C           0.6130   -1.2040    0.0000 C.ar    1  LIG1        0.1157
      2 S           0.0250   -2.0250    0.0000 S.2     1  LIG1       -0.0797
      3 C          -0.9170   -1.7000    0.0000 C.ar    1  LIG1        0.0305
      4 C          -0.9170   -0.7080    0.0000 C.ar    1  LIG1        0.0173
      5 C           0.0250   -0.4040    0.0000 C.ar    1  LIG1        0.0704
      6 CL          0.3420    0.5670    0.0000 Cl      1  LIG1       -0.0815
      7 C          -1.7710   -0.2000    0.0000 C.ar    1  LIG1        0.0014
      8 C          -2.6250   -0.7080    0.0000 C.ar    1  LIG1        0.0001
      9 C          -2.6250   -1.7000    0.0000 C.ar    1  LIG1        0.0005
     10 C          -1.7710   -2.2380    0.0000 C.ar    1  LIG1        0.0065
     11 C           1.6130   -1.2040    0.0000 C.2     1  LIG1        0.3491
     12 O           2.1130   -2.0830    0.0000 O.2     1  LIG1       -0.2443
     13 O           2.1130   -0.3540    0.0000 O.3     1  LIG1       -0.4303
     14 C           1.6130    0.5040    0.0000 C.3     1  LIG1        0.2854
     15 C           2.1130    1.3580    0.0000 C.1     1  LIG1       -0.0306
     16 C           2.6210    2.2420    0.0000 C.1     1  LIG1       -0.0105
@<TRIPOS>BOND
     1     1     2   ar
     2     1     5   ar
     3     1    11    1
     4     2     3   ar
     5     3     4   ar
     6     3    10   ar
     7     4     5   ar
     8     4     7   ar
     9     5     6    1
    10     7     8   ar
    11     8     9   ar
    12     9    10   ar
    13    11    12    2
    14    11    13    1
    15    13    14    1
    16    14    15    1
    17    15    16    3
