@<TRIPOS>MOLECULE
31280_ChemDiv_5610-0304
 18 20 0 0 0
SMALL
GASTEIGER
Energy = 0

@<TRIPOS>ATOM
      1 C           2.4290   -1.6670    0.0000 C.2     1  LIG1        0.4213
      2 N           2.1130   -2.6040    0.0000 N.am    1  LIG1       -0.1647
      3 C           1.1040   -2.6040    0.0000 C.3     1  LIG1        0.1661
      4 C           0.8040   -1.6420    0.0000 C.3     1  LIG1        0.2355
      5 O           1.6210   -1.0710    0.0000 O.3     1  LIG1       -0.4315
      6 C          -0.1710   -1.4250    0.0000 C.3     1  LIG1        0.2505
      7 O          -0.4790   -0.4630    0.0000 O.3     1  LIG1       -0.4715
      8 C          -1.4710   -0.2460    0.0000 C.ar    1  LIG1        0.1386
      9 C          -1.7830    0.7000    0.0000 C.ar    1  LIG1        0.0340
     10 C          -2.7420    0.9210    0.0000 C.ar    1  LIG1        0.0029
     11 C          -3.4130    0.1790    0.0000 C.ar    1  LIG1        0.0002
     12 C          -3.1290   -0.7540    0.0000 C.ar    1  LIG1        0.0031
     13 C          -2.1290   -0.9790    0.0000 C.ar    1  LIG1        0.0369
     14 C          -3.0500    1.8670    0.0000 C.ar    1  LIG1        0.0001
     15 C          -2.3920    2.6080    0.0000 C.ar    1  LIG1        0.0000
     16 C          -1.4000    2.3670    0.0000 C.ar    1  LIG1        0.0001
     17 C          -1.1040    1.4250    0.0000 C.ar    1  LIG1        0.0030
     18 O           3.4080   -1.3880    0.0000 O.2     1  LIG1       -0.2246
@<TRIPOS>BOND
     1     1     2   am
     2     1     5    1
     3     1    18    2
     4     2     3    1
     5     3     4    1
     6     4     5    1
     7     4     6    1
     8     6     7    1
     9     7     8    1
    10     8     9   ar
    11     8    13   ar
    12     9    10   ar
    13     9    17   ar
    14    10    11   ar
    15    10    14   ar
    16    11    12   ar
    17    12    13   ar
    18    14    15   ar
    19    15    16   ar
    20    16    17   ar
