@<TRIPOS>MOLECULE
31283_ChemDiv_8016-0954
 10 10 0 0 0
SMALL
GASTEIGER
Energy = 0

@<TRIPOS>ATOM
      1 S          -0.4380   -1.1290    0.0000 S.O2    1  LIG1       -0.0108
      2 C           0.4210   -0.6250    0.0000 C.3     1  LIG1        0.1365
      3 C           0.4210    0.3830    0.0000 C.3     1  LIG1        0.0880
      4 C          -0.4380    0.8750    0.0000 C.2     1  LIG1        0.1541
      5 C          -1.3000    0.3830    0.0000 C.3     1  LIG1        0.0898
      6 C          -1.3000   -0.6250    0.0000 C.3     1  LIG1        0.1585
      7 O          -0.4380    1.8710    0.0000 O.2     1  LIG1       -0.2959
      8 C           1.2960   -1.1380    0.0000 C.3     1  LIG1        0.0258
      9 O           0.2330   -1.8670    0.0000 O.2     1  LIG1       -0.1730
     10 O          -1.1830   -1.8000    0.0000 O.2     1  LIG1       -0.1730
@<TRIPOS>BOND
     1     1     2    1
     2     1     6    1
     3     1     9    2
     4     1    10    2
     5     2     3    1
     6     2     8    1
     7     3     4    1
     8     4     5    1
     9     4     7    2
    10     5     6    1
