@<TRIPOS>MOLECULE
31282_ChemDiv_5067-2792
 15 16 0 0 0
SMALL
GASTEIGER
Energy = 0

@<TRIPOS>ATOM
      1 C           1.7380   -0.3630    0.0000 C.ar    1  LIG1        0.0540
      2 S           1.1630   -1.2000    0.0000 S.2     1  LIG1       -0.0848
      3 C           0.1790   -0.9170    0.0000 C.ar    1  LIG1        0.0333
      4 C           0.1790    0.0920    0.0000 C.ar    1  LIG1        0.0173
      5 C           1.0880    0.4460    0.0000 C.ar    1  LIG1        0.0652
      6 CL          1.3130    1.4130    0.0000 Cl      1  LIG1       -0.0817
      7 C          -0.6790    0.5960    0.0000 C.ar    1  LIG1        0.0045
      8 C          -1.5420    0.0920    0.0000 C.ar    1  LIG1        0.0370
      9 C          -1.5420   -0.9170    0.0000 C.ar    1  LIG1        0.1392
     10 C          -0.6790   -1.4080    0.0000 C.ar    1  LIG1        0.0434
     11 O          -2.4130   -1.4080    0.0000 O.3     1  LIG1       -0.4714
     12 C          -3.2790   -0.9170    0.0000 C.3     1  LIG1        0.2525
     13 C           2.7250   -0.3630    0.0000 C.2     1  LIG1        0.0797
     14 O           3.2130    0.4960    0.0000 O.co2   1  LIG1       -0.5440
     15 O           3.2750   -1.1830    0.0000 O.co2   1  LIG1       -0.5440
@<TRIPOS>BOND
     1     1     2   ar
     2     1     5   ar
     3     1    13    1
     4     2     3   ar
     5     3     4   ar
     6     3    10   ar
     7     4     5   ar
     8     4     7   ar
     9     5     6    1
    10     7     8   ar
    11     8     9   ar
    12     9    10   ar
    13     9    11    1
    14    11    12    1
    15    13    14   ar
    16    13    15   ar
