@<TRIPOS>MOLECULE
31281_ChemDiv_4912-0867
 18 18 0 0 0
SMALL
GASTEIGER
Energy = 0

@<TRIPOS>ATOM
      1 S          -1.0290   -2.0130    0.0000 S.O2    1  LIG1       -0.0100
      2 C          -0.2170   -1.4170    0.0000 C.3     1  LIG1        0.1519
      3 C          -0.5290   -0.4670    0.0000 C.3     1  LIG1        0.0467
      4 C           0.0580    0.3330    0.0000 C.3     1  LIG1        0.1990
      5 C           1.0630    0.2380    0.0000 C.2     1  LIG1        0.3274
      6 O           1.6460    1.0460    0.0000 O.2     1  LIG1       -0.2495
      7 O           1.4750   -0.6750    0.0000 O.3     1  LIG1       -0.4481
      8 C           0.8750   -1.4880    0.0000 C.3     1  LIG1        0.2086
      9 C           1.2880   -2.4000    0.0000 C.3     1  LIG1        0.0513
     10 C          -0.3420    1.2540    0.0000 C.2     1  LIG1        0.3274
     11 O          -1.3420    1.3540    0.0000 O.2     1  LIG1       -0.2495
     12 O           0.2460    2.0580    0.0000 O.3     1  LIG1       -0.4481
     13 C           1.2500    1.9540    0.0000 C.3     1  LIG1        0.2086
     14 C           1.8250    2.7750    0.0000 C.3     1  LIG1        0.0513
     15 C          -1.5290   -0.4670    0.0000 C.3     1  LIG1        0.0282
     16 C          -1.8290   -1.4170    0.0000 C.3     1  LIG1        0.1509
     17 O          -0.4040   -2.7710    0.0000 O.2     1  LIG1       -0.1730
     18 O          -1.8080   -2.6290    0.0000 O.2     1  LIG1       -0.1730
@<TRIPOS>BOND
     1     1     2    1
     2     1    16    1
     3     1    17    2
     4     1    18    2
     5     2     3    1
     6     3     4    1
     7     3    15    1
     8     4     5    1
     9     4    10    1
    10     5     6    2
    11     5     7    1
    12     7     8    1
    13     8     9    1
    14    10    11    2
    15    10    12    1
    16    12    13    1
    17    13    14    1
    18    15    16    1
