@<TRIPOS>MOLECULE
31289_ChemDiv_4921-0185
 29 32 0 0 0
SMALL
GASTEIGER
Energy = 0

@<TRIPOS>ATOM
      1 O           0.5000   -0.4210    0.0000 O.2     1  LIG1       -0.4110
      2 C           1.3170   -1.0080    0.0000 C.ar    1  LIG1        0.2786
      3 N           2.1170   -0.4080    0.0000 N.ar    1  LIG1       -0.1008
      4 N           1.8130    0.5380    0.0000 N.ar    1  LIG1       -0.1070
      5 C           0.8000    0.5250    0.0000 C.ar    1  LIG1        0.2708
      6 C           0.2000    1.3290    0.0000 C.3     1  LIG1        0.2912
      7 O           0.6170    2.2290    0.0000 O.3     1  LIG1       -0.4654
      8 C           0.0170    3.0330    0.0000 C.ar    1  LIG1        0.1390
      9 C           0.4210    3.9460    0.0000 C.ar    1  LIG1        0.0323
     10 C          -0.1630    4.7630    0.0000 C.ar    1  LIG1       -0.0231
     11 C          -1.1790    4.6330    0.0000 C.ar    1  LIG1       -0.0259
     12 C          -1.5830    3.7290    0.0000 C.ar    1  LIG1       -0.0015
     13 C          -0.9830    2.9130    0.0000 C.ar    1  LIG1        0.0366
     14 C          -1.7790    5.4420    0.0000 C.3     1  LIG1        0.0260
     15 C          -1.3630    6.3790    0.0000 C.3     1  LIG1        0.0050
     16 C          -0.3710    6.4830    0.0000 C.3     1  LIG1        0.0050
     17 C           0.2170    5.6670    0.0000 C.3     1  LIG1        0.0261
     18 S           1.3330   -2.0130    0.0000 S.3     1  LIG1       -0.0454
     19 C           0.4540   -2.5210    0.0000 C.3     1  LIG1        0.1535
     20 C          -0.4000   -2.0250    0.0000 C.2     1  LIG1        0.2571
     21 N          -1.2580   -2.5210    0.0000 N.am    1  LIG1       -0.1785
     22 C          -1.2580   -3.5040    0.0000 C.ar    1  LIG1        0.0734
     23 C          -2.1210   -4.0040    0.0000 C.ar    1  LIG1        0.0175
     24 C          -2.1210   -5.0000    0.0000 C.ar    1  LIG1        0.0127
     25 C          -1.2580   -5.4880    0.0000 C.ar    1  LIG1        0.0578
     26 CL         -1.2580   -6.4830    0.0000 Cl      1  LIG1       -0.0822
     27 C          -0.4040   -5.0000    0.0000 C.ar    1  LIG1        0.0127
     28 C          -0.4040   -4.0040    0.0000 C.ar    1  LIG1        0.0175
     29 O          -0.4040   -1.0210    0.0000 O.2     1  LIG1       -0.2720
@<TRIPOS>BOND
     1     1     2   ar
     2     1     5   ar
     3     2     3   ar
     4     2    18    1
     5     3     4   ar
     6     4     5   ar
     7     5     6    1
     8     6     7    1
     9     7     8    1
    10     8     9   ar
    11     8    13   ar
    12     9    10   ar
    13    10    11   ar
    14    10    17    1
    15    11    12   ar
    16    11    14    1
    17    12    13   ar
    18    14    15    1
    19    15    16    1
    20    16    17    1
    21    18    19    1
    22    19    20    1
    23    20    21   am
    24    20    29    2
    25    21    22    1
    26    22    23   ar
    27    22    28   ar
    28    23    24   ar
    29    24    25   ar
    30    25    26    1
    31    25    27   ar
    32    27    28   ar
