@<TRIPOS>MOLECULE
31298_ChemDiv_8003-5236
 18 19 0 0 0
SMALL
GASTEIGER
Energy = 0

@<TRIPOS>ATOM
      1 C           2.5130   -1.9040    0.0000 C.2     1  LIG1        0.4050
      2 N           2.3580   -0.9210    0.0000 N.am    1  LIG1       -0.2422
      3 C           1.3920   -0.7540    0.0000 C.3     1  LIG1        0.1442
      4 C           0.9170   -1.6500    0.0000 C.3     1  LIG1        0.2335
      5 O           1.6170   -2.3790    0.0000 O.3     1  LIG1       -0.4326
      6 C          -0.0420   -1.6960    0.0000 C.3     1  LIG1        0.2505
      7 O          -0.5670   -0.8130    0.0000 O.3     1  LIG1       -0.4715
      8 C          -1.5750   -0.8500    0.0000 C.ar    1  LIG1        0.1387
      9 C          -2.0830   -1.7540    0.0000 C.ar    1  LIG1        0.0369
     10 C          -3.0630   -1.7540    0.0000 C.ar    1  LIG1        0.0031
     11 C          -3.6040   -0.8920    0.0000 C.ar    1  LIG1        0.0002
     12 C          -3.1290   -0.0710    0.0000 C.ar    1  LIG1        0.0031
     13 C          -2.1130   -0.0420    0.0000 C.ar    1  LIG1        0.0369
     14 C           3.1380   -0.2210    0.0000 C.3     1  LIG1        0.0969
     15 C           2.8830    0.7460    0.0000 C.3     1  LIG1        0.0216
     16 C           3.6000    1.4170    0.0000 C.3     1  LIG1        0.0018
     17 C           3.3460    2.3830    0.0000 C.3     1  LIG1        0.0001
     18 O           3.3920   -2.3790    0.0000 O.2     1  LIG1       -0.2262
@<TRIPOS>BOND
     1     1     2   am
     2     1     5    1
     3     1    18    2
     4     2     3    1
     5     2    14    1
     6     3     4    1
     7     4     5    1
     8     4     6    1
     9     6     7    1
    10     7     8    1
    11     8     9   ar
    12     8    13   ar
    13     9    10   ar
    14    10    11   ar
    15    11    12   ar
    16    12    13   ar
    17    14    15    1
    18    15    16    1
    19    16    17    1
