@<TRIPOS>MOLECULE
31293_ChemDiv_4934-0129
 30 34 0 0 0
SMALL
GASTEIGER
Energy = 0

@<TRIPOS>ATOM
      1 N          -0.3080    2.4880    0.0000 N.am    1  LIG1       -0.2332
      2 C          -0.6040    1.5670    0.0000 C.2     1  LIG1        0.2908
      3 C           0.0580    0.8290    0.0000 C.3     1  LIG1        0.2258
      4 N          -0.2670   -0.1130    0.0000 N.4     1  LIG1        0.3871
      5 C          -1.1710   -0.3040    0.0000 C.3     1  LIG1        0.1612
      6 C          -1.5380   -1.2460    0.0000 C.3     1  LIG1        0.1544
      7 N          -0.9130   -1.9830    0.0000 N.pl3   1  LIG1       -0.2972
      8 C           0.0710   -1.7790    0.0000 C.3     1  LIG1        0.1544
      9 C           0.3750   -0.8460    0.0000 C.3     1  LIG1        0.1612
     10 C          -1.1710   -2.9170    0.0000 C.ar    1  LIG1        0.0481
     11 C          -2.1420   -3.1000    0.0000 C.ar    1  LIG1        0.0145
     12 C          -2.3960   -4.0420    0.0000 C.ar    1  LIG1        0.0013
     13 C          -1.7830   -4.8080    0.0000 C.ar    1  LIG1        0.0001
     14 C          -0.8000   -4.5630    0.0000 C.ar    1  LIG1        0.0013
     15 C          -0.5130   -3.6500    0.0000 C.ar    1  LIG1        0.0145
     16 O          -1.5380    1.3750    0.0000 O.2     1  LIG1       -0.2678
     17 C           0.6830    2.6000    0.0000 C.ar    1  LIG1        0.0543
     18 C           1.1630    3.4710    0.0000 C.ar    1  LIG1       -0.0078
     19 C           0.8080    4.4000    0.0000 C.3     1  LIG1        0.0323
     20 C          -0.1750    4.7250    0.0000 C.3     1  LIG1        0.0323
     21 C          -0.9750    4.1960    0.0000 C.ar    1  LIG1       -0.0078
     22 C          -1.0460    3.1750    0.0000 C.ar    1  LIG1        0.0543
     23 C          -1.9880    2.7130    0.0000 C.ar    1  LIG1        0.0149
     24 C          -2.7670    3.3290    0.0000 C.ar    1  LIG1        0.0013
     25 C          -2.7670    4.3580    0.0000 C.ar    1  LIG1       -0.0002
     26 C          -1.8330    4.8080    0.0000 C.ar    1  LIG1       -0.0030
     27 C           2.2170    3.5330    0.0000 C.ar    1  LIG1       -0.0030
     28 C           2.7630    2.6000    0.0000 C.ar    1  LIG1       -0.0002
     29 C           2.2710    1.7330    0.0000 C.ar    1  LIG1        0.0013
     30 C           1.2380    1.7500    0.0000 C.ar    1  LIG1        0.0149
@<TRIPOS>BOND
     1     1     2   am
     2     1    17    1
     3     1    22    1
     4     2     3    1
     5     2    16    2
     6     3     4    1
     7     4     5    1
     8     4     9    1
     9     5     6    1
    10     6     7    1
    11     7     8    1
    12     7    10    1
    13     8     9    1
    14    10    11   ar
    15    10    15   ar
    16    11    12   ar
    17    12    13   ar
    18    13    14   ar
    19    14    15   ar
    20    17    18   ar
    21    17    30   ar
    22    18    19    1
    23    18    27   ar
    24    19    20    1
    25    20    21    1
    26    21    22   ar
    27    21    26   ar
    28    22    23   ar
    29    23    24   ar
    30    24    25   ar
    31    25    26   ar
    32    27    28   ar
    33    28    29   ar
    34    29    30   ar
