@<TRIPOS>MOLECULE
31295_ChemDiv_6186-3277
 32 36 0 0 0
SMALL
GASTEIGER
Energy = 0

@<TRIPOS>ATOM
      1 N          -2.1170   -0.8540    0.0000 N.am    1  LIG1       -0.2332
      2 C          -1.2210   -0.4670    0.0000 C.2     1  LIG1        0.2908
      3 C          -1.1210    0.5250    0.0000 C.3     1  LIG1        0.2258
      4 N          -0.2080    0.9580    0.0000 N.4     1  LIG1        0.3871
      5 C           0.6880    0.4250    0.0000 C.3     1  LIG1        0.1612
      6 C           1.5290    0.9040    0.0000 C.3     1  LIG1        0.1545
      7 N           1.5290    1.9170    0.0000 N.pl3   1  LIG1       -0.2948
      8 C           2.3880    2.3830    0.0000 C.ar    1  LIG1        0.0826
      9 C           3.2380    1.8830    0.0000 C.ar    1  LIG1        0.1519
     10 O           3.2380    0.8580    0.0000 O.3     1  LIG1       -0.4702
     11 C           4.3420    0.5040    0.0000 C.3     1  LIG1        0.2525
     12 C           4.1130    2.3830    0.0000 C.ar    1  LIG1        0.0382
     13 C           4.1330    3.3750    0.0000 C.ar    1  LIG1        0.0032
     14 C           3.2500    3.8710    0.0000 C.ar    1  LIG1        0.0015
     15 C           2.3880    3.3750    0.0000 C.ar    1  LIG1        0.0176
     16 C           0.6880    2.4500    0.0000 C.3     1  LIG1        0.1545
     17 C          -0.1630    1.9830    0.0000 C.3     1  LIG1        0.1612
     18 O          -0.4290   -1.0630    0.0000 O.2     1  LIG1       -0.2678
     19 C          -2.2830   -1.8580    0.0000 C.ar    1  LIG1        0.0543
     20 C          -3.1210   -2.3880    0.0000 C.ar    1  LIG1       -0.0078
     21 C          -4.0370   -2.0130    0.0000 C.3     1  LIG1        0.0323
     22 C          -4.3040   -1.1210    0.0000 C.3     1  LIG1        0.0323
     23 C          -3.7750   -0.2670    0.0000 C.ar    1  LIG1       -0.0078
     24 C          -2.8130   -0.1580    0.0000 C.ar    1  LIG1        0.0543
     25 C          -2.3830    0.7380    0.0000 C.ar    1  LIG1        0.0149
     26 C          -2.9790    1.5330    0.0000 C.ar    1  LIG1        0.0013
     27 C          -3.9710    1.4330    0.0000 C.ar    1  LIG1       -0.0002
     28 C          -4.3460    0.5250    0.0000 C.ar    1  LIG1       -0.0030
     29 C          -3.0790   -3.3380    0.0000 C.ar    1  LIG1       -0.0030
     30 C          -2.2290   -3.8670    0.0000 C.ar    1  LIG1       -0.0002
     31 C          -1.3210   -3.2830    0.0000 C.ar    1  LIG1        0.0013
     32 C          -1.3880   -2.2790    0.0000 C.ar    1  LIG1        0.0149
@<TRIPOS>BOND
     1     1     2   am
     2     1    19    1
     3     1    24    1
     4     2     3    1
     5     2    18    2
     6     3     4    1
     7     4     5    1
     8     4    17    1
     9     5     6    1
    10     6     7    1
    11     7     8    1
    12     7    16    1
    13     8     9   ar
    14     8    15   ar
    15     9    10    1
    16     9    12   ar
    17    10    11    1
    18    12    13   ar
    19    13    14   ar
    20    14    15   ar
    21    16    17    1
    22    19    20   ar
    23    19    32   ar
    24    20    21    1
    25    20    29   ar
    26    21    22    1
    27    22    23    1
    28    23    24   ar
    29    23    28   ar
    30    24    25   ar
    31    25    26   ar
    32    26    27   ar
    33    27    28   ar
    34    29    30   ar
    35    30    31   ar
    36    31    32   ar
