@<TRIPOS>MOLECULE
31297_ChemDiv_6448-0002
 23 26 0 0 0
SMALL
GASTEIGER
Energy = 0

@<TRIPOS>ATOM
      1 C          -0.8540   -1.7580    0.0000 C.ar    1  LIG1        0.2556
      2 N          -0.8540   -0.7670    0.0000 N.ar    1  LIG1       -0.1937
      3 C           0.0170   -0.2710    0.0000 C.ar    1  LIG1        0.0874
      4 C           0.8670   -0.7670    0.0000 C.ar    1  LIG1        0.0384
      5 C           0.8540   -1.7750    0.0000 C.ar    1  LIG1        0.0859
      6 N          -0.0040   -2.2670    0.0000 N.ar    1  LIG1       -0.2099
      7 C           1.7130   -2.2670    0.0000 C.ar    1  LIG1        0.0178
      8 C           1.7040   -3.2540    0.0000 C.ar    1  LIG1        0.0015
      9 C           2.5630   -3.7500    0.0000 C.ar    1  LIG1        0.0000
     10 C           3.4250   -3.2540    0.0000 C.ar    1  LIG1        0.0000
     11 C           3.4250   -2.2630    0.0000 C.ar    1  LIG1        0.0000
     12 C           2.5670   -1.7630    0.0000 C.ar    1  LIG1        0.0015
     13 C           0.0170    0.7290    0.0000 C.ar    1  LIG1        0.0179
     14 C           0.9080    1.2250    0.0000 C.ar    1  LIG1        0.0024
     15 C           0.9170    2.2250    0.0000 C.ar    1  LIG1        0.0114
     16 C           0.0580    2.7380    0.0000 C.ar    1  LIG1        0.0577
     17 C          -0.8170    2.2420    0.0000 C.ar    1  LIG1        0.0114
     18 C          -0.8330    1.2380    0.0000 C.ar    1  LIG1        0.0024
     19 CL          0.0670    3.7540    0.0000 Cl      1  LIG1       -0.0822
     20 N          -1.7880   -0.4250    0.0000 N.ar    1  LIG1       -0.1238
     21 C          -2.4250   -1.2040    0.0000 C.ar    1  LIG1        0.2761
     22 N          -1.8630   -2.0330    0.0000 N.ar    1  LIG1       -0.1733
     23 N          -3.4290   -1.1710    0.0000 N.pl3   1  LIG1       -0.0847
@<TRIPOS>BOND
     1     1     2   ar
     2     1     6   ar
     3     1    22   ar
     4     2     3   ar
     5     2    20   ar
     6     3     4   ar
     7     3    13    1
     8     4     5   ar
     9     5     6   ar
    10     5     7    1
    11     7     8   ar
    12     7    12   ar
    13     8     9   ar
    14     9    10   ar
    15    10    11   ar
    16    11    12   ar
    17    13    14   ar
    18    13    18   ar
    19    14    15   ar
    20    15    16   ar
    21    16    17   ar
    22    16    19    1
    23    17    18   ar
    24    20    21   ar
    25    21    22   ar
    26    21    23    1
