@<TRIPOS>MOLECULE
31291_ChemDiv_4928-0025
 22 23 0 0 0
SMALL
GASTEIGER
Energy = 0

@<TRIPOS>ATOM
      1 N          -1.0130    0.0670    0.0000 N.pl3   1  LIG1       -0.2972
      2 C          -1.6460   -0.6960    0.0000 C.ar    1  LIG1        0.0481
      3 C          -1.2960   -1.6330    0.0000 C.ar    1  LIG1        0.0142
      4 C          -1.9460   -2.3960    0.0000 C.ar    1  LIG1       -0.0030
      5 C          -2.9330   -2.2290    0.0000 C.ar    1  LIG1       -0.0218
      6 C          -3.2670   -1.2830    0.0000 C.ar    1  LIG1       -0.0030
      7 C          -2.6290   -0.5130    0.0000 C.ar    1  LIG1        0.0142
      8 C          -3.5630   -2.9880    0.0000 C.3     1  LIG1        0.0310
      9 C          -1.3630    1.0210    0.0000 C.3     1  LIG1        0.1544
     10 C          -0.7330    1.7920    0.0000 C.3     1  LIG1        0.1606
     11 N           0.2630    1.6250    0.0000 N.4     1  LIG1        0.3820
     12 C           0.8920    2.4000    0.0000 C.3     1  LIG1        0.1746
     13 C           1.8790    2.2330    0.0000 C.3     1  LIG1        0.2375
     14 O           2.5080    2.9920    0.0000 O.3     1  LIG1       -0.2140
     15 C           2.2290    1.2830    0.0000 C.3     1  LIG1        0.1812
     16 O           3.2130    1.1250    0.0000 O.3     1  LIG1       -0.3482
     17 C           3.5580    0.1750    0.0000 C.3     1  LIG1        0.1742
     18 C           2.9250   -0.5920    0.0000 C.3     1  LIG1        0.1742
     19 O           3.2580   -1.5290    0.0000 O.3     1  LIG1       -0.3484
     20 C           2.6330   -2.3000    0.0000 C.3     1  LIG1        0.1742
     21 C           0.6040    0.6830    0.0000 C.3     1  LIG1        0.1606
     22 C          -0.0210   -0.0880    0.0000 C.3     1  LIG1        0.1544
@<TRIPOS>BOND
     1     1     2    1
     2     1     9    1
     3     1    22    1
     4     2     3   ar
     5     2     7   ar
     6     3     4   ar
     7     4     5   ar
     8     5     6   ar
     9     5     8    1
    10     6     7   ar
    11     9    10    1
    12    10    11    1
    13    11    12    1
    14    11    21    1
    15    12    13    1
    16    13    14    1
    17    13    15    1
    18    15    16    1
    19    16    17    1
    20    17    18    1
    21    18    19    1
    22    19    20    1
    23    21    22    1
