@<TRIPOS>MOLECULE
31296_ChemDiv_G225-0055
 22 24 0 0 0
SMALL
GASTEIGER
Energy = 0

@<TRIPOS>ATOM
      1 S          -0.9380    0.0790    0.0000 S.O2    1  LIG1        0.0643
      2 C          -1.5210   -0.7290    0.0000 C.ar    1  LIG1        0.1349
      3 C          -1.2210   -1.6830    0.0000 C.ar    1  LIG1        0.1237
      4 C          -0.2670   -1.9880    0.0000 C.2     1  LIG1        0.3487
      5 O           0.4790   -1.3210    0.0000 O.2     1  LIG1       -0.2443
      6 O          -0.0540   -2.9710    0.0000 O.3     1  LIG1       -0.4410
      7 C           0.8960   -3.2750    0.0000 C.3     1  LIG1        0.2560
      8 S          -2.0250   -2.2710    0.0000 S.2     1  LIG1       -0.0787
      9 C          -2.8420   -1.6830    0.0000 C.ar    1  LIG1        0.0371
     10 C          -2.5250   -0.7290    0.0000 C.ar    1  LIG1        0.0276
     11 N          -0.3460    0.8830    0.0000 N.3     1  LIG1       -0.1507
     12 C           0.6540    0.7630    0.0000 C.3     1  LIG1        0.1218
     13 C           1.2500    1.5670    0.0000 C.ar    1  LIG1       -0.0084
     14 C           0.8580    2.4880    0.0000 C.ar    1  LIG1       -0.0233
     15 C          -0.1420    2.6080    0.0000 C.3     1  LIG1        0.0452
     16 C          -0.7420    1.7920    0.0000 C.3     1  LIG1        0.1008
     17 C           1.4500    3.2790    0.0000 C.ar    1  LIG1       -0.0045
     18 C           2.4330    3.1670    0.0000 C.ar    1  LIG1       -0.0003
     19 C           2.8380    2.2500    0.0000 C.ar    1  LIG1       -0.0003
     20 C           2.2380    1.4540    0.0000 C.ar    1  LIG1       -0.0032
     21 O          -0.1420   -0.5130    0.0000 O.2     1  LIG1       -0.1527
     22 O          -1.7500    0.6830    0.0000 O.2     1  LIG1       -0.1527
@<TRIPOS>BOND
     1     1     2    1
     2     1    11    1
     3     1    21    2
     4     1    22    2
     5     2     3   ar
     6     2    10   ar
     7     3     4    1
     8     3     8   ar
     9     4     5    2
    10     4     6    1
    11     6     7    1
    12     8     9   ar
    13     9    10   ar
    14    11    12    1
    15    11    16    1
    16    12    13    1
    17    13    14   ar
    18    13    20   ar
    19    14    15    1
    20    14    17   ar
    21    15    16    1
    22    17    18   ar
    23    18    19   ar
    24    19    20   ar
