@<TRIPOS>MOLECULE
31304_ChemDiv_5161-0090
 27 30 0 0 0
SMALL
GASTEIGER
Energy = 0

@<TRIPOS>ATOM
      1 N           0.2210    1.5630    0.0000 N.am    1  LIG1       -0.2372
      2 C           1.1790    1.2710    0.0000 C.ar    1  LIG1        0.0541
      3 C           2.0460    1.8420    0.0000 C.ar    1  LIG1       -0.0078
      4 C           2.0960    2.8580    0.0000 C.3     1  LIG1        0.0323
      5 C           1.3790    3.5540    0.0000 C.3     1  LIG1        0.0323
      6 C           0.3710    3.3670    0.0000 C.ar    1  LIG1       -0.0078
      7 C          -0.1080    2.5080    0.0000 C.ar    1  LIG1        0.0541
      8 C          -1.1210    2.5080    0.0000 C.ar    1  LIG1        0.0149
      9 C          -1.6420    3.3670    0.0000 C.ar    1  LIG1        0.0013
     10 C          -1.1630    4.1880    0.0000 C.ar    1  LIG1       -0.0002
     11 C          -0.1670    4.1880    0.0000 C.ar    1  LIG1       -0.0030
     12 C           2.9330    1.4210    0.0000 C.ar    1  LIG1       -0.0030
     13 C           2.9710    0.4040    0.0000 C.ar    1  LIG1       -0.0002
     14 C           2.1830   -0.2210    0.0000 C.ar    1  LIG1        0.0013
     15 C           1.2670    0.2540    0.0000 C.ar    1  LIG1        0.0149
     16 C          -0.4960    0.7960    0.0000 C.2     1  LIG1        0.2445
     17 C          -0.2080   -0.1630    0.0000 C.3     1  LIG1        0.1495
     18 S          -0.8830   -0.8790    0.0000 S.3     1  LIG1       -0.0824
     19 C          -0.6460   -1.8380    0.0000 C.2     1  LIG1        0.1115
     20 N          -1.3040   -2.5540    0.0000 N.am    1  LIG1       -0.2925
     21 C          -1.0630   -3.5130    0.0000 C.3     1  LIG1        0.1238
     22 C          -1.7790   -4.1880    0.0000 C.3     1  LIG1        0.1636
     23 O          -2.7380   -3.9500    0.0000 O.3     1  LIG1       -0.3501
     24 C          -2.9750   -2.9920    0.0000 C.3     1  LIG1        0.1636
     25 C          -2.2580   -2.2750    0.0000 C.3     1  LIG1        0.1238
     26 S           0.3130   -2.0750    0.0000 S.2     1  LIG1       -0.0279
     27 O          -1.4500    1.0330    0.0000 O.2     1  LIG1       -0.2732
@<TRIPOS>BOND
     1     1     2    1
     2     1     7    1
     3     1    16   am
     4     2     3   ar
     5     2    15   ar
     6     3     4    1
     7     3    12   ar
     8     4     5    1
     9     5     6    1
    10     6     7   ar
    11     6    11   ar
    12     7     8   ar
    13     8     9   ar
    14     9    10   ar
    15    10    11   ar
    16    12    13   ar
    17    13    14   ar
    18    14    15   ar
    19    16    17    1
    20    16    27    2
    21    17    18    1
    22    18    19    1
    23    19    20    1
    24    19    26    2
    25    20    21    1
    26    20    25    1
    27    21    22    1
    28    22    23    1
    29    23    24    1
    30    24    25    1
