@<TRIPOS>MOLECULE
31300_ChemDiv_5151-1714
 28 32 0 0 0
SMALL
GASTEIGER
Energy = 0

@<TRIPOS>ATOM
      1 N          -2.2130    0.6540    0.0000 N.ar    1  LIG1       -0.3234
      2 C          -2.2330   -0.3210    0.0000 C.ar    1  LIG1        0.0600
      3 C          -3.2540   -0.5420    0.0000 C.ar    1  LIG1        0.0172
      4 C          -3.7500    0.3250    0.0000 C.ar    1  LIG1        0.0172
      5 C          -3.0750    1.0960    0.0000 C.ar    1  LIG1        0.0600
      6 C          -3.4420    2.0580    0.0000 C.ar    1  LIG1        0.0172
      7 C          -4.3960    2.2630    0.0000 C.ar    1  LIG1        0.0015
      8 C          -5.0920    1.4630    0.0000 C.ar    1  LIG1        0.0001
      9 C          -4.7460    0.4880    0.0000 C.ar    1  LIG1        0.0015
     10 C          -3.5170   -1.4750    0.0000 C.ar    1  LIG1        0.0015
     11 C          -2.8500   -2.2580    0.0000 C.ar    1  LIG1        0.0001
     12 C          -1.9040   -2.0250    0.0000 C.ar    1  LIG1        0.0015
     13 C          -1.5630   -1.0710    0.0000 C.ar    1  LIG1        0.0172
     14 C          -1.3540    1.1630    0.0000 C.3     1  LIG1        0.1513
     15 C          -0.4750    0.6540    0.0000 C.3     1  LIG1        0.2128
     16 O           0.4250    1.0710    0.0000 O.3     1  LIG1       -0.4344
     17 C           1.1040    0.3250    0.0000 C.2     1  LIG1        0.4091
     18 N           0.6040   -0.5380    0.0000 N.am    1  LIG1       -0.1935
     19 C           1.1040   -1.3920    0.0000 C.3     1  LIG1        0.2476
     20 N           2.0920   -1.3920    0.0000 N.4     1  LIG1        0.3935
     21 C           2.6000   -2.2420    0.0000 C.3     1  LIG1        0.1410
     22 C           3.5880   -2.2420    0.0000 C.3     1  LIG1        0.0630
     23 C           4.0960   -1.3920    0.0000 C.3     1  LIG1        0.0119
     24 C           3.5880   -0.5380    0.0000 C.3     1  LIG1        0.0630
     25 C           2.6000   -0.5380    0.0000 C.3     1  LIG1        0.1410
     26 C           5.0880   -1.3920    0.0000 C.3     1  LIG1        0.0004
     27 C          -0.3670   -0.3170    0.0000 C.3     1  LIG1        0.1478
     28 O           2.0920    0.4330    0.0000 O.2     1  LIG1       -0.2260
@<TRIPOS>BOND
     1     1     2   ar
     2     1     5   ar
     3     1    14    1
     4     2     3   ar
     5     2    13   ar
     6     3     4   ar
     7     3    10   ar
     8     4     5   ar
     9     4     9   ar
    10     5     6   ar
    11     6     7   ar
    12     7     8   ar
    13     8     9   ar
    14    10    11   ar
    15    11    12   ar
    16    12    13   ar
    17    14    15    1
    18    15    16    1
    19    15    27    1
    20    16    17    1
    21    17    18   am
    22    17    28    2
    23    18    19    1
    24    18    27    1
    25    19    20    1
    26    20    21    1
    27    20    25    1
    28    21    22    1
    29    22    23    1
    30    23    24    1
    31    23    26    1
    32    24    25    1
