@<TRIPOS>MOLECULE
31309_ChemDiv_D043-0251
 18 20 0 0 0
SMALL
GASTEIGER
Energy = 0

@<TRIPOS>ATOM
      1 C           1.4750   -1.0040    0.0000 C.ar    1  LIG1        0.2539
      2 N           0.5210   -1.3080    0.0000 N.ar    1  LIG1       -0.1891
      3 C          -0.0710   -0.5040    0.0000 C.ar    1  LIG1        0.1850
      4 N           0.5210    0.3080    0.0000 N.ar    1  LIG1       -0.1433
      5 N           1.4750   -0.0040    0.0000 N.ar    1  LIG1       -0.1991
      6 C           2.3330    0.5080    0.0000 C.ar    1  LIG1        0.0652
      7 C           3.1960   -0.0040    0.0000 C.ar    1  LIG1        0.0296
      8 C           3.1960   -1.0040    0.0000 C.ar    1  LIG1        0.0637
      9 N           2.3330   -1.4920    0.0000 N.ar    1  LIG1       -0.2143
     10 C           4.0630   -1.5040    0.0000 C.3     1  LIG1        0.0522
     11 C           2.3330    1.5080    0.0000 C.3     1  LIG1        0.0523
     12 C          -1.0580   -0.5040    0.0000 C.ar    1  LIG1        0.0376
     13 C          -1.5580    0.3710    0.0000 C.ar    1  LIG1        0.0028
     14 C          -2.5580    0.3710    0.0000 C.ar    1  LIG1       -0.0042
     15 C          -3.0580   -0.5040    0.0000 C.ar    1  LIG1       -0.0218
     16 C          -2.5540   -1.3710    0.0000 C.ar    1  LIG1       -0.0042
     17 C          -1.5540   -1.3670    0.0000 C.ar    1  LIG1        0.0028
     18 C          -4.0670   -0.5040    0.0000 C.3     1  LIG1        0.0310
@<TRIPOS>BOND
     1     1     2   ar
     2     1     5   ar
     3     1     9   ar
     4     2     3   ar
     5     3     4   ar
     6     3    12    1
     7     4     5   ar
     8     5     6   ar
     9     6     7   ar
    10     6    11    1
    11     7     8   ar
    12     8     9   ar
    13     8    10    1
    14    12    13   ar
    15    12    17   ar
    16    13    14   ar
    17    14    15   ar
    18    15    16   ar
    19    15    18    1
    20    16    17   ar
