@<TRIPOS>MOLECULE
31306_ChemDiv_5161-0141
 26 28 0 0 0
SMALL
GASTEIGER
Energy = 0

@<TRIPOS>ATOM
      1 C          -0.2500   -0.6670    0.0000 C.ar    1  LIG1        0.2444
      2 N           0.5210   -1.2920    0.0000 N.ar    1  LIG1       -0.1767
      3 C           1.4130   -0.9210    0.0000 C.ar    1  LIG1        0.2601
      4 N           1.5710    0.0540    0.0000 N.ar    1  LIG1       -0.1952
      5 C           0.8420    0.6420    0.0000 C.ar    1  LIG1        0.1563
      6 N          -0.1250    0.2830    0.0000 N.ar    1  LIG1       -0.1962
      7 C           0.9750    1.6460    0.0000 C.3     1  LIG1        0.1295
      8 S           1.9130    2.0080    0.0000 S.3     1  LIG1       -0.0841
      9 C           2.0960    3.0130    0.0000 C.2     1  LIG1        0.1114
     10 N           1.4130    3.6960    0.0000 N.am    1  LIG1       -0.2976
     11 C           1.6380    4.6790    0.0000 C.3     1  LIG1        0.0917
     12 C           0.9540    5.3920    0.0000 C.3     1  LIG1        0.0215
     13 C          -0.0130    5.0750    0.0000 C.3     1  LIG1        0.0035
     14 C          -0.2500    4.1210    0.0000 C.3     1  LIG1        0.0215
     15 C           0.4710    3.4420    0.0000 C.3     1  LIG1        0.0917
     16 S           2.9380    3.3750    0.0000 S.2     1  LIG1       -0.0279
     17 N           2.2540   -1.5670    0.0000 N.pl3   1  LIG1       -0.0859
     18 N          -1.2080   -1.0080    0.0000 N.pl3   1  LIG1       -0.1776
     19 C          -1.3880   -2.0210    0.0000 C.ar    1  LIG1        0.0738
     20 C          -0.6170   -2.6580    0.0000 C.ar    1  LIG1        0.0197
     21 C          -0.8080   -3.6540    0.0000 C.ar    1  LIG1        0.0382
     22 C          -1.7580   -4.0250    0.0000 C.ar    1  LIG1        0.1388
     23 C          -2.5250   -3.3880    0.0000 C.ar    1  LIG1        0.0382
     24 C          -2.3460   -2.3750    0.0000 C.ar    1  LIG1        0.0197
     25 O          -1.9830   -5.0210    0.0000 O.3     1  LIG1       -0.4714
     26 C          -2.9420   -5.3920    0.0000 C.3     1  LIG1        0.2525
@<TRIPOS>BOND
     1     1     2   ar
     2     1     6   ar
     3     1    18    1
     4     2     3   ar
     5     3     4   ar
     6     3    17    1
     7     4     5   ar
     8     5     6   ar
     9     5     7    1
    10     7     8    1
    11     8     9    1
    12     9    10    1
    13     9    16    2
    14    10    11    1
    15    10    15    1
    16    11    12    1
    17    12    13    1
    18    13    14    1
    19    14    15    1
    20    18    19    1
    21    19    20   ar
    22    19    24   ar
    23    20    21   ar
    24    21    22   ar
    25    22    23   ar
    26    22    25    1
    27    23    24   ar
    28    25    26    1
