@<TRIPOS>MOLECULE
31315_ChemDiv_4946-0007
 28 31 0 0 0
SMALL
GASTEIGER
Energy = 0

@<TRIPOS>ATOM
      1 C           1.0460   -0.8460    0.0000 C.3     1  LIG1        0.1895
      2 C           1.0630    0.1880    0.0000 C.3     1  LIG1        0.0799
      3 C           0.1960   -0.3210    0.0000 C.3     1  LIG1        0.0539
      4 C          -0.6790   -0.8000    0.0000 C.ar    1  LIG1        0.0141
      5 C          -0.7130   -1.7920    0.0000 C.ar    1  LIG1        0.1445
      6 O           0.1380   -2.3170    0.0000 O.3     1  LIG1       -0.4241
      7 C           1.0080   -1.8380    0.0000 C.2     1  LIG1        0.3315
      8 O           1.8500   -2.3790    0.0000 O.2     1  LIG1       -0.2491
      9 C          -1.5880   -2.2630    0.0000 C.ar    1  LIG1        0.0378
     10 C          -2.4380   -1.7460    0.0000 C.ar    1  LIG1        0.0098
     11 C          -2.4130   -0.7380    0.0000 C.ar    1  LIG1        0.0345
     12 C          -1.5290   -0.2750    0.0000 C.ar    1  LIG1        0.0055
     13 BR         -3.2710   -0.2380    0.0000 Br      1  LIG1       -0.0490
     14 C           0.3380    0.9000    0.0000 C.2     1  LIG1        0.1736
     15 C          -0.6330    1.1420    0.0000 C.ar    1  LIG1        0.0347
     16 C          -0.8790    2.1290    0.0000 C.ar    1  LIG1        0.0033
     17 C          -1.8500    2.3830    0.0000 C.ar    1  LIG1        0.0068
     18 C          -2.5750    1.6830    0.0000 C.ar    1  LIG1        0.0346
     19 C          -2.3000    0.7130    0.0000 C.ar    1  LIG1        0.0068
     20 C          -1.3290    0.4540    0.0000 C.ar    1  LIG1        0.0033
     21 BR         -3.5170    1.9330    0.0000 Br      1  LIG1       -0.0490
     22 O           0.6420    1.8670    0.0000 O.2     1  LIG1       -0.2913
     23 C           1.9170    0.6960    0.0000 C.3     1  LIG1        0.0087
     24 C           1.9170    1.6830    0.0000 C.3     1  LIG1        0.0005
     25 C           2.0380   -0.8460    0.0000 C.2     1  LIG1        0.3271
     26 O           2.5420    0.0170    0.0000 O.2     1  LIG1       -0.2495
     27 O           2.5420   -1.7080    0.0000 O.3     1  LIG1       -0.4440
     28 C           3.5130   -1.4540    0.0000 C.3     1  LIG1        0.2556
@<TRIPOS>BOND
     1     1     2    1
     2     1     3    1
     3     1     7    1
     4     1    25    1
     5     2     3    1
     6     2    14    1
     7     2    23    1
     8     3     4    1
     9     4     5   ar
    10     4    12   ar
    11     5     6    1
    12     5     9   ar
    13     6     7    1
    14     7     8    2
    15     9    10   ar
    16    10    11   ar
    17    11    12   ar
    18    11    13    1
    19    14    15    1
    20    14    22    2
    21    15    16   ar
    22    15    20   ar
    23    16    17   ar
    24    17    18   ar
    25    18    19   ar
    26    18    21    1
    27    19    20   ar
    28    23    24    1
    29    25    26    2
    30    25    27    1
    31    27    28    1
