@<TRIPOS>MOLECULE
31311_ChemDiv_4837-0321
 15 16 0 0 0
SMALL
GASTEIGER
Energy = 0

@<TRIPOS>ATOM
      1 N           1.2880    0.4880    0.0000 N.ar    1  LIG1       -0.1306
      2 N           1.2880    1.5080    0.0000 N.ar    1  LIG1       -0.1351
      3 C           0.4330    2.0130    0.0000 C.ar    1  LIG1        0.1599
      4 C          -0.4250    1.4880    0.0000 C.ar    1  LIG1        0.0330
      5 C          -0.4250    0.4880    0.0000 C.ar    1  LIG1        0.0371
      6 C           0.4330   -0.0040    0.0000 C.ar    1  LIG1        0.1693
      7 N           0.4330   -1.0000    0.0000 N.pl3   1  LIG1       -0.2161
      8 C           1.3000   -1.5040    0.0000 C.3     1  LIG1        0.1493
      9 C           1.3000   -2.5080    0.0000 C.3     1  LIG1        0.2054
     10 O           2.1580   -3.0080    0.0000 O.3     1  LIG1       -0.2184
     11 C          -1.2880   -0.0040    0.0000 C.ar    1  LIG1        0.0030
     12 C          -2.1630    0.4880    0.0000 C.ar    1  LIG1        0.0001
     13 C          -2.1630    1.4920    0.0000 C.ar    1  LIG1        0.0001
     14 C          -1.2880    1.9960    0.0000 C.ar    1  LIG1        0.0025
     15 CL          0.4330    3.0130    0.0000 Cl      1  LIG1       -0.0594
@<TRIPOS>BOND
     1     1     2   ar
     2     1     6   ar
     3     2     3   ar
     4     3     4   ar
     5     3    15    1
     6     4     5   ar
     7     4    14   ar
     8     5     6   ar
     9     5    11   ar
    10     6     7    1
    11     7     8    1
    12     8     9    1
    13     9    10    1
    14    11    12   ar
    15    12    13   ar
    16    13    14   ar
