@<TRIPOS>MOLECULE
31317_ChemDiv_5059-0298
 28 31 0 0 0
SMALL
GASTEIGER
Energy = 0

@<TRIPOS>ATOM
      1 C           0.3170    0.0000    0.0000 C.3     1  LIG1        0.1895
      2 C          -0.1880    0.8710    0.0000 C.3     1  LIG1        0.0799
      3 C          -0.6880    0.0000    0.0000 C.3     1  LIG1        0.0539
      4 C          -1.1830   -0.8670    0.0000 C.ar    1  LIG1        0.0141
      5 C          -0.6670   -1.7420    0.0000 C.ar    1  LIG1        0.1445
      6 O           0.3290   -1.7290    0.0000 O.3     1  LIG1       -0.4241
      7 C           0.8250   -0.8540    0.0000 C.2     1  LIG1        0.3315
      8 O           1.8130   -0.8670    0.0000 O.2     1  LIG1       -0.2491
      9 C          -1.1670   -2.6080    0.0000 C.ar    1  LIG1        0.0378
     10 C          -2.1670   -2.6250    0.0000 C.ar    1  LIG1        0.0098
     11 C          -2.6710   -1.7540    0.0000 C.ar    1  LIG1        0.0345
     12 C          -2.1830   -0.8830    0.0000 C.ar    1  LIG1        0.0055
     13 BR         -3.6790   -1.7630    0.0000 Br      1  LIG1       -0.0490
     14 C          -0.9080    1.6000    0.0000 C.2     1  LIG1        0.1736
     15 O          -0.9420    2.5420    0.0000 O.2     1  LIG1       -0.2913
     16 C          -1.8790    1.3330    0.0000 C.ar    1  LIG1        0.0347
     17 C          -2.5920    2.0540    0.0000 C.ar    1  LIG1        0.0028
     18 C          -3.5580    1.7960    0.0000 C.ar    1  LIG1        0.0001
     19 C          -3.8170    0.8130    0.0000 C.ar    1  LIG1        0.0000
     20 C          -3.1080    0.1170    0.0000 C.ar    1  LIG1        0.0001
     21 C          -2.1420    0.3630    0.0000 C.ar    1  LIG1        0.0028
     22 C           0.3630    1.5130    0.0000 C.3     1  LIG1        0.0087
     23 C           0.3540    2.6290    0.0000 C.3     1  LIG1        0.0005
     24 C           1.3080    0.0000    0.0000 C.2     1  LIG1        0.3270
     25 O           1.3080    1.0080    0.0000 O.2     1  LIG1       -0.2495
     26 O           2.3130    0.0000    0.0000 O.3     1  LIG1       -0.4481
     27 C           2.8130    0.8710    0.0000 C.3     1  LIG1        0.2086
     28 C           3.8130    0.8880    0.0000 C.3     1  LIG1        0.0513
@<TRIPOS>BOND
     1     1     2    1
     2     1     3    1
     3     1     7    1
     4     1    24    1
     5     2     3    1
     6     2    14    1
     7     2    22    1
     8     3     4    1
     9     4     5   ar
    10     4    12   ar
    11     5     6    1
    12     5     9   ar
    13     6     7    1
    14     7     8    2
    15     9    10   ar
    16    10    11   ar
    17    11    12   ar
    18    11    13    1
    19    14    15    2
    20    14    16    1
    21    16    17   ar
    22    16    21   ar
    23    17    18   ar
    24    18    19   ar
    25    19    20   ar
    26    20    21   ar
    27    22    23    1
    28    24    25    2
    29    24    26    1
    30    26    27    1
    31    27    28    1
