@<TRIPOS>MOLECULE
31319_ChemDiv_6541-0204
 32 36 0 0 0
SMALL
GASTEIGER
Energy = 0

@<TRIPOS>ATOM
      1 C          -0.2250    0.0630    0.0000 C.3     1  LIG1        0.1706
      2 C          -0.2040    1.0750    0.0000 C.3     1  LIG1        0.0781
      3 C          -1.0750    0.5500    0.0000 C.3     1  LIG1        0.0520
      4 C          -1.9130    0.0580    0.0000 C.ar    1  LIG1        0.0141
      5 C          -1.9040   -0.9250    0.0000 C.ar    1  LIG1        0.1445
      6 O          -1.0670   -1.4000    0.0000 O.3     1  LIG1       -0.4241
      7 C          -0.2210   -0.9170    0.0000 C.2     1  LIG1        0.3296
      8 O           0.6250   -1.3920    0.0000 O.2     1  LIG1       -0.2492
      9 C          -2.7500   -1.4000    0.0000 C.ar    1  LIG1        0.0378
     10 C          -3.5830   -0.9210    0.0000 C.ar    1  LIG1        0.0098
     11 C          -3.5830    0.0540    0.0000 C.ar    1  LIG1        0.0345
     12 C          -2.7500    0.5330    0.0000 C.ar    1  LIG1        0.0055
     13 BR         -4.4210    0.5330    0.0000 Br      1  LIG1       -0.0490
     14 C           1.0130    2.2960    0.0000 C.2     1  LIG1        0.1735
     15 O           0.7580    3.2250    0.0000 O.2     1  LIG1       -0.2913
     16 C           1.9460    2.0500    0.0000 C.ar    1  LIG1        0.0347
     17 C           2.1960    1.1130    0.0000 C.ar    1  LIG1        0.0028
     18 C           3.1330    0.8710    0.0000 C.ar    1  LIG1        0.0001
     19 C           3.8130    1.5540    0.0000 C.ar    1  LIG1        0.0000
     20 C           3.5540    2.4920    0.0000 C.ar    1  LIG1        0.0001
     21 C           2.6250    2.7330    0.0000 C.ar    1  LIG1        0.0028
     22 C          -0.7290    1.9250    0.0000 C.3     1  LIG1        0.0091
     23 C           1.0380    0.1040    0.0000 C.2     1  LIG1        0.2517
     24 N           1.5210   -0.7330    0.0000 N.am    1  LIG1       -0.2001
     25 C           2.4830   -0.7250    0.0000 C.3     1  LIG1        0.1415
     26 C           2.9710   -1.5540    0.0000 C.ar    1  LIG1       -0.0006
     27 C           2.4880   -2.3920    0.0000 C.ar    1  LIG1       -0.0026
     28 C           2.9710   -3.2210    0.0000 C.ar    1  LIG1       -0.0003
     29 C           3.9380   -3.2210    0.0000 C.ar    1  LIG1       -0.0000
     30 C           4.4170   -2.3750    0.0000 C.ar    1  LIG1       -0.0003
     31 C           3.9290   -1.5460    0.0000 C.ar    1  LIG1       -0.0026
     32 O           1.5130    0.9420    0.0000 O.2     1  LIG1       -0.2728
@<TRIPOS>BOND
     1     1     2    1
     2     1     3    1
     3     1     7    1
     4     1    23    1
     5     2     3    1
     6     2    14    1
     7     2    22    1
     8     3     4    1
     9     4     5   ar
    10     4    12   ar
    11     5     6    1
    12     5     9   ar
    13     6     7    1
    14     7     8    2
    15     9    10   ar
    16    10    11   ar
    17    11    12   ar
    18    11    13    1
    19    14    15    2
    20    14    16    1
    21    16    17   ar
    22    16    21   ar
    23    17    18   ar
    24    18    19   ar
    25    19    20   ar
    26    20    21   ar
    27    23    24   am
    28    23    32    2
    29    24    25    1
    30    25    26    1
    31    26    27   ar
    32    26    31   ar
    33    27    28   ar
    34    28    29   ar
    35    29    30   ar
    36    30    31   ar
