@<TRIPOS>MOLECULE
31313_ChemDiv_4934-0213
 23 26 0 0 0
SMALL
GASTEIGER
Energy = 0

@<TRIPOS>ATOM
      1 N           0.0210    0.9040    0.0000 N.am    1  LIG1       -0.2377
      2 C           0.0330   -0.0460    0.0000 C.2     1  LIG1        0.2380
      3 C           0.9630   -0.5170    0.0000 C.3     1  LIG1        0.1187
      4 C           0.9710   -1.4880    0.0000 C.ar    1  LIG1        0.0165
      5 S           0.2670   -2.1920    0.0000 S.2     1  LIG1       -0.0903
      6 C           0.7380   -3.0920    0.0000 C.ar    1  LIG1        0.0351
      7 C           1.6750   -2.9750    0.0000 C.ar    1  LIG1        0.0072
      8 C           1.9000   -1.9540    0.0000 C.ar    1  LIG1        0.0032
      9 O          -0.7920   -0.5750    0.0000 O.2     1  LIG1       -0.2738
     10 C           0.9130    1.3630    0.0000 C.ar    1  LIG1        0.0541
     11 C           1.0790    2.3000    0.0000 C.ar    1  LIG1       -0.0078
     12 C           0.4130    3.0960    0.0000 C.3     1  LIG1        0.0323
     13 C          -0.5540    3.0460    0.0000 C.3     1  LIG1        0.0323
     14 C          -1.1420    2.2710    0.0000 C.ar    1  LIG1       -0.0078
     15 C          -0.9080    1.2830    0.0000 C.ar    1  LIG1        0.0541
     16 C          -1.5830    0.6000    0.0000 C.ar    1  LIG1        0.0149
     17 C          -2.5500    0.8920    0.0000 C.ar    1  LIG1        0.0013
     18 C          -2.8460    1.8420    0.0000 C.ar    1  LIG1       -0.0002
     19 C          -2.1210    2.5460    0.0000 C.ar    1  LIG1       -0.0030
     20 C           2.0210    2.6920    0.0000 C.ar    1  LIG1       -0.0030
     21 C           2.8420    2.0080    0.0000 C.ar    1  LIG1       -0.0002
     22 C           2.6170    1.0500    0.0000 C.ar    1  LIG1        0.0013
     23 C           1.6750    0.7170    0.0000 C.ar    1  LIG1        0.0149
@<TRIPOS>BOND
     1     1     2   am
     2     1    10    1
     3     1    15    1
     4     2     3    1
     5     2     9    2
     6     3     4    1
     7     4     5   ar
     8     4     8   ar
     9     5     6   ar
    10     6     7   ar
    11     7     8   ar
    12    10    11   ar
    13    10    23   ar
    14    11    12    1
    15    11    20   ar
    16    12    13    1
    17    13    14    1
    18    14    15   ar
    19    14    19   ar
    20    15    16   ar
    21    16    17   ar
    22    17    18   ar
    23    18    19   ar
    24    20    21   ar
    25    21    22   ar
    26    22    23   ar
