@<TRIPOS>MOLECULE
31316_ChemDiv_G226-0134
 23 25 0 0 0
SMALL
GASTEIGER
Energy = 0

@<TRIPOS>ATOM
      1 C           0.0960    0.1040    0.0000 C.ar    1  LIG1        0.1349
      2 S           0.6880    0.9040    0.0000 S.O2    1  LIG1        0.0640
      3 N           1.2750    1.7040    0.0000 N.3     1  LIG1       -0.1555
      4 C           0.8830    2.6130    0.0000 C.3     1  LIG1        0.0958
      5 C           1.4710    3.4250    0.0000 C.3     1  LIG1        0.0192
      6 C           2.4710    3.3080    0.0000 C.3     1  LIG1        0.0030
      7 C           2.8630    2.3880    0.0000 C.3     1  LIG1        0.0192
      8 C           2.2750    1.5830    0.0000 C.3     1  LIG1        0.0958
      9 O          -0.1290    1.5040    0.0000 O.2     1  LIG1       -0.1528
     10 O           1.4710    0.3130    0.0000 O.2     1  LIG1       -0.1528
     11 C           0.4000   -0.8500    0.0000 C.ar    1  LIG1        0.1237
     12 S          -0.4040   -1.4380    0.0000 S.2     1  LIG1       -0.0792
     13 C          -1.2210   -0.8500    0.0000 C.ar    1  LIG1        0.0310
     14 C          -0.9000    0.1040    0.0000 C.ar    1  LIG1        0.0253
     15 C          -1.5670    0.8540    0.0000 C.ar    1  LIG1        0.0018
     16 C          -2.5500    0.6460    0.0000 C.ar    1  LIG1        0.0001
     17 C          -2.8670   -0.3130    0.0000 C.ar    1  LIG1        0.0005
     18 C          -2.1920   -1.0500    0.0000 C.ar    1  LIG1        0.0065
     19 C           1.3500   -1.1580    0.0000 C.2     1  LIG1        0.3486
     20 O           2.0920   -0.4920    0.0000 O.2     1  LIG1       -0.2443
     21 O           1.5630   -2.1330    0.0000 O.3     1  LIG1       -0.4451
     22 C           2.5170   -2.4420    0.0000 C.3     1  LIG1        0.2089
     23 C           2.7210   -3.4210    0.0000 C.3     1  LIG1        0.0513
@<TRIPOS>BOND
     1     1     2    1
     2     1    11   ar
     3     1    14   ar
     4     2     3    1
     5     2     9    2
     6     2    10    2
     7     3     4    1
     8     3     8    1
     9     4     5    1
    10     5     6    1
    11     6     7    1
    12     7     8    1
    13    11    12   ar
    14    11    19    1
    15    12    13   ar
    16    13    14   ar
    17    13    18   ar
    18    14    15   ar
    19    15    16   ar
    20    16    17   ar
    21    17    18   ar
    22    19    20    2
    23    19    21    1
    24    21    22    1
    25    22    23    1
