@<TRIPOS>MOLECULE
31318_ChemDiv_G226-0159
 31 34 0 0 0
SMALL
GASTEIGER
Energy = 0

@<TRIPOS>ATOM
      1 C          -1.2960   -1.5790    0.0000 C.ar    1  LIG1        0.1349
      2 S          -0.7040   -0.7790    0.0000 S.O2    1  LIG1        0.0641
      3 N          -0.1170    0.0250    0.0000 N.3     1  LIG1       -0.1520
      4 C          -0.5080    0.9330    0.0000 C.3     1  LIG1        0.1172
      5 C           0.0790    1.7330    0.0000 C.3     1  LIG1        0.1099
      6 N           1.0790    1.6290    0.0000 N.pl3   1  LIG1       -0.3048
      7 C           1.6710    2.4170    0.0000 C.ar    1  LIG1        0.0436
      8 C           1.2750    3.3420    0.0000 C.ar    1  LIG1       -0.0085
      9 C           1.8670    4.1380    0.0000 C.ar    1  LIG1       -0.0034
     10 C           2.8670    4.0170    0.0000 C.ar    1  LIG1       -0.0045
     11 C           3.2580    3.0960    0.0000 C.ar    1  LIG1       -0.0206
     12 C           2.6710    2.2960    0.0000 C.ar    1  LIG1        0.0099
     13 C           4.2580    2.9920    0.0000 C.3     1  LIG1        0.0311
     14 C           0.2920    3.4460    0.0000 C.3     1  LIG1        0.0323
     15 C           1.4750    0.7040    0.0000 C.3     1  LIG1        0.1099
     16 C           0.8830   -0.0960    0.0000 C.3     1  LIG1        0.1172
     17 O          -1.5250   -0.1880    0.0000 O.2     1  LIG1       -0.1528
     18 O           0.0790   -1.3670    0.0000 O.2     1  LIG1       -0.1528
     19 C          -0.9920   -2.5330    0.0000 C.ar    1  LIG1        0.1237
     20 S          -1.7960   -3.1250    0.0000 S.2     1  LIG1       -0.0792
     21 C          -2.6130   -2.5330    0.0000 C.ar    1  LIG1        0.0310
     22 C          -2.2960   -1.5790    0.0000 C.ar    1  LIG1        0.0253
     23 C          -2.9630   -0.8330    0.0000 C.ar    1  LIG1        0.0018
     24 C          -3.9460   -1.0330    0.0000 C.ar    1  LIG1        0.0001
     25 C          -4.2630   -2.0000    0.0000 C.ar    1  LIG1        0.0005
     26 C          -3.5880   -2.7420    0.0000 C.ar    1  LIG1        0.0065
     27 C          -0.0420   -2.8500    0.0000 C.2     1  LIG1        0.3486
     28 O           0.7000   -2.1830    0.0000 O.2     1  LIG1       -0.2443
     29 O           0.1710   -3.8210    0.0000 O.3     1  LIG1       -0.4451
     30 C           1.1250   -4.1380    0.0000 C.3     1  LIG1        0.2089
     31 C           1.8670   -3.4670    0.0000 C.3     1  LIG1        0.0513
@<TRIPOS>BOND
     1     1     2    1
     2     1    19   ar
     3     1    22   ar
     4     2     3    1
     5     2    17    2
     6     2    18    2
     7     3     4    1
     8     3    16    1
     9     4     5    1
    10     5     6    1
    11     6     7    1
    12     6    15    1
    13     7     8   ar
    14     7    12   ar
    15     8     9   ar
    16     8    14    1
    17     9    10   ar
    18    10    11   ar
    19    11    12   ar
    20    11    13    1
    21    15    16    1
    22    19    20   ar
    23    19    27    1
    24    20    21   ar
    25    21    22   ar
    26    21    26   ar
    27    22    23   ar
    28    23    24   ar
    29    24    25   ar
    30    25    26   ar
    31    27    28    2
    32    27    29    1
    33    29    30    1
    34    30    31    1
