@<TRIPOS>MOLECULE
31314_ChemDiv_G225-0073
 25 27 0 0 0
SMALL
GASTEIGER
Energy = 0

@<TRIPOS>ATOM
      1 S          -1.7290   -0.2670    0.0000 S.O2    1  LIG1        0.0644
      2 C          -2.3170   -1.0750    0.0000 C.ar    1  LIG1        0.1349
      3 C          -2.0130   -2.0290    0.0000 C.ar    1  LIG1        0.1237
      4 C          -1.0580   -2.3290    0.0000 C.2     1  LIG1        0.3487
      5 O          -0.3170   -1.6630    0.0000 O.2     1  LIG1       -0.2443
      6 O          -0.8460   -3.3170    0.0000 O.3     1  LIG1       -0.4410
      7 C           0.1000   -3.6170    0.0000 C.3     1  LIG1        0.2560
      8 S          -2.8170   -2.6130    0.0000 S.2     1  LIG1       -0.0787
      9 C          -3.6330   -2.0290    0.0000 C.ar    1  LIG1        0.0371
     10 C          -3.3170   -1.0750    0.0000 C.ar    1  LIG1        0.0276
     11 N          -1.1420    0.5380    0.0000 N.3     1  LIG1       -0.1433
     12 C          -0.1420    0.4170    0.0000 C.3     1  LIG1        0.1585
     13 C           0.4540    1.2130    0.0000 C.3     1  LIG1        0.1586
     14 N           0.0630    2.1380    0.0000 N.4     1  LIG1        0.3830
     15 C          -0.9380    2.2580    0.0000 C.3     1  LIG1        0.1586
     16 C          -1.5330    1.4460    0.0000 C.3     1  LIG1        0.1585
     17 C           0.6500    2.9420    0.0000 C.3     1  LIG1        0.1663
     18 C           1.6500    2.8210    0.0000 C.ar    1  LIG1        0.0344
     19 C           2.0420    1.9000    0.0000 C.ar    1  LIG1        0.0014
     20 C           3.0290    1.7880    0.0000 C.ar    1  LIG1       -0.0001
     21 C           3.6290    2.5830    0.0000 C.ar    1  LIG1       -0.0000
     22 C           3.2250    3.5040    0.0000 C.ar    1  LIG1       -0.0001
     23 C           2.2420    3.6210    0.0000 C.ar    1  LIG1        0.0014
     24 O          -2.5460    0.3330    0.0000 O.2     1  LIG1       -0.1527
     25 O          -0.9380   -0.8540    0.0000 O.2     1  LIG1       -0.1527
@<TRIPOS>BOND
     1     1     2    1
     2     1    11    1
     3     1    24    2
     4     1    25    2
     5     2     3   ar
     6     2    10   ar
     7     3     4    1
     8     3     8   ar
     9     4     5    2
    10     4     6    1
    11     6     7    1
    12     8     9   ar
    13     9    10   ar
    14    11    12    1
    15    11    16    1
    16    12    13    1
    17    13    14    1
    18    14    15    1
    19    14    17    1
    20    15    16    1
    21    17    18    1
    22    18    19   ar
    23    18    23   ar
    24    19    20   ar
    25    20    21   ar
    26    21    22   ar
    27    22    23   ar
