@<TRIPOS>MOLECULE
31322_ChemDiv_G226-0506
 25 27 0 0 0
SMALL
GASTEIGER
Energy = 0

@<TRIPOS>ATOM
      1 C          -0.4040   -1.6710    0.0000 C.ar    1  LIG1        0.1237
      2 C          -0.7080   -0.7170    0.0000 C.ar    1  LIG1        0.1362
      3 S          -0.1170    0.0830    0.0000 S.O2    1  LIG1        0.0778
      4 N           0.4710    0.8880    0.0000 N.3     1  LIG1       -0.0729
      5 C           1.4710    0.7670    0.0000 C.3     1  LIG1        0.1418
      6 C           2.0710    1.5710    0.0000 C.ar    1  LIG1       -0.0029
      7 C           3.0630    1.4500    0.0000 C.ar    1  LIG1       -0.0028
      8 C           3.6630    2.2500    0.0000 C.ar    1  LIG1       -0.0003
      9 C           3.2750    3.1670    0.0000 C.ar    1  LIG1       -0.0000
     10 C           2.2750    3.2790    0.0000 C.ar    1  LIG1       -0.0003
     11 C           1.6790    2.4830    0.0000 C.ar    1  LIG1       -0.0028
     12 O          -0.9380    0.6750    0.0000 O.2     1  LIG1       -0.1516
     13 O           0.6710   -0.5040    0.0000 O.2     1  LIG1       -0.1516
     14 C          -1.7080   -0.7170    0.0000 C.ar    1  LIG1        0.0254
     15 C          -2.0170   -1.6710    0.0000 C.ar    1  LIG1        0.0310
     16 S          -1.2080   -2.2630    0.0000 S.2     1  LIG1       -0.0792
     17 C          -2.9960   -1.8790    0.0000 C.ar    1  LIG1        0.0065
     18 C          -3.6670   -1.1250    0.0000 C.ar    1  LIG1        0.0005
     19 C          -3.3580   -0.1710    0.0000 C.ar    1  LIG1        0.0001
     20 C          -2.3750    0.0290    0.0000 C.ar    1  LIG1        0.0018
     21 C           0.5500   -1.9880    0.0000 C.2     1  LIG1        0.3486
     22 O           1.2920   -1.3250    0.0000 O.2     1  LIG1       -0.2443
     23 O           0.7580   -2.9580    0.0000 O.3     1  LIG1       -0.4451
     24 C           1.7130   -3.2750    0.0000 C.3     1  LIG1        0.2089
     25 C           2.4540   -2.6080    0.0000 C.3     1  LIG1        0.0513
@<TRIPOS>BOND
     1     1     2   ar
     2     1    16   ar
     3     1    21    1
     4     2     3    1
     5     2    14   ar
     6     3     4    1
     7     3    12    2
     8     3    13    2
     9     4     5    1
    10     5     6    1
    11     6     7   ar
    12     6    11   ar
    13     7     8   ar
    14     8     9   ar
    15     9    10   ar
    16    10    11   ar
    17    14    15   ar
    18    14    20   ar
    19    15    16   ar
    20    15    17   ar
    21    17    18   ar
    22    18    19   ar
    23    19    20   ar
    24    21    22    2
    25    21    23    1
    26    23    24    1
    27    24    25    1
