@<TRIPOS>MOLECULE
31329_ChemDiv_7150-0165
 20 21 0 0 0
SMALL
GASTEIGER
Energy = 0

@<TRIPOS>ATOM
      1 N          -2.1420    1.2920    0.0000 N.4     1  LIG1        0.3021
      2 C          -1.6420    2.1630    0.0000 C.3     1  LIG1        0.1120
      3 C          -0.6330    2.1630    0.0000 C.3     1  LIG1        0.0950
      4 C          -0.1330    1.2920    0.0000 C.3     1  LIG1        0.1900
      5 C           0.3540    0.4290    0.0000 C.1     1  LIG1       -0.0594
      6 C           0.8540   -0.4330    0.0000 C.1     1  LIG1       -0.0599
      7 C           1.3500   -1.2960    0.0000 C.3     1  LIG1        0.1791
      8 O           1.8380   -0.4250    0.0000 O.3     1  LIG1       -0.2125
      9 C           2.3500   -1.2880    0.0000 C.3     1  LIG1        0.0430
     10 C           2.8380   -2.1630    0.0000 C.3     1  LIG1        0.0036
     11 C           2.3380   -3.0250    0.0000 C.3     1  LIG1        0.0002
     12 C           1.3420   -3.0210    0.0000 C.3     1  LIG1        0.0036
     13 C           0.8420   -2.1500    0.0000 C.3     1  LIG1        0.0430
     14 C          -0.6330    0.4290    0.0000 C.3     1  LIG1        0.0981
     15 C          -1.6420    0.4290    0.0000 C.3     1  LIG1        0.0626
     16 C          -2.1540   -0.4380    0.0000 C.3     1  LIG1        0.0611
     17 O           0.3540    2.1630    0.0000 O.3     1  LIG1       -0.2120
     18 C          -0.1290    3.0290    0.0000 C.3     1  LIG1        0.0097
     19 C          -2.4000    2.2380    0.0000 C.3     1  LIG1        0.1704
     20 C          -2.8420    0.5750    0.0000 C.3     1  LIG1        0.1704
@<TRIPOS>BOND
     1     1     2    1
     2     1    15    1
     3     1    19    1
     4     1    20    1
     5     2     3    1
     6     3     4    1
     7     3    18    1
     8     4     5    1
     9     4    14    1
    10     4    17    1
    11     5     6    3
    12     6     7    1
    13     7     8    1
    14     7     9    1
    15     7    13    1
    16     9    10    1
    17    10    11    1
    18    11    12    1
    19    12    13    1
    20    14    15    1
    21    15    16    1
