@<TRIPOS>MOLECULE
31324_ChemDiv_K784-2003
 26 28 0 0 0
SMALL
GASTEIGER
Energy = 0

@<TRIPOS>ATOM
      1 S           1.0920   -0.5000    0.0000 S.O2    1  LIG1        0.0633
      2 N           1.9540    0.0040    0.0000 N.3     1  LIG1       -0.1555
      3 C           2.8250   -0.4830    0.0000 C.3     1  LIG1        0.0958
      4 C           3.6790    0.0130    0.0000 C.3     1  LIG1        0.0178
      5 C           3.6790    1.0130    0.0000 C.3     1  LIG1        0.0029
      6 C           2.8130    1.5130    0.0000 C.3     1  LIG1        0.0178
      7 C           1.9380    1.0040    0.0000 C.3     1  LIG1        0.0958
      8 C           2.8000    2.5130    0.0000 C.3     1  LIG1        0.0015
      9 C           4.5540   -0.4790    0.0000 C.3     1  LIG1        0.0015
     10 C           0.2290   -1.0000    0.0000 C.ar    1  LIG1        0.1223
     11 C          -0.6330   -0.5000    0.0000 C.ar    1  LIG1        0.0218
     12 C          -1.5040   -1.0080    0.0000 C.ar    1  LIG1        0.0248
     13 C          -2.4540   -0.7080    0.0000 C.ar    1  LIG1        0.1018
     14 C          -3.0420   -1.5170    0.0000 C.ar    1  LIG1        0.1218
     15 S          -2.4540   -2.3170    0.0000 S.2     1  LIG1       -0.0792
     16 C          -1.5000   -2.0080    0.0000 C.ar    1  LIG1        0.0311
     17 C          -0.6330   -2.5080    0.0000 C.ar    1  LIG1        0.0079
     18 C           0.2290   -2.0080    0.0000 C.ar    1  LIG1        0.0204
     19 C          -4.0420   -1.5170    0.0000 C.2     1  LIG1        0.3486
     20 O          -4.5420   -2.3880    0.0000 O.2     1  LIG1       -0.2443
     21 O          -4.5420   -0.6500    0.0000 O.3     1  LIG1       -0.4451
     22 C          -4.0580    0.2130    0.0000 C.3     1  LIG1        0.2089
     23 C          -4.5580    1.0750    0.0000 C.3     1  LIG1        0.0513
     24 N          -2.9580    0.1670    0.0000 N.pl3   1  LIG1       -0.1273
     25 O           1.5920   -1.3630    0.0000 O.2     1  LIG1       -0.1528
     26 O           0.5920    0.3670    0.0000 O.2     1  LIG1       -0.1528
@<TRIPOS>BOND
     1     1     2    1
     2     1    10    1
     3     1    25    2
     4     1    26    2
     5     2     3    1
     6     2     7    1
     7     3     4    1
     8     4     5    1
     9     4     9    1
    10     5     6    1
    11     6     7    1
    12     6     8    1
    13    10    11   ar
    14    10    18   ar
    15    11    12   ar
    16    12    13   ar
    17    12    16   ar
    18    13    14   ar
    19    13    24    1
    20    14    15   ar
    21    14    19    1
    22    15    16   ar
    23    16    17   ar
    24    17    18   ar
    25    19    20    2
    26    19    21    1
    27    21    22    1
    28    22    23    1
