@<TRIPOS>MOLECULE
31332_ChemDiv_5166-0257
 22 25 0 0 0
SMALL
GASTEIGER
Energy = 0

@<TRIPOS>ATOM
      1 C           0.9580    0.7420    0.0000 C.ar    1  LIG1        0.2356
      2 N           0.6500    1.6790    0.0000 N.ar    1  LIG1       -0.1953
      3 N           1.4670    2.2670    0.0000 N.ar    1  LIG1       -0.1476
      4 C           2.2880    1.6580    0.0000 C.ar    1  LIG1        0.1626
      5 N           1.9540    0.7210    0.0000 N.ar    1  LIG1       -0.1947
      6 C           3.2630    1.9130    0.0000 C.3     1  LIG1        0.0757
      7 C          -0.3420    1.6790    0.0000 C.ar    1  LIG1        0.1016
      8 C          -0.6580    0.7210    0.0000 C.ar    1  LIG1        0.0806
      9 N           0.1630    0.1580    0.0000 N.ar    1  LIG1       -0.2872
     10 C           0.2000   -0.8540    0.0000 C.3     1  LIG1        0.1942
     11 C          -0.6580   -1.3830    0.0000 C.2     1  LIG1        0.2488
     12 N          -1.5380   -0.8750    0.0000 N.am    1  LIG1       -0.2780
     13 C          -2.3880   -1.3830    0.0000 C.3     1  LIG1        0.0935
     14 C          -3.2670   -0.8750    0.0000 C.3     1  LIG1        0.0216
     15 C          -3.2670    0.1380    0.0000 C.3     1  LIG1        0.0035
     16 C          -2.3880    0.6250    0.0000 C.3     1  LIG1        0.0216
     17 C          -1.5380    0.1380    0.0000 C.3     1  LIG1        0.0935
     18 O          -0.6330   -2.3960    0.0000 O.2     1  LIG1       -0.2728
     19 C          -1.6080    0.5130    0.0000 C.ar    1  LIG1        0.0188
     20 C          -2.2920    1.2290    0.0000 C.ar    1  LIG1        0.0016
     21 C          -1.9790    2.1830    0.0000 C.ar    1  LIG1        0.0016
     22 C          -1.0250    2.4000    0.0000 C.ar    1  LIG1        0.0207
@<TRIPOS>BOND
     1     1     2   ar
     2     1     5   ar
     3     1     9   ar
     4     2     3   ar
     5     2     7   ar
     6     3     4   ar
     7     4     5   ar
     8     4     6    1
     9     7     8   ar
    10     7    22   ar
    11     8     9   ar
    12     8    19   ar
    13     9    10    1
    14    10    11    1
    15    11    12   am
    16    11    18    2
    17    12    13    1
    18    12    17    1
    19    13    14    1
    20    14    15    1
    21    15    16    1
    22    16    17    1
    23    19    20   ar
    24    20    21   ar
    25    21    22   ar
