@<TRIPOS>MOLECULE
31330_ChemDiv_5166-0225
 23 25 0 0 0
SMALL
GASTEIGER
Energy = 0

@<TRIPOS>ATOM
      1 C          -0.3830    0.4880    0.0000 C.ar    1  LIG1        0.2371
      2 N          -0.8710   -0.3920    0.0000 N.ar    1  LIG1       -0.1965
      3 N          -0.3830   -1.2500    0.0000 N.ar    1  LIG1       -0.1621
      4 C           0.6330   -1.2500    0.0000 C.ar    1  LIG1        0.1370
      5 C           1.1330   -0.3920    0.0000 C.ar    1  LIG1        0.2970
      6 N           0.6330    0.4880    0.0000 N.ar    1  LIG1       -0.1715
      7 O           2.1000   -0.3920    0.0000 O.2     1  LIG1       -0.2637
      8 C           1.1380   -2.1330    0.0000 C.3     1  LIG1        0.0585
      9 C           2.1710   -2.1330    0.0000 C.3     1  LIG1        0.0482
     10 C           2.6540   -2.9880    0.0000 C.2     1  LIG1        0.0507
     11 O           3.6580   -2.9880    0.0000 O.co2   1  LIG1       -0.5492
     12 O           2.1710   -3.8460    0.0000 O.co2   1  LIG1       -0.5492
     13 C          -1.8500   -0.1670    0.0000 C.ar    1  LIG1        0.1016
     14 C          -1.9630    0.8290    0.0000 C.ar    1  LIG1        0.0805
     15 N          -1.0630    1.2290    0.0000 N.ar    1  LIG1       -0.2888
     16 C          -0.8710    2.2380    0.0000 C.3     1  LIG1        0.1733
     17 C          -1.6630    2.8580    0.0000 C.2     1  LIG1        0.1739
     18 O          -2.5830    2.5080    0.0000 O.2     1  LIG1       -0.2940
     19 C          -1.5040    3.8500    0.0000 C.3     1  LIG1        0.0744
     20 C          -2.8630    1.2290    0.0000 C.ar    1  LIG1        0.0188
     21 C          -3.6630    0.6500    0.0000 C.ar    1  LIG1        0.0016
     22 C          -3.5830   -0.3250    0.0000 C.ar    1  LIG1        0.0016
     23 C          -2.6500   -0.7460    0.0000 C.ar    1  LIG1        0.0207
@<TRIPOS>BOND
     1     1     2   ar
     2     1     6   ar
     3     1    15   ar
     4     2     3   ar
     5     2    13   ar
     6     3     4   ar
     7     4     5   ar
     8     4     8    1
     9     5     6   ar
    10     5     7    2
    11     8     9    1
    12     9    10    1
    13    10    11   ar
    14    10    12   ar
    15    13    14   ar
    16    13    23   ar
    17    14    15   ar
    18    14    20   ar
    19    15    16    1
    20    16    17    1
    21    17    18    2
    22    17    19    1
    23    20    21   ar
    24    21    22   ar
    25    22    23   ar
