@<TRIPOS>MOLECULE
31336_ChemDiv_7182-3766
 22 24 0 0 0
SMALL
GASTEIGER
Energy = 0

@<TRIPOS>ATOM
      1 N          -1.5500    0.1960    0.0000 N.ar    1  LIG1       -0.2808
      2 C          -0.9630    0.9920    0.0000 C.ar    1  LIG1        0.2927
      3 S          -1.5540    1.8170    0.0000 S.2     1  LIG1       -0.0260
      4 C          -2.4960    1.5130    0.0000 C.ar    1  LIG1        0.0497
      5 C          -2.5040    0.5080    0.0000 C.ar    1  LIG1        0.0695
      6 C          -3.3710    0.0250    0.0000 C.ar    1  LIG1        0.0178
      7 C          -4.2380    0.5210    0.0000 C.ar    1  LIG1        0.0015
      8 C          -4.2250    1.5250    0.0000 C.ar    1  LIG1        0.0006
      9 C          -3.3540    2.0130    0.0000 C.ar    1  LIG1        0.0081
     10 O           0.0380    0.9920    0.0000 O.2     1  LIG1       -0.2594
     11 C          -1.3080   -0.7750    0.0000 C.3     1  LIG1        0.1966
     12 C          -0.3420   -1.0420    0.0000 C.2     1  LIG1        0.2687
     13 N           0.3710   -0.3380    0.0000 N.am    1  LIG1       -0.1779
     14 C           1.3330   -0.6000    0.0000 C.ar    1  LIG1        0.0695
     15 C           2.0380    0.1130    0.0000 C.ar    1  LIG1       -0.0060
     16 C           3.0000   -0.1540    0.0000 C.ar    1  LIG1        0.0037
     17 C           3.2580   -1.1250    0.0000 C.ar    1  LIG1        0.0343
     18 C           2.5460   -1.8290    0.0000 C.ar    1  LIG1        0.0080
     19 C           1.5880   -1.5670    0.0000 C.ar    1  LIG1        0.0168
     20 BR          4.2330   -1.3880    0.0000 Br      1  LIG1       -0.0490
     21 C           1.7790    1.0750    0.0000 C.3     1  LIG1        0.0324
     22 O          -0.0920   -2.0080    0.0000 O.2     1  LIG1       -0.2709
@<TRIPOS>BOND
     1     1     2   ar
     2     1     5   ar
     3     1    11    1
     4     2     3   ar
     5     2    10    2
     6     3     4   ar
     7     4     5   ar
     8     4     9   ar
     9     5     6   ar
    10     6     7   ar
    11     7     8   ar
    12     8     9   ar
    13    11    12    1
    14    12    13   am
    15    12    22    2
    16    13    14    1
    17    14    15   ar
    18    14    19   ar
    19    15    16   ar
    20    15    21    1
    21    16    17   ar
    22    17    18   ar
    23    17    20    1
    24    18    19   ar
