@<TRIPOS>MOLECULE
31338_ChemDiv_8016-8173
 24 27 0 0 0
SMALL
GASTEIGER
Energy = 0

@<TRIPOS>ATOM
      1 N           2.7040    0.8540    0.0000 N.ar    1  LIG1       -0.2808
      2 C           3.6540    1.1580    0.0000 C.ar    1  LIG1        0.2927
      3 S           4.2380    0.3420    0.0000 S.2     1  LIG1       -0.0260
      4 C           3.6540   -0.4670    0.0000 C.ar    1  LIG1        0.0497
      5 C           2.7040   -0.1580    0.0000 C.ar    1  LIG1        0.0695
      6 C           1.9630   -0.8250    0.0000 C.ar    1  LIG1        0.0178
      7 C           2.1790   -1.7920    0.0000 C.ar    1  LIG1        0.0015
      8 C           3.1290   -2.1000    0.0000 C.ar    1  LIG1        0.0006
      9 C           3.8630   -1.4380    0.0000 C.ar    1  LIG1        0.0081
     10 O           3.9670    2.1040    0.0000 O.2     1  LIG1       -0.2594
     11 C           1.8420    1.3670    0.0000 C.3     1  LIG1        0.1966
     12 C           0.9750    0.8540    0.0000 C.2     1  LIG1        0.2688
     13 N           0.1040    1.3670    0.0000 N.am    1  LIG1       -0.1760
     14 C          -0.7710    0.8790    0.0000 C.ar    1  LIG1        0.0925
     15 C          -1.6420    1.3670    0.0000 C.ar    1  LIG1        0.0197
     16 C          -2.5040    0.8790    0.0000 C.ar    1  LIG1        0.0190
     17 C          -2.5040   -0.1380    0.0000 C.ar    1  LIG1        0.0814
     18 N          -1.6420   -0.6170    0.0000 N.ar    1  LIG1       -0.2425
     19 C          -0.7710   -0.1380    0.0000 C.ar    1  LIG1        0.1153
     20 C          -3.3710   -0.6170    0.0000 C.ar    1  LIG1        0.0191
     21 C          -4.2420   -0.1380    0.0000 C.ar    1  LIG1        0.0015
     22 C          -4.2420    0.8790    0.0000 C.ar    1  LIG1        0.0001
     23 C          -3.3710    1.3670    0.0000 C.ar    1  LIG1        0.0015
     24 O           0.9750   -0.1380    0.0000 O.2     1  LIG1       -0.2709
@<TRIPOS>BOND
     1     1     2   ar
     2     1     5   ar
     3     1    11    1
     4     2     3   ar
     5     2    10    2
     6     3     4   ar
     7     4     5   ar
     8     4     9   ar
     9     5     6   ar
    10     6     7   ar
    11     7     8   ar
    12     8     9   ar
    13    11    12    1
    14    12    13   am
    15    12    24    2
    16    13    14    1
    17    14    15   ar
    18    14    19   ar
    19    15    16   ar
    20    16    17   ar
    21    16    23   ar
    22    17    18   ar
    23    17    20   ar
    24    18    19   ar
    25    20    21   ar
    26    21    22   ar
    27    22    23   ar
