@<TRIPOS>MOLECULE
31334_ChemDiv_5167-1580
 23 25 0 0 0
SMALL
GASTEIGER
Energy = 0

@<TRIPOS>ATOM
      1 N          -1.0710    0.1960    0.0000 N.ar    1  LIG1       -0.2808
      2 C          -0.4920    1.0000    0.0000 C.ar    1  LIG1        0.2927
      3 S          -1.0830    1.8170    0.0000 S.2     1  LIG1       -0.0260
      4 C          -2.0080    1.5290    0.0000 C.ar    1  LIG1        0.0497
      5 C          -2.0250    0.5170    0.0000 C.ar    1  LIG1        0.0695
      6 C          -2.8790    0.0170    0.0000 C.ar    1  LIG1        0.0178
      7 C          -3.7460    0.5250    0.0000 C.ar    1  LIG1        0.0015
      8 C          -3.7460    1.5330    0.0000 C.ar    1  LIG1        0.0006
      9 C          -2.8750    2.0130    0.0000 C.ar    1  LIG1        0.0081
     10 O           0.5210    0.9880    0.0000 O.2     1  LIG1       -0.2594
     11 C          -0.8290   -0.7750    0.0000 C.3     1  LIG1        0.1966
     12 C           0.1330   -1.0380    0.0000 C.2     1  LIG1        0.2687
     13 N           0.8460   -0.3330    0.0000 N.am    1  LIG1       -0.1775
     14 C           1.8170   -0.5920    0.0000 C.ar    1  LIG1        0.0745
     15 C           2.5250    0.1170    0.0000 C.ar    1  LIG1        0.0293
     16 C           2.2580    1.0880    0.0000 C.2     1  LIG1        0.0741
     17 O           1.2880    1.3460    0.0000 O.co2   1  LIG1       -0.5446
     18 O           2.9540    1.7750    0.0000 O.co2   1  LIG1       -0.5446
     19 C           3.4830   -0.1540    0.0000 C.ar    1  LIG1        0.0024
     20 C           3.7420   -1.1250    0.0000 C.ar    1  LIG1        0.0001
     21 C           3.0330   -1.8290    0.0000 C.ar    1  LIG1        0.0013
     22 C           2.0580   -1.5630    0.0000 C.ar    1  LIG1        0.0166
     23 O           0.3830   -2.0080    0.0000 O.2     1  LIG1       -0.2709
@<TRIPOS>BOND
     1     1     2   ar
     2     1     5   ar
     3     1    11    1
     4     2     3   ar
     5     2    10    2
     6     3     4   ar
     7     4     5   ar
     8     4     9   ar
     9     5     6   ar
    10     6     7   ar
    11     7     8   ar
    12     8     9   ar
    13    11    12    1
    14    12    13   am
    15    12    23    2
    16    13    14    1
    17    14    15   ar
    18    14    22   ar
    19    15    16    1
    20    15    19   ar
    21    16    17   ar
    22    16    18   ar
    23    19    20   ar
    24    20    21   ar
    25    21    22   ar
