@<TRIPOS>MOLECULE
31333_ChemDiv_6146-0586
 23 24 0 0 0
SMALL
GASTEIGER
Energy = 0

@<TRIPOS>ATOM
      1 C           0.1420    0.5210    0.0000 C.3     1  LIG1        0.3342
      2 O          -0.4500   -0.2830    0.0000 O.3     1  LIG1       -0.4570
      3 C          -1.3960    0.0210    0.0000 C.ar    1  LIG1        0.1716
      4 C          -1.3960    1.0210    0.0000 C.ar    1  LIG1        0.0429
      5 C          -0.4500    1.3330    0.0000 C.3     1  LIG1        0.1835
      6 O          -0.1420    2.2880    0.0000 O.3     1  LIG1       -0.2205
      7 C          -2.2630    1.5210    0.0000 C.ar    1  LIG1        0.0011
      8 C          -3.1250    1.0210    0.0000 C.ar    1  LIG1        0.0031
      9 C          -3.1250    0.0170    0.0000 C.ar    1  LIG1        0.0400
     10 C          -2.2630   -0.4830    0.0000 C.ar    1  LIG1        0.1722
     11 O          -2.2580   -1.4750    0.0000 O.3     1  LIG1       -0.4684
     12 C          -1.3960   -1.9750    0.0000 C.3     1  LIG1        0.2526
     13 C           0.7670   -0.2500    0.0000 C.2     1  LIG1        0.3669
     14 O           1.7630   -0.1000    0.0000 O.2     1  LIG1       -0.2455
     15 O           0.4210   -1.1880    0.0000 O.3     1  LIG1       -0.4457
     16 C          -0.5710   -1.3460    0.0000 C.3     1  LIG1        0.2087
     17 C          -0.9290   -2.2830    0.0000 C.3     1  LIG1        0.0513
     18 C           0.7210    1.3330    0.0000 C.2     1  LIG1        0.3669
     19 O           0.3080    2.2580    0.0000 O.2     1  LIG1       -0.2455
     20 O           1.7170    1.2420    0.0000 O.3     1  LIG1       -0.4457
     21 C           2.1290    0.3330    0.0000 C.3     1  LIG1        0.2087
     22 C           3.1210    0.2460    0.0000 C.3     1  LIG1        0.0513
     23 H          -1.1580    2.0460    0.0000 H       1  LIG1        0.0733
@<TRIPOS>BOND
     1     1     2    1
     2     1     5    1
     3     1    13    1
     4     1    18    1
     5     2     3    1
     6     3     4   ar
     7     3    10   ar
     8     4     5    1
     9     4     7   ar
    10     5     6    1
    11     5    23    1
    12     7     8   ar
    13     8     9   ar
    14     9    10   ar
    15    10    11    1
    16    11    12    1
    17    13    14    2
    18    13    15    1
    19    15    16    1
    20    16    17    1
    21    18    19    2
    22    18    20    1
    23    20    21    1
    24    21    22    1
