@<TRIPOS>MOLECULE
31339_ChemDiv_8014-9196
 16 17 0 0 0
SMALL
GASTEIGER
Energy = 0

@<TRIPOS>ATOM
      1 C           0.4080    0.2420    0.0000 C.ar    1  LIG1        0.1680
      2 O           1.2420   -0.2380    0.0000 O.3     1  LIG1       -0.4795
      3 C           2.0710    0.2420    0.0000 C.3     1  LIG1        0.1376
      4 C           2.0710    1.2000    0.0000 C.3     1  LIG1        0.0695
      5 C           0.4080    1.2000    0.0000 C.ar    1  LIG1        0.0183
      6 C          -0.4210    1.6790    0.0000 C.ar    1  LIG1       -0.0010
      7 C          -1.2460    1.2000    0.0000 C.ar    1  LIG1        0.0030
      8 C          -1.2460    0.2420    0.0000 C.ar    1  LIG1        0.0400
      9 C          -0.4210   -0.2380    0.0000 C.ar    1  LIG1        0.1724
     10 O          -0.4210   -1.1960    0.0000 O.3     1  LIG1       -0.4663
     11 C          -1.2460   -1.6750    0.0000 C.3     1  LIG1        0.2470
     12 C          -2.0790   -1.1960    0.0000 C.2     1  LIG1        0.0940
     13 O          -2.0790   -0.2380    0.0000 O.co2   1  LIG1       -0.5454
     14 O          -2.9080   -1.6750    0.0000 O.co2   1  LIG1       -0.5454
     15 C           2.9040    0.7210    0.0000 C.3     1  LIG1        0.0439
     16 C           2.0710   -0.7170    0.0000 C.3     1  LIG1        0.0439
@<TRIPOS>BOND
     1     1     2    1
     2     1     5   ar
     3     1     9   ar
     4     2     3    1
     5     3     4    1
     6     3    15    1
     7     3    16    1
     8     4     5    1
     9     5     6   ar
    10     6     7   ar
    11     7     8   ar
    12     8     9   ar
    13     9    10    1
    14    10    11    1
    15    11    12    1
    16    12    13   ar
    17    12    14   ar
