@<TRIPOS>MOLECULE
31331_ChemDiv_4850-0740
 16 17 0 0 0
SMALL
GASTEIGER
Energy = 0

@<TRIPOS>ATOM
      1 C           2.1040   -0.4710    0.0000 C.2     1  LIG1        0.4051
      2 N           1.2170    0.0040    0.0000 N.am    1  LIG1       -0.2406
      3 C           0.3920   -0.4710    0.0000 C.3     1  LIG1        0.1405
      4 C          -0.4330    0.0040    0.0000 C.3     1  LIG1        0.1901
      5 O          -1.3210   -0.4710    0.0000 O.3     1  LIG1       -0.4774
      6 C          -2.1460    0.0040    0.0000 C.ar    1  LIG1        0.1345
      7 C          -2.1460    0.9580    0.0000 C.ar    1  LIG1        0.0154
      8 C          -0.4330    0.9580    0.0000 C.3     1  LIG1        0.0747
      9 C          -2.9710    1.4290    0.0000 C.ar    1  LIG1       -0.0012
     10 C          -3.7630    0.9580    0.0000 C.ar    1  LIG1       -0.0001
     11 C          -3.7630    0.0040    0.0000 C.ar    1  LIG1        0.0031
     12 C          -2.9710   -0.4710    0.0000 C.ar    1  LIG1        0.0366
     13 C           1.2170    0.9580    0.0000 C.3     1  LIG1        0.1184
     14 O           2.1040   -1.4250    0.0000 O.2     1  LIG1       -0.2262
     15 O           2.9290    0.0040    0.0000 O.3     1  LIG1       -0.4304
     16 C           3.7580   -0.4710    0.0000 C.3     1  LIG1        0.2573
@<TRIPOS>BOND
     1     1     2   am
     2     1    14    2
     3     1    15    1
     4     2     3    1
     5     2    13    1
     6     3     4    1
     7     4     5    1
     8     4     8    1
     9     5     6    1
    10     6     7   ar
    11     6    12   ar
    12     7     8    1
    13     7     9   ar
    14     9    10   ar
    15    10    11   ar
    16    11    12   ar
    17    15    16    1
