@<TRIPOS>MOLECULE
31345_ChemDiv_8014-8910
 28 31 0 0 0
SMALL
GASTEIGER
Energy = 0

@<TRIPOS>ATOM
      1 C           0.6670   -1.2670    0.0000 C.3     1  LIG1        0.1895
      2 C           0.6670   -0.1710    0.0000 C.3     1  LIG1        0.0799
      3 C          -0.2290   -0.7380    0.0000 C.3     1  LIG1        0.0539
      4 C          -1.1380   -1.2460    0.0000 C.ar    1  LIG1        0.0141
      5 C          -1.1380   -2.2880    0.0000 C.ar    1  LIG1        0.1445
      6 O          -0.2290   -2.8330    0.0000 O.3     1  LIG1       -0.4241
      7 C           0.6670   -2.3210    0.0000 C.2     1  LIG1        0.3315
      8 O           1.5500   -2.8500    0.0000 O.2     1  LIG1       -0.2491
      9 C          -2.0130   -2.8000    0.0000 C.ar    1  LIG1        0.0378
     10 C          -2.9210   -2.2670    0.0000 C.ar    1  LIG1        0.0098
     11 C          -2.9210   -1.2250    0.0000 C.ar    1  LIG1        0.0345
     12 C          -2.0130   -0.7330    0.0000 C.ar    1  LIG1        0.0055
     13 BR         -3.7880   -0.6830    0.0000 Br      1  LIG1       -0.0490
     14 C           0.6670    0.8170    0.0000 C.2     1  LIG1        0.1736
     15 C          -0.1960    1.3080    0.0000 C.ar    1  LIG1        0.0347
     16 C          -0.1960    2.3580    0.0000 C.ar    1  LIG1        0.0033
     17 C          -1.0880    2.8540    0.0000 C.ar    1  LIG1        0.0068
     18 C          -1.9880    2.3380    0.0000 C.ar    1  LIG1        0.0346
     19 C          -1.9880    1.2920    0.0000 C.ar    1  LIG1        0.0068
     20 C          -1.0710    0.7960    0.0000 C.ar    1  LIG1        0.0033
     21 BR         -2.8460    2.8460    0.0000 Br      1  LIG1       -0.0490
     22 O           1.5420    1.3830    0.0000 O.2     1  LIG1       -0.2913
     23 C           1.4290    0.3040    0.0000 C.3     1  LIG1        0.0092
     24 C           1.5040   -0.8330    0.0000 C.2     1  LIG1        0.3270
     25 O           2.1250   -0.4790    0.0000 O.2     1  LIG1       -0.2495
     26 O           2.3040   -1.2290    0.0000 O.3     1  LIG1       -0.4481
     27 C           3.1290   -0.8130    0.0000 C.3     1  LIG1        0.2086
     28 C           3.7830   -1.2170    0.0000 C.3     1  LIG1        0.0513
@<TRIPOS>BOND
     1     1     2    1
     2     1     3    1
     3     1     7    1
     4     1    24    1
     5     2     3    1
     6     2    14    1
     7     2    23    1
     8     3     4    1
     9     4     5   ar
    10     4    12   ar
    11     5     6    1
    12     5     9   ar
    13     6     7    1
    14     7     8    2
    15     9    10   ar
    16    10    11   ar
    17    11    12   ar
    18    11    13    1
    19    14    15    1
    20    14    22    2
    21    15    16   ar
    22    15    20   ar
    23    16    17   ar
    24    17    18   ar
    25    18    19   ar
    26    18    21    1
    27    19    20   ar
    28    24    25    2
    29    24    26    1
    30    26    27    1
    31    27    28    1
