@<TRIPOS>MOLECULE
31340_ChemDiv_8016-8341
 24 27 0 0 0
SMALL
GASTEIGER
Energy = 0

@<TRIPOS>ATOM
      1 N           1.8290    0.8080    0.0000 N.ar    1  LIG1       -0.2808
      2 C           2.7380    1.2080    0.0000 C.ar    1  LIG1        0.2927
      3 S           3.4040    0.5080    0.0000 S.2     1  LIG1       -0.0260
      4 C           2.9380   -0.3630    0.0000 C.ar    1  LIG1        0.0497
      5 C           1.9420   -0.1670    0.0000 C.ar    1  LIG1        0.0695
      6 C           1.2920   -0.9040    0.0000 C.ar    1  LIG1        0.0178
      7 C           1.6290   -1.8420    0.0000 C.ar    1  LIG1        0.0015
      8 C           2.6250   -2.0500    0.0000 C.ar    1  LIG1        0.0006
      9 C           3.2670   -1.2920    0.0000 C.ar    1  LIG1        0.0081
     10 O           2.9670    2.2080    0.0000 O.2     1  LIG1       -0.2594
     11 C           0.9420    1.3000    0.0000 C.3     1  LIG1        0.1966
     12 C           0.1000    0.7880    0.0000 C.2     1  LIG1        0.2688
     13 N          -0.7710    1.2750    0.0000 N.am    1  LIG1       -0.1760
     14 C          -1.6710    0.7830    0.0000 C.ar    1  LIG1        0.0910
     15 C          -1.6710   -0.2000    0.0000 C.ar    1  LIG1        0.0965
     16 N          -0.8080   -0.6920    0.0000 N.ar    1  LIG1       -0.2425
     17 C          -0.8080   -1.7040    0.0000 C.ar    1  LIG1        0.0989
     18 C          -1.6710   -2.2040    0.0000 C.ar    1  LIG1        0.0207
     19 C          -2.5380   -1.7000    0.0000 C.ar    1  LIG1        0.0031
     20 C          -2.5380   -0.6920    0.0000 C.ar    1  LIG1        0.0190
     21 C          -3.4080   -0.2170    0.0000 C.ar    1  LIG1        0.0016
     22 C          -3.4080    0.8080    0.0000 C.ar    1  LIG1        0.0014
     23 C          -2.5210    1.3000    0.0000 C.ar    1  LIG1        0.0181
     24 O           0.1000   -0.2170    0.0000 O.2     1  LIG1       -0.2709
@<TRIPOS>BOND
     1     1     2   ar
     2     1     5   ar
     3     1    11    1
     4     2     3   ar
     5     2    10    2
     6     3     4   ar
     7     4     5   ar
     8     4     9   ar
     9     5     6   ar
    10     6     7   ar
    11     7     8   ar
    12     8     9   ar
    13    11    12    1
    14    12    13   am
    15    12    24    2
    16    13    14    1
    17    14    15   ar
    18    14    23   ar
    19    15    16   ar
    20    15    20   ar
    21    16    17   ar
    22    17    18   ar
    23    18    19   ar
    24    19    20   ar
    25    20    21   ar
    26    21    22   ar
    27    22    23   ar
