@<TRIPOS>MOLECULE
31349_ChemDiv_8015-1343
 29 33 0 0 0
SMALL
GASTEIGER
Energy = 0

@<TRIPOS>ATOM
      1 C          -0.0080   -0.4960    0.0000 C.3     1  LIG1        0.1518
      2 C          -0.0080    0.5000    0.0000 C.3     1  LIG1        0.0763
      3 C          -0.8750    0.0080    0.0000 C.3     1  LIG1        0.0502
      4 C          -1.7330   -0.4960    0.0000 C.ar    1  LIG1        0.0135
      5 C          -1.7330   -1.4920    0.0000 C.ar    1  LIG1        0.1444
      6 O          -0.8750   -1.9920    0.0000 O.3     1  LIG1       -0.4242
      7 C          -0.0080   -1.4920    0.0000 C.2     1  LIG1        0.3278
      8 O           0.8580   -1.9920    0.0000 O.2     1  LIG1       -0.2492
      9 C          -2.5960   -1.9920    0.0000 C.ar    1  LIG1        0.0373
     10 C          -3.4670   -1.4920    0.0000 C.ar    1  LIG1        0.0031
     11 C          -3.4670   -0.4960    0.0000 C.ar    1  LIG1       -0.0001
     12 C          -2.5960    0.0080    0.0000 C.ar    1  LIG1       -0.0010
     13 C          -2.5960    1.0130    0.0000 C.ar    1  LIG1       -0.0002
     14 C          -3.4670    1.5170    0.0000 C.ar    1  LIG1       -0.0000
     15 C          -4.3290    1.0130    0.0000 C.ar    1  LIG1       -0.0000
     16 C          -4.3290    0.0080    0.0000 C.ar    1  LIG1       -0.0000
     17 C           0.8580    1.0040    0.0000 C.2     1  LIG1        0.1735
     18 C           1.7210    0.5000    0.0000 C.ar    1  LIG1        0.0347
     19 C           2.5920    1.0040    0.0000 C.ar    1  LIG1        0.0025
     20 C           3.4580    0.5000    0.0000 C.ar    1  LIG1       -0.0042
     21 C           3.4580   -0.4960    0.0000 C.ar    1  LIG1       -0.0218
     22 C           2.5920   -1.0000    0.0000 C.ar    1  LIG1       -0.0042
     23 C           1.7210   -0.4960    0.0000 C.ar    1  LIG1        0.0025
     24 C           4.3250   -1.0000    0.0000 C.3     1  LIG1        0.0310
     25 O           0.8580    1.9960    0.0000 O.2     1  LIG1       -0.2913
     26 C          -0.0080    1.5000    0.0000 C.3     1  LIG1        0.0090
     27 C           0.8580   -1.0000    0.0000 C.2     1  LIG1        0.1611
     28 O           0.8580    0.0080    0.0000 O.2     1  LIG1       -0.2955
     29 C           1.7210   -1.4920    0.0000 C.3     1  LIG1        0.0728
@<TRIPOS>BOND
     1     1     2    1
     2     1     3    1
     3     1     7    1
     4     1    27    1
     5     2     3    1
     6     2    17    1
     7     2    26    1
     8     3     4    1
     9     4     5   ar
    10     4    12   ar
    11     5     6    1
    12     5     9   ar
    13     6     7    1
    14     7     8    2
    15     9    10   ar
    16    10    11   ar
    17    11    12   ar
    18    11    16   ar
    19    12    13   ar
    20    13    14   ar
    21    14    15   ar
    22    15    16   ar
    23    17    18    1
    24    17    25    2
    25    18    19   ar
    26    18    23   ar
    27    19    20   ar
    28    20    21   ar
    29    21    22   ar
    30    21    24    1
    31    22    23   ar
    32    27    28    2
    33    27    29    1
