@<TRIPOS>MOLECULE
31343_ChemDiv_8016-1898
 23 25 0 0 0
SMALL
GASTEIGER
Energy = 0

@<TRIPOS>ATOM
      1 C          -1.2830    1.0040    0.0000 C.ar    1  LIG1        0.1680
      2 O          -0.3210    0.6920    0.0000 O.3     1  LIG1       -0.4795
      3 C           0.2670    1.5040    0.0000 C.3     1  LIG1        0.1376
      4 C          -0.3210    2.3170    0.0000 C.3     1  LIG1        0.0695
      5 C          -1.2830    2.0040    0.0000 C.ar    1  LIG1        0.0183
      6 C          -2.1460    2.5040    0.0000 C.ar    1  LIG1       -0.0010
      7 C          -3.0080    2.0040    0.0000 C.ar    1  LIG1        0.0030
      8 C          -3.0080    1.0040    0.0000 C.ar    1  LIG1        0.0400
      9 C          -2.1460    0.5040    0.0000 C.ar    1  LIG1        0.1726
     10 O          -2.1460   -0.5000    0.0000 O.3     1  LIG1       -0.4625
     11 C          -1.2830   -0.9920    0.0000 C.3     1  LIG1        0.2917
     12 C          -1.2960   -1.9920    0.0000 C.2     1  LIG1        0.2914
     13 N          -0.4250   -2.5000    0.0000 N.am    1  LIG1       -0.1572
     14 C           0.4290   -1.9920    0.0000 C.ar    1  LIG1        0.1546
     15 N           1.3040   -2.4790    0.0000 N.ar    1  LIG1       -0.2268
     16 C           2.1540   -1.9750    0.0000 C.ar    1  LIG1        0.1070
     17 C           2.1420   -0.9790    0.0000 C.ar    1  LIG1        0.0538
     18 BR          3.0040   -0.4670    0.0000 Br      1  LIG1       -0.0474
     19 C           1.2790   -0.4880    0.0000 C.ar    1  LIG1        0.0112
     20 C           0.4170   -0.9920    0.0000 C.ar    1  LIG1        0.0367
     21 O          -2.1580   -2.4920    0.0000 O.2     1  LIG1       -0.2689
     22 C           0.9790    2.2170    0.0000 C.3     1  LIG1        0.0439
     23 C           0.9790    0.8040    0.0000 C.3     1  LIG1        0.0439
@<TRIPOS>BOND
     1     1     2    1
     2     1     5   ar
     3     1     9   ar
     4     2     3    1
     5     3     4    1
     6     3    22    1
     7     3    23    1
     8     4     5    1
     9     5     6   ar
    10     6     7   ar
    11     7     8   ar
    12     8     9   ar
    13     9    10    1
    14    10    11    1
    15    11    12    1
    16    12    13   am
    17    12    21    2
    18    13    14    1
    19    14    15   ar
    20    14    20   ar
    21    15    16   ar
    22    16    17   ar
    23    17    18    1
    24    17    19   ar
    25    19    20   ar
