@<TRIPOS>MOLECULE
31341_ChemDiv_8016-1897
 26 29 0 0 0
SMALL
GASTEIGER
Energy = 0

@<TRIPOS>ATOM
      1 C          -1.7210    1.0080    0.0000 C.ar    1  LIG1        0.1680
      2 O          -0.7630    0.6960    0.0000 O.3     1  LIG1       -0.4795
      3 C          -0.1710    1.5080    0.0000 C.3     1  LIG1        0.1376
      4 C          -0.7630    2.3210    0.0000 C.3     1  LIG1        0.0695
      5 C          -1.7210    2.0080    0.0000 C.ar    1  LIG1        0.0183
      6 C          -2.5830    2.5080    0.0000 C.ar    1  LIG1       -0.0010
      7 C          -3.4500    2.0080    0.0000 C.ar    1  LIG1        0.0030
      8 C          -3.4500    1.0080    0.0000 C.ar    1  LIG1        0.0400
      9 C          -2.5830    0.5080    0.0000 C.ar    1  LIG1        0.1726
     10 O          -2.5830   -0.4960    0.0000 O.3     1  LIG1       -0.4625
     11 C          -1.7250   -0.9960    0.0000 C.3     1  LIG1        0.2916
     12 C          -1.7330   -1.9960    0.0000 C.2     1  LIG1        0.2901
     13 N          -0.8710   -2.5040    0.0000 N.am    1  LIG1       -0.1745
     14 C          -0.0080   -1.9960    0.0000 C.ar    1  LIG1        0.0926
     15 C           0.8580   -2.4830    0.0000 C.ar    1  LIG1        0.0197
     16 C           1.7210   -1.9710    0.0000 C.ar    1  LIG1        0.0190
     17 C           1.7080   -0.9790    0.0000 C.ar    1  LIG1        0.0814
     18 N           0.8330   -0.4830    0.0000 N.ar    1  LIG1       -0.2425
     19 C          -0.0250   -1.0040    0.0000 C.ar    1  LIG1        0.1153
     20 C           2.5670   -0.4710    0.0000 C.ar    1  LIG1        0.0191
     21 C           3.4330   -0.9580    0.0000 C.ar    1  LIG1        0.0015
     22 C           3.4460   -1.9580    0.0000 C.ar    1  LIG1        0.0001
     23 C           2.5830   -2.4670    0.0000 C.ar    1  LIG1        0.0015
     24 O          -2.6000   -2.4960    0.0000 O.2     1  LIG1       -0.2689
     25 C           0.5420    0.8080    0.0000 C.3     1  LIG1        0.0439
     26 C           0.5420    2.2210    0.0000 C.3     1  LIG1        0.0439
@<TRIPOS>BOND
     1     1     2    1
     2     1     5   ar
     3     1     9   ar
     4     2     3    1
     5     3     4    1
     6     3    25    1
     7     3    26    1
     8     4     5    1
     9     5     6   ar
    10     6     7   ar
    11     7     8   ar
    12     8     9   ar
    13     9    10    1
    14    10    11    1
    15    11    12    1
    16    12    13   am
    17    12    24    2
    18    13    14    1
    19    14    15   ar
    20    14    19   ar
    21    15    16   ar
    22    16    17   ar
    23    16    23   ar
    24    17    18   ar
    25    17    20   ar
    26    18    19   ar
    27    20    21   ar
    28    21    22   ar
    29    22    23   ar
