@<TRIPOS>MOLECULE
31342_ChemDiv_C489-0246
 23 25 0 0 0
SMALL
GASTEIGER
Energy = 0

@<TRIPOS>ATOM
      1 C          -1.4130   -2.7000    0.0000 C.ar    1  LIG1        0.2923
      2 N          -2.0040   -1.8960    0.0000 N.ar    1  LIG1       -0.2893
      3 C          -2.9540   -2.2210    0.0000 C.ar    1  LIG1        0.0690
      4 C          -2.9380   -3.2210    0.0000 C.ar    1  LIG1        0.0497
      5 S          -2.0290   -3.5330    0.0000 S.2     1  LIG1       -0.0260
      6 C          -3.8040   -3.7380    0.0000 C.ar    1  LIG1        0.0081
      7 C          -4.6790   -3.2420    0.0000 C.ar    1  LIG1        0.0006
      8 C          -4.6790   -2.2420    0.0000 C.ar    1  LIG1        0.0015
      9 C          -3.8130   -1.7330    0.0000 C.ar    1  LIG1        0.0178
     10 C          -1.7130   -0.9500    0.0000 C.3     1  LIG1        0.1192
     11 C          -0.7460   -0.7250    0.0000 C.3     1  LIG1        0.1113
     12 C          -0.4500    0.2330    0.0000 C.2     1  LIG1        0.2434
     13 O          -1.1290    0.9630    0.0000 O.2     1  LIG1       -0.2733
     14 N           0.5210    0.4580    0.0000 N.am    1  LIG1       -0.2053
     15 C           0.8080    1.4040    0.0000 C.3     1  LIG1        0.1171
     16 C           1.7830    1.6170    0.0000 C.3     1  LIG1        0.0479
     17 C           2.0830    2.5790    0.0000 C.3     1  LIG1        0.1095
     18 N           3.0630    2.8080    0.0000 N.ar    1  LIG1       -0.3078
     19 C           3.8080    2.1500    0.0000 C.ar    1  LIG1        0.1786
     20 N           4.6750    2.6750    0.0000 N.ar    1  LIG1       -0.2223
     21 C           4.4500    3.6460    0.0000 C.ar    1  LIG1        0.1193
     22 C           3.4460    3.7420    0.0000 C.ar    1  LIG1        0.0980
     23 O          -0.4130   -2.6830    0.0000 O.2     1  LIG1       -0.2594
@<TRIPOS>BOND
     1     1     2   ar
     2     1     5   ar
     3     1    23    2
     4     2     3   ar
     5     2    10    1
     6     3     4   ar
     7     3     9   ar
     8     4     5   ar
     9     4     6   ar
    10     6     7   ar
    11     7     8   ar
    12     8     9   ar
    13    10    11    1
    14    11    12    1
    15    12    13    2
    16    12    14   am
    17    14    15    1
    18    15    16    1
    19    16    17    1
    20    17    18    1
    21    18    19   ar
    22    18    22   ar
    23    19    20   ar
    24    20    21   ar
    25    21    22   ar
