@<TRIPOS>MOLECULE
31344_ChemDiv_C489-0276
 24 26 0 0 0
SMALL
GASTEIGER
Energy = 0

@<TRIPOS>ATOM
      1 C          -0.9880   -1.6460    0.0000 C.ar    1  LIG1        0.2923
      2 N          -1.5830   -0.8540    0.0000 N.ar    1  LIG1       -0.2893
      3 C          -2.5330   -1.1670    0.0000 C.ar    1  LIG1        0.0690
      4 C          -2.5210   -2.1670    0.0000 C.ar    1  LIG1        0.0497
      5 S          -1.6080   -2.4790    0.0000 S.2     1  LIG1       -0.0260
      6 C          -3.3830   -2.6830    0.0000 C.ar    1  LIG1        0.0081
      7 C          -4.2630   -2.1920    0.0000 C.ar    1  LIG1        0.0006
      8 C          -4.2630   -1.1880    0.0000 C.ar    1  LIG1        0.0015
      9 C          -3.4000   -0.6880    0.0000 C.ar    1  LIG1        0.0178
     10 C          -1.2920    0.1040    0.0000 C.3     1  LIG1        0.1191
     11 C          -0.3330    0.3330    0.0000 C.3     1  LIG1        0.1101
     12 C          -0.0330    1.2830    0.0000 C.2     1  LIG1        0.2313
     13 N           0.9380    1.5130    0.0000 N.am    1  LIG1       -0.2586
     14 C           1.6330    0.7710    0.0000 C.ar    1  LIG1        0.0535
     15 C           2.6040    1.0130    0.0000 C.ar    1  LIG1        0.0106
     16 C           3.2920    0.2830    0.0000 C.ar    1  LIG1       -0.0206
     17 C           3.0000   -0.6880    0.0000 C.ar    1  LIG1       -0.0042
     18 C           2.0290   -0.9130    0.0000 C.ar    1  LIG1        0.0010
     19 C           1.3380   -0.1830    0.0000 C.ar    1  LIG1        0.0149
     20 C           4.2580    0.5250    0.0000 C.3     1  LIG1        0.0311
     21 C           1.2290    2.4630    0.0000 C.3     1  LIG1        0.0982
     22 C           2.2000    2.6880    0.0000 C.3     1  LIG1        0.0237
     23 O          -0.7130    2.0170    0.0000 O.2     1  LIG1       -0.2745
     24 O           0.0080   -1.6290    0.0000 O.2     1  LIG1       -0.2594
@<TRIPOS>BOND
     1     1     2   ar
     2     1     5   ar
     3     1    24    2
     4     2     3   ar
     5     2    10    1
     6     3     4   ar
     7     3     9   ar
     8     4     5   ar
     9     4     6   ar
    10     6     7   ar
    11     7     8   ar
    12     8     9   ar
    13    10    11    1
    14    11    12    1
    15    12    13   am
    16    12    23    2
    17    13    14    1
    18    13    21    1
    19    14    15   ar
    20    14    19   ar
    21    15    16   ar
    22    16    17   ar
    23    16    20    1
    24    17    18   ar
    25    18    19   ar
    26    21    22    1
