@<TRIPOS>MOLECULE
31353_ChemDiv_4964-4599
 21 25 0 0 0
SMALL
GASTEIGER
Energy = 0

@<TRIPOS>ATOM
      1 C          -1.3710   -0.8420    0.0000 C.3     1  LIG1        0.0977
      2 N          -0.5080   -1.3460    0.0000 N.4     1  LIG1        0.4428
      3 C           0.7210   -1.4290    0.0000 C.3     1  LIG1        0.2278
      4 C           1.5500   -0.9380    0.0000 C.ar    1  LIG1        0.0434
      5 C           1.5500    0.0500    0.0000 C.ar    1  LIG1        0.0418
      6 C           2.4080    0.5420    0.0000 C.ar    1  LIG1        0.1763
      7 C           3.2580    0.0500    0.0000 C.ar    1  LIG1        0.1764
      8 O           3.9920    0.7250    0.0000 O.3     1  LIG1       -0.4346
      9 C           3.5790    1.5750    0.0000 C.3     1  LIG1        0.4294
     10 O           2.6290    1.5130    0.0000 O.3     1  LIG1       -0.4346
     11 C           3.2580   -0.9380    0.0000 C.ar    1  LIG1        0.0401
     12 C           2.4080   -1.4290    0.0000 C.ar    1  LIG1        0.0050
     13 C          -1.3710    0.1380    0.0000 C.3     1  LIG1        0.0568
     14 C          -2.3210    0.4290    0.0000 C.3     1  LIG1        0.0057
     15 C          -3.2880    0.0750    0.0000 C.3     1  LIG1        0.0004
     16 C          -3.2880   -0.7630    0.0000 C.3     1  LIG1        0.0057
     17 C          -2.2080   -1.0790    0.0000 C.3     1  LIG1        0.0568
     18 C          -3.9960   -1.5710    0.0000 C.3     1  LIG1        0.0004
     19 C          -3.1250   -1.2170    0.0000 C.3     1  LIG1        0.0057
     20 C          -2.0960   -1.5710    0.0000 C.3     1  LIG1        0.0568
     21 C          -3.1250   -0.2420    0.0000 C.3     1  LIG1        0.0004
@<TRIPOS>BOND
     1     1     2    1
     2     1    13    1
     3     1    17    1
     4     1    20    1
     5     2     3    1
     6     3     4    1
     7     4     5   ar
     8     4    12   ar
     9     5     6   ar
    10     6     7   ar
    11     6    10    1
    12     7     8    1
    13     7    11   ar
    14     8     9    1
    15     9    10    1
    16    11    12   ar
    17    13    14    1
    18    14    15    1
    19    14    21    1
    20    15    16    1
    21    16    17    1
    22    16    18    1
    23    18    19    1
    24    19    20    1
    25    19    21    1
