@<TRIPOS>MOLECULE
31351_ChemDiv_4953-2094
 32 37 0 0 0
SMALL
GASTEIGER
Energy = 0

@<TRIPOS>ATOM
      1 N          -3.1330   -0.4880    0.0000 N.am    1  LIG1       -0.2208
      2 C          -2.3080   -0.9580    0.0000 C.2     1  LIG1        0.3151
      3 N          -1.4040   -0.4330    0.0000 N.am    1  LIG1       -0.2515
      4 C          -1.4040    0.6250    0.0000 C.3     1  LIG1        0.1578
      5 C          -0.5000    1.1420    0.0000 C.3     1  LIG1        0.1610
      6 N           0.4080    0.6080    0.0000 N.4     1  LIG1        0.3834
      7 C           1.3080    1.1170    0.0000 C.3     1  LIG1        0.1664
      8 C           2.2080    0.5960    0.0000 C.ar    1  LIG1        0.0376
      9 C           3.1170    1.1000    0.0000 C.ar    1  LIG1        0.0416
     10 C           4.0130    0.5880    0.0000 C.ar    1  LIG1        0.1763
     11 C           4.0000   -0.4500    0.0000 C.ar    1  LIG1        0.1764
     12 O           4.9750   -0.7830    0.0000 O.3     1  LIG1       -0.4346
     13 C           5.6040    0.0420    0.0000 C.3     1  LIG1        0.4294
     14 O           4.9880    0.9210    0.0000 O.3     1  LIG1       -0.4346
     15 C           3.0920   -0.9630    0.0000 C.ar    1  LIG1        0.0401
     16 C           2.1920   -0.4500    0.0000 C.ar    1  LIG1        0.0048
     17 C           0.4080   -0.4330    0.0000 C.3     1  LIG1        0.1610
     18 C          -0.5170   -0.9580    0.0000 C.3     1  LIG1        0.1578
     19 O          -2.3250   -2.0040    0.0000 O.2     1  LIG1       -0.2516
     20 C          -3.9500   -0.9580    0.0000 C.ar    1  LIG1        0.0655
     21 C          -4.7710   -0.4630    0.0000 C.ar    1  LIG1        0.0435
     22 S          -4.7710    0.4920    0.0000 S.3     1  LIG1       -0.0844
     23 C          -3.9500    0.9630    0.0000 C.ar    1  LIG1        0.0435
     24 C          -3.1250    0.4670    0.0000 C.ar    1  LIG1        0.0655
     25 C          -2.3080    0.9380    0.0000 C.ar    1  LIG1        0.0158
     26 C          -2.3000    1.8790    0.0000 C.ar    1  LIG1        0.0013
     27 C          -3.1250    2.3750    0.0000 C.ar    1  LIG1        0.0006
     28 C          -3.9330    1.9040    0.0000 C.ar    1  LIG1        0.0077
     29 C          -5.5960   -0.9330    0.0000 C.ar    1  LIG1        0.0077
     30 C          -5.6080   -1.8880    0.0000 C.ar    1  LIG1        0.0006
     31 C          -4.7830   -2.3710    0.0000 C.ar    1  LIG1        0.0013
     32 C          -3.9580   -1.9000    0.0000 C.ar    1  LIG1        0.0158
@<TRIPOS>BOND
     1     1     2   am
     2     1    20    1
     3     1    24    1
     4     2     3   am
     5     2    19    2
     6     3     4    1
     7     3    18    1
     8     4     5    1
     9     5     6    1
    10     6     7    1
    11     6    17    1
    12     7     8    1
    13     8     9   ar
    14     8    16   ar
    15     9    10   ar
    16    10    11   ar
    17    10    14    1
    18    11    12    1
    19    11    15   ar
    20    12    13    1
    21    13    14    1
    22    15    16   ar
    23    17    18    1
    24    20    21   ar
    25    20    32   ar
    26    21    22    1
    27    21    29   ar
    28    22    23    1
    29    23    24   ar
    30    23    28   ar
    31    24    25   ar
    32    25    26   ar
    33    26    27   ar
    34    27    28   ar
    35    29    30   ar
    36    30    31   ar
    37    31    32   ar
