@<TRIPOS>MOLECULE
31365_ChemDiv_8016-1918
 24 26 0 0 0
SMALL
GASTEIGER
Energy = 0

@<TRIPOS>ATOM
      1 C          -1.2960    1.0040    0.0000 C.ar    1  LIG1        0.1680
      2 O          -0.3380    0.6960    0.0000 O.3     1  LIG1       -0.4795
      3 C           0.2540    1.5080    0.0000 C.3     1  LIG1        0.1376
      4 C          -0.3380    2.3210    0.0000 C.3     1  LIG1        0.0695
      5 C          -1.2960    2.0170    0.0000 C.ar    1  LIG1        0.0183
      6 C          -2.1580    2.5040    0.0000 C.ar    1  LIG1       -0.0010
      7 C          -3.0210    2.0040    0.0000 C.ar    1  LIG1        0.0030
      8 C          -3.0210    1.0040    0.0000 C.ar    1  LIG1        0.0400
      9 C          -2.1580    0.5080    0.0000 C.ar    1  LIG1        0.1726
     10 O          -2.1580   -0.4960    0.0000 O.3     1  LIG1       -0.4625
     11 C          -1.3000   -0.9920    0.0000 C.3     1  LIG1        0.2916
     12 C          -1.3080   -1.9960    0.0000 C.2     1  LIG1        0.2901
     13 N          -0.4460   -2.5000    0.0000 N.am    1  LIG1       -0.1761
     14 C           0.4170   -1.9960    0.0000 C.ar    1  LIG1        0.0733
     15 C           1.2880   -2.4830    0.0000 C.ar    1  LIG1        0.0146
     16 C           2.1420   -1.9710    0.0000 C.ar    1  LIG1        0.0069
     17 C           2.1290   -0.9670    0.0000 C.ar    1  LIG1        0.1362
     18 C           1.2540   -0.4790    0.0000 C.ar    1  LIG1        0.0306
     19 C           0.4040   -0.9920    0.0000 C.ar    1  LIG1        0.0189
     20 F           2.9920   -0.4630    0.0000 F       1  LIG1       -0.2045
     21 C           3.0170   -2.4670    0.0000 C.3     1  LIG1        0.0334
     22 O          -2.1710   -2.4920    0.0000 O.2     1  LIG1       -0.2689
     23 C           0.9630    2.2170    0.0000 C.3     1  LIG1        0.0439
     24 C           0.9630    0.8040    0.0000 C.3     1  LIG1        0.0439
@<TRIPOS>BOND
     1     1     2    1
     2     1     5   ar
     3     1     9   ar
     4     2     3    1
     5     3     4    1
     6     3    23    1
     7     3    24    1
     8     4     5    1
     9     5     6   ar
    10     6     7   ar
    11     7     8   ar
    12     8     9   ar
    13     9    10    1
    14    10    11    1
    15    11    12    1
    16    12    13   am
    17    12    22    2
    18    13    14    1
    19    14    15   ar
    20    14    19   ar
    21    15    16   ar
    22    16    17   ar
    23    16    21    1
    24    17    18   ar
    25    17    20    1
    26    18    19   ar
