@<TRIPOS>MOLECULE
31367_ChemDiv_8016-1919
 27 29 0 0 0
SMALL
GASTEIGER
Energy = 0

@<TRIPOS>ATOM
      1 C          -2.5830    1.0080    0.0000 C.ar    1  LIG1        0.1680
      2 O          -1.6330    0.6960    0.0000 O.3     1  LIG1       -0.4795
      3 C          -1.0380    1.5080    0.0000 C.3     1  LIG1        0.1376
      4 C          -1.6330    2.3210    0.0000 C.3     1  LIG1        0.0695
      5 C          -2.5830    2.0170    0.0000 C.ar    1  LIG1        0.0183
      6 C          -3.4500    2.5080    0.0000 C.ar    1  LIG1       -0.0010
      7 C          -4.3080    2.0080    0.0000 C.ar    1  LIG1        0.0030
      8 C          -4.3130    1.0080    0.0000 C.ar    1  LIG1        0.0400
      9 C          -3.4460    0.5080    0.0000 C.ar    1  LIG1        0.1726
     10 O          -3.4460   -0.4960    0.0000 O.3     1  LIG1       -0.4625
     11 C          -2.5960   -0.9960    0.0000 C.3     1  LIG1        0.2916
     12 C          -2.5960   -1.9960    0.0000 C.2     1  LIG1        0.2901
     13 N          -1.7330   -2.5040    0.0000 N.am    1  LIG1       -0.1761
     14 C          -0.8750   -1.9920    0.0000 C.ar    1  LIG1        0.0737
     15 C          -0.8880   -0.9960    0.0000 C.ar    1  LIG1        0.0197
     16 C          -0.0290   -0.4830    0.0000 C.ar    1  LIG1        0.0383
     17 C           0.8460   -0.9790    0.0000 C.ar    1  LIG1        0.1394
     18 O           1.7040   -0.4670    0.0000 O.3     1  LIG1       -0.4655
     19 C           2.5790   -0.9460    0.0000 C.3     1  LIG1        0.2929
     20 C           3.4420   -0.4420    0.0000 C.2     1  LIG1        0.3052
     21 O           3.4290    0.5630    0.0000 O.2     1  LIG1       -0.2676
     22 N           4.3080   -0.9290    0.0000 N.am    1  LIG1       -0.0845
     23 C           0.8580   -1.9790    0.0000 C.ar    1  LIG1        0.0383
     24 C           0.0040   -2.4830    0.0000 C.ar    1  LIG1        0.0197
     25 O          -3.4630   -2.4960    0.0000 O.2     1  LIG1       -0.2689
     26 C          -0.3330    2.2210    0.0000 C.3     1  LIG1        0.0439
     27 C          -0.3330    0.8080    0.0000 C.3     1  LIG1        0.0439
@<TRIPOS>BOND
     1     1     2    1
     2     1     5   ar
     3     1     9   ar
     4     2     3    1
     5     3     4    1
     6     3    26    1
     7     3    27    1
     8     4     5    1
     9     5     6   ar
    10     6     7   ar
    11     7     8   ar
    12     8     9   ar
    13     9    10    1
    14    10    11    1
    15    11    12    1
    16    12    13   am
    17    12    25    2
    18    13    14    1
    19    14    15   ar
    20    14    24   ar
    21    15    16   ar
    22    16    17   ar
    23    17    18    1
    24    17    23   ar
    25    18    19    1
    26    19    20    1
    27    20    21    2
    28    20    22   am
    29    23    24   ar
