@<TRIPOS>MOLECULE
31362_ChemDiv_C489-0381
 24 26 0 0 0
SMALL
GASTEIGER
Energy = 0

@<TRIPOS>ATOM
      1 C          -0.4170   -3.3420    0.0000 C.ar    1  LIG1        0.2923
      2 N          -1.0130   -2.5420    0.0000 N.ar    1  LIG1       -0.2893
      3 C          -1.9580   -2.8630    0.0000 C.ar    1  LIG1        0.0690
      4 C          -1.9420   -3.8630    0.0000 C.ar    1  LIG1        0.0497
      5 S          -1.0380   -4.1750    0.0000 S.2     1  LIG1       -0.0260
      6 C          -2.8040   -4.3750    0.0000 C.ar    1  LIG1        0.0081
      7 C          -3.6830   -3.8880    0.0000 C.ar    1  LIG1        0.0006
      8 C          -3.6830   -2.8880    0.0000 C.ar    1  LIG1        0.0015
      9 C          -2.8210   -2.3750    0.0000 C.ar    1  LIG1        0.0178
     10 C          -0.7250   -1.5960    0.0000 C.3     1  LIG1        0.1192
     11 C           0.2460   -1.3710    0.0000 C.3     1  LIG1        0.1117
     12 C           0.5460   -0.4130    0.0000 C.2     1  LIG1        0.2475
     13 N           1.5210   -0.1830    0.0000 N.am    1  LIG1       -0.1792
     14 C           1.8130    0.7670    0.0000 C.ar    1  LIG1        0.0734
     15 C           1.1330    1.4960    0.0000 C.ar    1  LIG1        0.0167
     16 C           1.4330    2.4670    0.0000 C.ar    1  LIG1        0.0060
     17 C           2.4040    2.6790    0.0000 C.ar    1  LIG1        0.0567
     18 C           2.7040    3.6330    0.0000 C.2     1  LIG1        0.2842
     19 O           2.0250    4.3750    0.0000 O.2     1  LIG1       -0.2667
     20 N           3.6790    3.8460    0.0000 N.am    1  LIG1       -0.0837
     21 C           3.0830    1.9460    0.0000 C.ar    1  LIG1        0.0060
     22 C           2.7920    0.9790    0.0000 C.ar    1  LIG1        0.0167
     23 O          -0.1330    0.3210    0.0000 O.2     1  LIG1       -0.2729
     24 O           0.5880   -3.3290    0.0000 O.2     1  LIG1       -0.2594
@<TRIPOS>BOND
     1     1     2   ar
     2     1     5   ar
     3     1    24    2
     4     2     3   ar
     5     2    10    1
     6     3     4   ar
     7     3     9   ar
     8     4     5   ar
     9     4     6   ar
    10     6     7   ar
    11     7     8   ar
    12     8     9   ar
    13    10    11    1
    14    11    12    1
    15    12    13   am
    16    12    23    2
    17    13    14    1
    18    14    15   ar
    19    14    22   ar
    20    15    16   ar
    21    16    17   ar
    22    17    18    1
    23    17    21   ar
    24    18    19    2
    25    18    20   am
    26    21    22   ar
