@<TRIPOS>MOLECULE
31366_ChemDiv_N013-0012
 15 16 0 0 0
SMALL
GASTEIGER
Energy = 0

@<TRIPOS>ATOM
      1 C           0.5920   -1.3170    0.0000 C.ar    1  LIG1        0.2923
      2 N           0.0380   -0.5170    0.0000 N.ar    1  LIG1       -0.2894
      3 C          -0.9420   -0.8130    0.0000 C.ar    1  LIG1        0.0690
      4 C          -0.9420   -1.8170    0.0000 C.ar    1  LIG1        0.0497
      5 S           0.0380   -2.1210    0.0000 S.2     1  LIG1       -0.0260
      6 C          -1.8130   -2.3210    0.0000 C.ar    1  LIG1        0.0081
      7 C          -2.6710   -1.8170    0.0000 C.ar    1  LIG1        0.0006
      8 C          -2.6710   -0.8130    0.0000 C.ar    1  LIG1        0.0015
      9 C          -1.8130   -0.3040    0.0000 C.ar    1  LIG1        0.0178
     10 C           0.3790    0.4170    0.0000 C.3     1  LIG1        0.1155
     11 C           1.3460    0.5790    0.0000 C.3     1  LIG1        0.0663
     12 C           1.6960    1.5130    0.0000 C.2     1  LIG1        0.0523
     13 O           1.0540    2.3250    0.0000 O.co2   1  LIG1       -0.5491
     14 O           2.6670    1.5880    0.0000 O.co2   1  LIG1       -0.5491
     15 O           1.5880   -1.3170    0.0000 O.2     1  LIG1       -0.2594
@<TRIPOS>BOND
     1     1     2   ar
     2     1     5   ar
     3     1    15    2
     4     2     3   ar
     5     2    10    1
     6     3     4   ar
     7     3     9   ar
     8     4     5   ar
     9     4     6   ar
    10     6     7   ar
    11     7     8   ar
    12     8     9   ar
    13    10    11    1
    14    11    12    1
    15    12    13   ar
    16    12    14   ar
