@<TRIPOS>MOLECULE
31363_ChemDiv_8016-1917
 26 28 0 0 0
SMALL
GASTEIGER
Energy = 0

@<TRIPOS>ATOM
      1 C          -2.5960    1.7210    0.0000 C.ar    1  LIG1        0.1680
      2 O          -1.6420    1.4170    0.0000 O.3     1  LIG1       -0.4795
      3 C          -1.0460    2.2290    0.0000 C.3     1  LIG1        0.1376
      4 C          -1.6420    3.0420    0.0000 C.3     1  LIG1        0.0695
      5 C          -2.5960    2.7330    0.0000 C.ar    1  LIG1        0.0183
      6 C          -3.4670    3.2290    0.0000 C.ar    1  LIG1       -0.0010
      7 C          -4.3290    2.7290    0.0000 C.ar    1  LIG1        0.0030
      8 C          -4.3290    1.7210    0.0000 C.ar    1  LIG1        0.0400
      9 C          -3.4670    1.2290    0.0000 C.ar    1  LIG1        0.1726
     10 O          -3.4580    0.2290    0.0000 O.3     1  LIG1       -0.4625
     11 C          -2.6040   -0.2670    0.0000 C.3     1  LIG1        0.2913
     12 C          -2.6080   -1.2670    0.0000 C.2     1  LIG1        0.2860
     13 O          -3.4790   -1.7670    0.0000 O.2     1  LIG1       -0.2693
     14 N          -1.7460   -1.7750    0.0000 N.am    1  LIG1       -0.1983
     15 C          -0.8830   -1.2630    0.0000 C.3     1  LIG1        0.1624
     16 C          -0.0210   -1.7540    0.0000 C.3     1  LIG1        0.2287
     17 O           0.8420   -1.2420    0.0000 O.3     1  LIG1       -0.4735
     18 C           1.7130   -1.7380    0.0000 C.ar    1  LIG1        0.1388
     19 C           2.5670   -1.2250    0.0000 C.ar    1  LIG1        0.0392
     20 C           3.4290   -1.7040    0.0000 C.ar    1  LIG1        0.0327
     21 C           3.4500   -2.7130    0.0000 C.ar    1  LIG1        0.1403
     22 F           4.3250   -3.2040    0.0000 F       1  LIG1       -0.2042
     23 C           2.5880   -3.2250    0.0000 C.ar    1  LIG1        0.0327
     24 C           1.7170   -2.7380    0.0000 C.ar    1  LIG1        0.0392
     25 C          -0.3420    1.5290    0.0000 C.3     1  LIG1        0.0439
     26 C          -0.3420    2.9420    0.0000 C.3     1  LIG1        0.0439
@<TRIPOS>BOND
     1     1     2    1
     2     1     5   ar
     3     1     9   ar
     4     2     3    1
     5     3     4    1
     6     3    25    1
     7     3    26    1
     8     4     5    1
     9     5     6   ar
    10     6     7   ar
    11     7     8   ar
    12     8     9   ar
    13     9    10    1
    14    10    11    1
    15    11    12    1
    16    12    13    2
    17    12    14   am
    18    14    15    1
    19    15    16    1
    20    16    17    1
    21    17    18    1
    22    18    19   ar
    23    18    24   ar
    24    19    20   ar
    25    20    21   ar
    26    21    22    1
    27    21    23   ar
    28    23    24   ar
