@<TRIPOS>MOLECULE
31364_ChemDiv_C489-0382
 28 31 0 0 0
SMALL
GASTEIGER
Energy = 0

@<TRIPOS>ATOM
      1 C          -1.3920   -3.6630    0.0000 C.ar    1  LIG1        0.2923
      2 N          -1.9880   -2.8670    0.0000 N.ar    1  LIG1       -0.2893
      3 C          -2.9290   -3.1790    0.0000 C.ar    1  LIG1        0.0690
      4 C          -2.9210   -4.1830    0.0000 C.ar    1  LIG1        0.0497
      5 S          -2.0170   -4.5000    0.0000 S.2     1  LIG1       -0.0260
      6 C          -3.7790   -4.7000    0.0000 C.ar    1  LIG1        0.0081
      7 C          -4.6630   -4.2130    0.0000 C.ar    1  LIG1        0.0006
      8 C          -4.6630   -3.2080    0.0000 C.ar    1  LIG1        0.0015
      9 C          -3.7960   -2.7000    0.0000 C.ar    1  LIG1        0.0178
     10 C          -1.6960   -1.9210    0.0000 C.3     1  LIG1        0.1192
     11 C          -0.7250   -1.6920    0.0000 C.3     1  LIG1        0.1117
     12 C          -0.4250   -0.7380    0.0000 C.2     1  LIG1        0.2475
     13 N           0.5420   -0.5130    0.0000 N.am    1  LIG1       -0.1792
     14 C           0.8380    0.4380    0.0000 C.ar    1  LIG1        0.0734
     15 C           1.8210    0.6540    0.0000 C.ar    1  LIG1        0.0179
     16 C           2.1040    1.6210    0.0000 C.ar    1  LIG1        0.0178
     17 C           1.4250    2.3540    0.0000 C.ar    1  LIG1        0.0706
     18 N           1.7330    3.3080    0.0000 N.pl3   1  LIG1       -0.2125
     19 C           2.7000    3.5210    0.0000 C.ar    1  LIG1        0.0705
     20 C           3.3750    2.7920    0.0000 C.ar    1  LIG1        0.0165
     21 C           4.3500    3.0040    0.0000 C.ar    1  LIG1        0.0013
     22 C           4.6580    3.9670    0.0000 C.ar    1  LIG1        0.0001
     23 C           3.9710    4.7000    0.0000 C.ar    1  LIG1        0.0013
     24 C           3.0000    4.4710    0.0000 C.ar    1  LIG1        0.0165
     25 C           0.4580    2.1380    0.0000 C.ar    1  LIG1        0.0178
     26 C           0.1540    1.1710    0.0000 C.ar    1  LIG1        0.0179
     27 O          -1.1040   -0.0040    0.0000 O.2     1  LIG1       -0.2729
     28 O          -0.3880   -3.6460    0.0000 O.2     1  LIG1       -0.2594
@<TRIPOS>BOND
     1     1     2   ar
     2     1     5   ar
     3     1    28    2
     4     2     3   ar
     5     2    10    1
     6     3     4   ar
     7     3     9   ar
     8     4     5   ar
     9     4     6   ar
    10     6     7   ar
    11     7     8   ar
    12     8     9   ar
    13    10    11    1
    14    11    12    1
    15    12    13   am
    16    12    27    2
    17    13    14    1
    18    14    15   ar
    19    14    26   ar
    20    15    16   ar
    21    16    17   ar
    22    17    18    1
    23    17    25   ar
    24    18    19    1
    25    19    20   ar
    26    19    24   ar
    27    20    21   ar
    28    21    22   ar
    29    22    23   ar
    30    23    24   ar
    31    25    26   ar
