@<TRIPOS>MOLECULE
31361_ChemDiv_8016-1916
 23 25 0 0 0
SMALL
GASTEIGER
Energy = 0

@<TRIPOS>ATOM
      1 C          -1.2960    1.7380    0.0000 C.ar    1  LIG1        0.1680
      2 O          -0.3460    1.4330    0.0000 O.3     1  LIG1       -0.4795
      3 C           0.2580    2.2460    0.0000 C.3     1  LIG1        0.1376
      4 C          -0.3460    3.0580    0.0000 C.3     1  LIG1        0.0695
      5 C          -1.2960    2.7460    0.0000 C.ar    1  LIG1        0.0183
      6 C          -2.1630    3.2380    0.0000 C.ar    1  LIG1       -0.0010
      7 C          -3.0250    2.7460    0.0000 C.ar    1  LIG1        0.0030
      8 C          -3.0250    1.7380    0.0000 C.ar    1  LIG1        0.0400
      9 C          -2.1580    1.2380    0.0000 C.ar    1  LIG1        0.1726
     10 O          -2.1580    0.2380    0.0000 O.3     1  LIG1       -0.4625
     11 C          -1.3080   -0.2580    0.0000 C.3     1  LIG1        0.2913
     12 C          -1.3080   -1.2580    0.0000 C.2     1  LIG1        0.2862
     13 N          -0.4460   -1.7670    0.0000 N.am    1  LIG1       -0.1974
     14 C           0.4170   -1.2580    0.0000 C.3     1  LIG1        0.1416
     15 C           1.2920   -1.7460    0.0000 C.ar    1  LIG1       -0.0006
     16 C           1.2920   -2.7460    0.0000 C.ar    1  LIG1       -0.0026
     17 C           2.1580   -3.2330    0.0000 C.ar    1  LIG1       -0.0003
     18 C           3.0210   -2.7210    0.0000 C.ar    1  LIG1       -0.0000
     19 C           3.0080   -1.7210    0.0000 C.ar    1  LIG1       -0.0003
     20 C           2.1380   -1.2330    0.0000 C.ar    1  LIG1       -0.0026
     21 O          -2.1750   -1.7580    0.0000 O.2     1  LIG1       -0.2693
     22 C           0.9580    1.5380    0.0000 C.3     1  LIG1        0.0439
     23 C           0.9580    2.9580    0.0000 C.3     1  LIG1        0.0439
@<TRIPOS>BOND
     1     1     2    1
     2     1     5   ar
     3     1     9   ar
     4     2     3    1
     5     3     4    1
     6     3    22    1
     7     3    23    1
     8     4     5    1
     9     5     6   ar
    10     6     7   ar
    11     7     8   ar
    12     8     9   ar
    13     9    10    1
    14    10    11    1
    15    11    12    1
    16    12    13   am
    17    12    21    2
    18    13    14    1
    19    14    15    1
    20    15    16   ar
    21    15    20   ar
    22    16    17   ar
    23    17    18   ar
    24    18    19   ar
    25    19    20   ar
