@<TRIPOS>MOLECULE
31371_ChemDiv_8016-1921
 26 28 0 0 0
SMALL
GASTEIGER
Energy = 0

@<TRIPOS>ATOM
      1 C          -2.1710    1.7210    0.0000 C.ar    1  LIG1        0.1680
      2 O          -1.2080    1.4170    0.0000 O.3     1  LIG1       -0.4795
      3 C          -0.6210    2.2290    0.0000 C.3     1  LIG1        0.1376
      4 C          -1.2080    3.0380    0.0000 C.3     1  LIG1        0.0695
      5 C          -2.1710    2.7250    0.0000 C.ar    1  LIG1        0.0183
      6 C          -3.0290    3.2210    0.0000 C.ar    1  LIG1       -0.0010
      7 C          -3.8920    2.7250    0.0000 C.ar    1  LIG1        0.0030
      8 C          -3.8920    1.7210    0.0000 C.ar    1  LIG1        0.0400
      9 C          -3.0210    1.2210    0.0000 C.ar    1  LIG1        0.1726
     10 O          -3.0210    0.2290    0.0000 O.3     1  LIG1       -0.4625
     11 C          -2.1710   -0.2710    0.0000 C.3     1  LIG1        0.2913
     12 C          -2.1830   -1.2710    0.0000 C.2     1  LIG1        0.2860
     13 O          -3.0420   -1.7710    0.0000 O.2     1  LIG1       -0.2693
     14 N          -1.3130   -1.7790    0.0000 N.am    1  LIG1       -0.1983
     15 C          -0.4580   -1.2710    0.0000 C.3     1  LIG1        0.1624
     16 C           0.4170   -1.7580    0.0000 C.3     1  LIG1        0.2288
     17 O           1.2750   -1.2460    0.0000 O.3     1  LIG1       -0.4727
     18 C           2.1500   -1.7420    0.0000 C.ar    1  LIG1        0.1491
     19 C           2.9960   -1.2210    0.0000 C.ar    1  LIG1        0.0915
     20 CL          2.9750   -0.2250    0.0000 Cl      1  LIG1       -0.0791
     21 C           3.8710   -1.7080    0.0000 C.ar    1  LIG1        0.0145
     22 C           3.8880   -2.7130    0.0000 C.ar    1  LIG1        0.0011
     23 C           3.0210   -3.2170    0.0000 C.ar    1  LIG1        0.0032
     24 C           2.1540   -2.7290    0.0000 C.ar    1  LIG1        0.0378
     25 C           0.0920    1.5210    0.0000 C.3     1  LIG1        0.0439
     26 C           0.0920    2.9380    0.0000 C.3     1  LIG1        0.0439
@<TRIPOS>BOND
     1     1     2    1
     2     1     5   ar
     3     1     9   ar
     4     2     3    1
     5     3     4    1
     6     3    25    1
     7     3    26    1
     8     4     5    1
     9     5     6   ar
    10     6     7   ar
    11     7     8   ar
    12     8     9   ar
    13     9    10    1
    14    10    11    1
    15    11    12    1
    16    12    13    2
    17    12    14   am
    18    14    15    1
    19    15    16    1
    20    16    17    1
    21    17    18    1
    22    18    19   ar
    23    18    24   ar
    24    19    20    1
    25    19    21   ar
    26    21    22   ar
    27    22    23   ar
    28    23    24   ar
