@<TRIPOS>MOLECULE
31373_ChemDiv_8016-1922
 27 30 0 0 0
SMALL
GASTEIGER
Energy = 0

@<TRIPOS>ATOM
      1 C          -1.7210    2.5210    0.0000 C.ar    1  LIG1        0.1680
      2 O          -0.7580    2.2080    0.0000 O.3     1  LIG1       -0.4795
      3 C          -0.1710    3.0210    0.0000 C.3     1  LIG1        0.1376
      4 C          -0.7580    3.8330    0.0000 C.3     1  LIG1        0.0695
      5 C          -1.7210    3.5210    0.0000 C.ar    1  LIG1        0.0183
      6 C          -2.5830    4.0080    0.0000 C.ar    1  LIG1       -0.0010
      7 C          -3.4460    3.5210    0.0000 C.ar    1  LIG1        0.0030
      8 C          -3.4460    2.5210    0.0000 C.ar    1  LIG1        0.0400
      9 C          -2.5750    2.0210    0.0000 C.ar    1  LIG1        0.1726
     10 O          -2.5750    1.0210    0.0000 O.3     1  LIG1       -0.4625
     11 C          -1.7210    0.5210    0.0000 C.3     1  LIG1        0.2897
     12 C          -1.7250   -0.4790    0.0000 C.2     1  LIG1        0.2702
     13 N          -0.8630   -0.9790    0.0000 N.am    1  LIG1       -0.2765
     14 C          -0.8750   -1.9790    0.0000 C.3     1  LIG1        0.0938
     15 C          -0.0210   -2.4880    0.0000 C.3     1  LIG1        0.0259
     16 C           0.8540   -1.9920    0.0000 C.3     1  LIG1        0.0257
     17 C           0.8630   -0.9920    0.0000 C.3     1  LIG1        0.0259
     18 C           0.0000   -0.4790    0.0000 C.3     1  LIG1        0.0938
     19 C           1.7130   -2.5040    0.0000 C.ar    1  LIG1       -0.0224
     20 C           1.7000   -3.5000    0.0000 C.ar    1  LIG1       -0.0043
     21 C           2.5630   -4.0080    0.0000 C.ar    1  LIG1       -0.0003
     22 C           3.4290   -3.5170    0.0000 C.ar    1  LIG1       -0.0000
     23 C           3.4420   -2.5130    0.0000 C.ar    1  LIG1       -0.0003
     24 C           2.5790   -2.0130    0.0000 C.ar    1  LIG1       -0.0043
     25 O          -2.5960   -0.9750    0.0000 O.2     1  LIG1       -0.2708
     26 C           0.5420    2.3210    0.0000 C.3     1  LIG1        0.0439
     27 C           0.5420    3.7330    0.0000 C.3     1  LIG1        0.0439
@<TRIPOS>BOND
     1     1     2    1
     2     1     5   ar
     3     1     9   ar
     4     2     3    1
     5     3     4    1
     6     3    26    1
     7     3    27    1
     8     4     5    1
     9     5     6   ar
    10     6     7   ar
    11     7     8   ar
    12     8     9   ar
    13     9    10    1
    14    10    11    1
    15    11    12    1
    16    12    13   am
    17    12    25    2
    18    13    14    1
    19    13    18    1
    20    14    15    1
    21    15    16    1
    22    16    17    1
    23    16    19    1
    24    17    18    1
    25    19    20   ar
    26    19    24   ar
    27    20    21   ar
    28    21    22   ar
    29    22    23   ar
    30    23    24   ar
