@<TRIPOS>MOLECULE
31374_ChemDiv_C301-3990
 22 24 0 0 0
SMALL
GASTEIGER
Energy = 0

@<TRIPOS>ATOM
      1 C          -0.7460   -0.3170    0.0000 C.ar    1  LIG1        0.2394
      2 N          -1.0920    0.6170    0.0000 N.ar    1  LIG1       -0.1393
      3 N          -2.0920    0.5630    0.0000 N.ar    1  LIG1       -0.2079
      4 C          -2.3580   -0.4040    0.0000 C.ar    1  LIG1        0.2017
      5 N          -1.5210   -0.9500    0.0000 N.ar    1  LIG1       -0.1992
      6 C          -2.7210    1.3420    0.0000 C.ar    1  LIG1        0.0846
      7 C          -3.7130    1.1920    0.0000 C.ar    1  LIG1        0.0192
      8 C          -4.3330    1.9580    0.0000 C.ar    1  LIG1        0.0015
      9 C          -3.9710    2.9000    0.0000 C.ar    1  LIG1        0.0001
     10 C          -2.9830    3.0500    0.0000 C.ar    1  LIG1        0.0015
     11 C          -2.3580    2.2750    0.0000 C.ar    1  LIG1        0.0192
     12 C           0.2210   -0.5830    0.0000 C.2     1  LIG1        0.3067
     13 N           0.4750   -1.5540    0.0000 N.am    1  LIG1       -0.1728
     14 C           1.4420   -1.8210    0.0000 C.ar    1  LIG1        0.0746
     15 C           2.1500   -1.1170    0.0000 C.ar    1  LIG1        0.0277
     16 C           3.1130   -1.3710    0.0000 C.ar    1  LIG1        0.0550
     17 C           3.3710   -2.3380    0.0000 C.ar    1  LIG1       -0.0112
     18 C           2.6580   -3.0460    0.0000 C.ar    1  LIG1       -0.0021
     19 C           1.6920   -2.7830    0.0000 C.ar    1  LIG1        0.0163
     20 C           4.3290   -2.6040    0.0000 C.3     1  LIG1        0.0319
     21 CL          3.8170   -0.6630    0.0000 Cl      1  LIG1       -0.0825
     22 O           0.9330    0.1210    0.0000 O.2     1  LIG1       -0.2646
@<TRIPOS>BOND
     1     1     2   ar
     2     1     5   ar
     3     1    12    1
     4     2     3   ar
     5     3     4   ar
     6     3     6    1
     7     4     5   ar
     8     6     7   ar
     9     6    11   ar
    10     7     8   ar
    11     8     9   ar
    12     9    10   ar
    13    10    11   ar
    14    12    13   am
    15    12    22    2
    16    13    14    1
    17    14    15   ar
    18    14    19   ar
    19    15    16   ar
    20    16    17   ar
    21    16    21    1
    22    17    18   ar
    23    17    20    1
    24    18    19   ar
