@<TRIPOS>MOLECULE
31372_ChemDiv_C301-3580
 16 17 0 0 0
SMALL
GASTEIGER
Energy = 0

@<TRIPOS>ATOM
      1 C           1.0170    0.2080    0.0000 C.ar    1  LIG1        0.2598
      2 N           0.2040    0.7920    0.0000 N.ar    1  LIG1       -0.1373
      3 N          -0.6040    0.2080    0.0000 N.ar    1  LIG1       -0.2078
      4 C          -0.2960   -0.7420    0.0000 C.ar    1  LIG1        0.2017
      5 N           0.7040   -0.7420    0.0000 N.ar    1  LIG1       -0.1976
      6 C          -1.5540    0.5130    0.0000 C.ar    1  LIG1        0.0846
      7 C          -2.2920   -0.1500    0.0000 C.ar    1  LIG1        0.0192
      8 C          -3.2420    0.1540    0.0000 C.ar    1  LIG1        0.0015
      9 C          -3.4630    1.1330    0.0000 C.ar    1  LIG1        0.0001
     10 C          -2.7130    1.8040    0.0000 C.ar    1  LIG1        0.0015
     11 C          -1.7580    1.4920    0.0000 C.ar    1  LIG1        0.0192
     12 C           1.9670    0.5210    0.0000 C.2     1  LIG1        0.3794
     13 O           2.1750    1.4960    0.0000 O.2     1  LIG1       -0.2414
     14 O           2.7080   -0.1500    0.0000 O.3     1  LIG1       -0.4433
     15 C           3.4580   -0.8210    0.0000 C.3     1  LIG1        0.2090
     16 C           3.2500   -1.8000    0.0000 C.3     1  LIG1        0.0513
@<TRIPOS>BOND
     1     1     2   ar
     2     1     5   ar
     3     1    12    1
     4     2     3   ar
     5     3     4   ar
     6     3     6    1
     7     4     5   ar
     8     6     7   ar
     9     6    11   ar
    10     7     8   ar
    11     8     9   ar
    12     9    10   ar
    13    10    11   ar
    14    12    13    2
    15    12    14    1
    16    14    15    1
    17    15    16    1
