@<TRIPOS>MOLECULE
31375_ChemDiv_8016-1923
 26 29 0 0 0
SMALL
GASTEIGER
Energy = 0

@<TRIPOS>ATOM
      1 C          -2.0630    1.7330    0.0000 C.ar    1  LIG1        0.1680
      2 O          -1.1080    1.4210    0.0000 O.3     1  LIG1       -0.4795
      3 C          -0.5130    2.2330    0.0000 C.3     1  LIG1        0.1376
      4 C          -1.1080    3.0460    0.0000 C.3     1  LIG1        0.0695
      5 C          -2.0710    2.7420    0.0000 C.ar    1  LIG1        0.0183
      6 C          -2.9290    3.2330    0.0000 C.ar    1  LIG1       -0.0010
      7 C          -3.7920    2.7330    0.0000 C.ar    1  LIG1        0.0030
      8 C          -3.7920    1.7330    0.0000 C.ar    1  LIG1        0.0400
      9 C          -2.9210    1.2330    0.0000 C.ar    1  LIG1        0.1726
     10 O          -2.9210    0.2290    0.0000 O.3     1  LIG1       -0.4625
     11 C          -2.0710   -0.2630    0.0000 C.3     1  LIG1        0.2913
     12 C          -2.0750   -1.2630    0.0000 C.2     1  LIG1        0.2862
     13 N          -1.2130   -1.7630    0.0000 N.am    1  LIG1       -0.1974
     14 C          -0.3580   -1.2540    0.0000 C.3     1  LIG1        0.1417
     15 C           0.5170   -1.7420    0.0000 C.ar    1  LIG1        0.0027
     16 C           1.3670   -1.2290    0.0000 C.ar    1  LIG1        0.0376
     17 C           2.2420   -1.7170    0.0000 C.ar    1  LIG1        0.1762
     18 C           2.2540   -2.7170    0.0000 C.ar    1  LIG1        0.1764
     19 O           3.2080   -3.0130    0.0000 O.3     1  LIG1       -0.4346
     20 C           3.7880   -2.1920    0.0000 C.3     1  LIG1        0.4294
     21 O           3.1830   -1.3920    0.0000 O.3     1  LIG1       -0.4346
     22 C           1.3920   -3.2290    0.0000 C.ar    1  LIG1        0.0399
     23 C           0.5170   -2.7420    0.0000 C.ar    1  LIG1        0.0008
     24 O          -2.9420   -1.7540    0.0000 O.2     1  LIG1       -0.2693
     25 C           0.1920    1.5330    0.0000 C.3     1  LIG1        0.0439
     26 C           0.1920    2.9540    0.0000 C.3     1  LIG1        0.0439
@<TRIPOS>BOND
     1     1     2    1
     2     1     5   ar
     3     1     9   ar
     4     2     3    1
     5     3     4    1
     6     3    25    1
     7     3    26    1
     8     4     5    1
     9     5     6   ar
    10     6     7   ar
    11     7     8   ar
    12     8     9   ar
    13     9    10    1
    14    10    11    1
    15    11    12    1
    16    12    13   am
    17    12    24    2
    18    13    14    1
    19    14    15    1
    20    15    16   ar
    21    15    23   ar
    22    16    17   ar
    23    17    18   ar
    24    17    21    1
    25    18    19    1
    26    18    22   ar
    27    19    20    1
    28    20    21    1
    29    22    23   ar
