@<TRIPOS>MOLECULE
31376_ChemDiv_C301-4128
 20 22 0 0 0
SMALL
GASTEIGER
Energy = 0

@<TRIPOS>ATOM
      1 C          -0.2580   -0.3170    0.0000 C.ar    1  LIG1        0.2394
      2 N          -0.6170    0.6130    0.0000 N.ar    1  LIG1       -0.1393
      3 N          -1.6170    0.5580    0.0000 N.ar    1  LIG1       -0.2079
      4 C          -1.8790   -0.4040    0.0000 C.ar    1  LIG1        0.2017
      5 N          -1.0420   -0.9500    0.0000 N.ar    1  LIG1       -0.1992
      6 C          -2.2380    1.3460    0.0000 C.ar    1  LIG1        0.0846
      7 C          -1.8790    2.2790    0.0000 C.ar    1  LIG1        0.0192
      8 C          -2.5000    3.0500    0.0000 C.ar    1  LIG1        0.0015
      9 C          -3.4960    2.9000    0.0000 C.ar    1  LIG1        0.0001
     10 C          -3.8580    1.9580    0.0000 C.ar    1  LIG1        0.0015
     11 C          -3.2210    1.1880    0.0000 C.ar    1  LIG1        0.0192
     12 C           0.7040   -0.5750    0.0000 C.2     1  LIG1        0.3067
     13 N           0.9580   -1.5460    0.0000 N.am    1  LIG1       -0.1728
     14 C           1.9290   -1.8170    0.0000 C.ar    1  LIG1        0.0738
     15 C           2.1710   -2.7830    0.0000 C.ar    1  LIG1        0.0166
     16 C           3.1380   -3.0460    0.0000 C.ar    1  LIG1        0.0013
     17 C           3.8540   -2.3460    0.0000 C.ar    1  LIG1        0.0001
     18 C           3.5960   -1.3750    0.0000 C.ar    1  LIG1        0.0013
     19 C           2.6250   -1.1170    0.0000 C.ar    1  LIG1        0.0166
     20 O           1.4130    0.1210    0.0000 O.2     1  LIG1       -0.2646
@<TRIPOS>BOND
     1     1     2   ar
     2     1     5   ar
     3     1    12    1
     4     2     3   ar
     5     3     4   ar
     6     3     6    1
     7     4     5   ar
     8     6     7   ar
     9     6    11   ar
    10     7     8   ar
    11     8     9   ar
    12     9    10   ar
    13    10    11   ar
    14    12    13   am
    15    12    20    2
    16    13    14    1
    17    14    15   ar
    18    14    19   ar
    19    15    16   ar
    20    16    17   ar
    21    17    18   ar
    22    18    19   ar
