@<TRIPOS>MOLECULE
31370_ChemDiv_5169-1126
 16 17 0 0 0
SMALL
GASTEIGER
Energy = 0

@<TRIPOS>ATOM
      1 C          -0.3420    0.8750    0.0000 C.ar    1  LIG1        0.1692
      2 N           0.4790    0.3880    0.0000 N.ar    1  LIG1       -0.2126
      3 N           1.3080    0.8630    0.0000 N.ar    1  LIG1       -0.1490
      4 C           1.3080    1.8250    0.0000 C.ar    1  LIG1        0.1609
      5 N          -0.3420    1.8250    0.0000 N.ar    1  LIG1       -0.2118
      6 C           1.9920    2.4920    0.0000 C.3     1  LIG1        0.0756
      7 C           0.4790   -0.5790    0.0000 C.ar    1  LIG1        0.0843
      8 C          -0.3580   -1.0460    0.0000 C.ar    1  LIG1        0.0192
      9 C          -0.3580   -2.0170    0.0000 C.ar    1  LIG1        0.0015
     10 C           0.4790   -2.4880    0.0000 C.ar    1  LIG1        0.0001
     11 C           1.3080   -2.0170    0.0000 C.ar    1  LIG1        0.0015
     12 C           1.3080   -1.0460    0.0000 C.ar    1  LIG1        0.0192
     13 C          -1.1710    0.3960    0.0000 C.3     1  LIG1        0.1781
     14 O          -1.4170    1.3290    0.0000 O.3     1  LIG1       -0.2179
     15 C          -1.1710   -0.5670    0.0000 C.3     1  LIG1        0.0408
     16 C          -1.9960    0.8750    0.0000 C.3     1  LIG1        0.0408
@<TRIPOS>BOND
     1     1     2   ar
     2     1     5   ar
     3     1    13    1
     4     2     3   ar
     5     2     7    1
     6     3     4   ar
     7     4     5   ar
     8     4     6    1
     9     7     8   ar
    10     7    12   ar
    11     8     9   ar
    12     9    10   ar
    13    10    11   ar
    14    11    12   ar
    15    13    14    1
    16    13    15    1
    17    13    16    1
