@<TRIPOS>MOLECULE
31380_ChemDiv_5089-0183
 30 33 0 0 0
SMALL
GASTEIGER
Energy = 0

@<TRIPOS>ATOM
      1 C           1.2630    0.0500    0.0000 C.ar    1  LIG1        0.0346
      2 C           0.4130   -0.4290    0.0000 C.2     1  LIG1        0.1771
      3 C          -0.4330    0.0500    0.0000 C.3     1  LIG1        0.0922
      4 C          -0.4330    1.0290    0.0000 C.3     1  LIG1        0.0561
      5 C           1.2630    1.0290    0.0000 C.ar    1  LIG1       -0.0117
      6 C           2.1130    1.5290    0.0000 C.ar    1  LIG1        0.0362
      7 C           2.9630    1.0290    0.0000 C.ar    1  LIG1        0.1721
      8 C           2.9630    0.0500    0.0000 C.ar    1  LIG1        0.1725
      9 C           2.1130   -0.4290    0.0000 C.ar    1  LIG1        0.0426
     10 O           3.8130   -0.4290    0.0000 O.3     1  LIG1       -0.4684
     11 C           4.6580    0.0500    0.0000 C.3     1  LIG1        0.2526
     12 O           3.8130    1.5290    0.0000 O.3     1  LIG1       -0.4684
     13 C           4.6580    1.0290    0.0000 C.3     1  LIG1        0.2526
     14 C          -1.1290    1.7420    0.0000 C.ar    1  LIG1       -0.0177
     15 C          -0.8750    2.6750    0.0000 C.ar    1  LIG1       -0.0039
     16 C          -1.5710    3.3750    0.0000 C.ar    1  LIG1       -0.0003
     17 C          -2.5040    3.1130    0.0000 C.ar    1  LIG1       -0.0000
     18 C          -2.7460    2.1830    0.0000 C.ar    1  LIG1       -0.0003
     19 C          -2.0500    1.4790    0.0000 C.ar    1  LIG1       -0.0039
     20 C          -1.2830   -0.4290    0.0000 C.ar    1  LIG1       -0.0114
     21 C          -1.2670   -1.4080    0.0000 C.ar    1  LIG1        0.0362
     22 C          -2.1170   -1.9130    0.0000 C.ar    1  LIG1        0.1721
     23 C          -2.9670   -1.4080    0.0000 C.ar    1  LIG1        0.1724
     24 C          -2.9670   -0.4290    0.0000 C.ar    1  LIG1        0.0397
     25 C          -2.1170    0.0500    0.0000 C.ar    1  LIG1       -0.0005
     26 O          -3.8130   -1.9130    0.0000 O.3     1  LIG1       -0.4684
     27 C          -4.6630   -1.4080    0.0000 C.3     1  LIG1        0.2526
     28 O          -2.1170   -2.8920    0.0000 O.3     1  LIG1       -0.4684
     29 C          -2.9670   -3.3710    0.0000 C.3     1  LIG1        0.2526
     30 O           0.4130   -1.4080    0.0000 O.2     1  LIG1       -0.2910
@<TRIPOS>BOND
     1     1     2    1
     2     1     5   ar
     3     1     9   ar
     4     2     3    1
     5     2    30    2
     6     3     4    1
     7     3    20    1
     8     4     5    1
     9     4    14    1
    10     5     6   ar
    11     6     7   ar
    12     7     8   ar
    13     7    12    1
    14     8     9   ar
    15     8    10    1
    16    10    11    1
    17    12    13    1
    18    14    15   ar
    19    14    19   ar
    20    15    16   ar
    21    16    17   ar
    22    17    18   ar
    23    18    19   ar
    24    20    21   ar
    25    20    25   ar
    26    21    22   ar
    27    22    23   ar
    28    22    28    1
    29    23    24   ar
    30    23    26    1
    31    24    25   ar
    32    26    27    1
    33    28    29    1
