@<TRIPOS>MOLECULE
31389_ChemDiv_4986-0812
 23 26 0 0 0
SMALL
GASTEIGER
Energy = 0

@<TRIPOS>ATOM
      1 C           0.8290    1.3380    0.0000 C.ar    1  LIG1        0.1472
      2 C           0.8290    0.3420    0.0000 C.ar    1  LIG1        0.0305
      3 C           1.6920   -0.1670    0.0000 C.ar    1  LIG1       -0.0167
      4 C           2.5710    0.3420    0.0000 C.ar    1  LIG1        0.0503
      5 C           2.5710    1.3380    0.0000 C.ar    1  LIG1        0.3414
      6 O           1.6920    1.8380    0.0000 O.2     1  LIG1       -0.4215
      7 O           3.4380    1.8380    0.0000 O.2     1  LIG1       -0.2448
      8 C           3.4250   -0.1670    0.0000 C.3     1  LIG1        0.0375
      9 C           1.6920   -1.1580    0.0000 C.3     1  LIG1        0.0310
     10 C          -0.0380   -0.1670    0.0000 C.ar    1  LIG1        0.0058
     11 C          -0.9080    0.3420    0.0000 C.ar    1  LIG1        0.0375
     12 C          -0.9080    1.3380    0.0000 C.ar    1  LIG1        0.1443
     13 C          -0.0380    1.8380    0.0000 C.ar    1  LIG1        0.0473
     14 C          -0.0380    2.8330    0.0000 C.3     1  LIG1        0.0375
     15 O          -1.8580    1.6380    0.0000 O.2     1  LIG1       -0.4506
     16 C          -2.4500    0.8290    0.0000 C.ar    1  LIG1        0.1795
     17 C          -1.8580    0.0250    0.0000 C.ar    1  LIG1        0.0406
     18 C          -2.1670   -0.9170    0.0000 C.ar    1  LIG1        0.0031
     19 C          -3.1420   -1.1380    0.0000 C.ar    1  LIG1        0.0001
     20 C          -3.4420   -2.0880    0.0000 C.ar    1  LIG1        0.0000
     21 C          -2.7920   -2.8290    0.0000 C.ar    1  LIG1        0.0000
     22 C          -1.8040   -2.6170    0.0000 C.ar    1  LIG1        0.0000
     23 C          -1.5000   -1.6630    0.0000 C.ar    1  LIG1        0.0001
@<TRIPOS>BOND
     1     1     2   ar
     2     1     6   ar
     3     1    13   ar
     4     2     3   ar
     5     2    10   ar
     6     3     4   ar
     7     3     9    1
     8     4     5   ar
     9     4     8    1
    10     5     6   ar
    11     5     7    2
    12    10    11   ar
    13    11    12   ar
    14    11    17   ar
    15    12    13   ar
    16    12    15   ar
    17    13    14    1
    18    15    16   ar
    19    16    17   ar
    20    17    18    1
    21    18    19   ar
    22    18    23   ar
    23    19    20   ar
    24    20    21   ar
    25    21    22   ar
    26    22    23   ar
