@<TRIPOS>MOLECULE
31384_ChemDiv_5107-0249
 18 19 0 0 0
SMALL
GASTEIGER
Energy = 0

@<TRIPOS>ATOM
      1 N          -0.2080    0.0960    0.0000 N.ar    1  LIG1       -0.2815
      2 C           0.6080   -0.4920    0.0000 C.ar    1  LIG1        0.1664
      3 C           0.2920   -1.4460    0.0000 C.ar    1  LIG1        0.1213
      4 S          -0.6960   -1.4460    0.0000 S.2     1  LIG1       -0.0549
      5 C          -1.0130   -0.4920    0.0000 C.ar    1  LIG1        0.1323
      6 S          -1.9670   -0.1790    0.0000 S.2     1  LIG1       -0.0244
      7 C           0.9960   -2.1420    0.0000 C.2     1  LIG1        0.2931
      8 O           0.7380   -3.1080    0.0000 O.2     1  LIG1       -0.2660
      9 N           1.9630   -1.8960    0.0000 N.am    1  LIG1       -0.0832
     10 N           1.5580   -0.1790    0.0000 N.pl3   1  LIG1       -0.1079
     11 C          -0.2080    1.1040    0.0000 C.ar    1  LIG1        0.0618
     12 C          -1.0750    1.6040    0.0000 C.ar    1  LIG1       -0.0057
     13 C          -1.0750    2.6000    0.0000 C.ar    1  LIG1       -0.0031
     14 C          -0.2080    3.1130    0.0000 C.ar    1  LIG1       -0.0045
     15 C           0.6670    2.6000    0.0000 C.ar    1  LIG1       -0.0204
     16 C           0.6670    1.6080    0.0000 C.ar    1  LIG1        0.0130
     17 C           1.5250    3.0960    0.0000 C.3     1  LIG1        0.0311
     18 C          -1.9290    1.1040    0.0000 C.3     1  LIG1        0.0326
@<TRIPOS>BOND
     1     1     2   ar
     2     1     5   ar
     3     1    11    1
     4     2     3   ar
     5     2    10    1
     6     3     4   ar
     7     3     7    1
     8     4     5   ar
     9     5     6    2
    10     7     8    2
    11     7     9   am
    12    11    12   ar
    13    11    16   ar
    14    12    13   ar
    15    12    18    1
    16    13    14   ar
    17    14    15   ar
    18    15    16   ar
    19    15    17    1
