@<TRIPOS>MOLECULE
31394_ChemDiv_C301-4129
 23 25 0 0 0
SMALL
GASTEIGER
Energy = 0

@<TRIPOS>ATOM
      1 C          -1.0920   -0.3250    0.0000 C.ar    1  LIG1        0.2394
      2 N          -1.4500    0.6130    0.0000 N.ar    1  LIG1       -0.1393
      3 N          -2.4500    0.5670    0.0000 N.ar    1  LIG1       -0.2079
      4 C          -2.7170   -0.4000    0.0000 C.ar    1  LIG1        0.2017
      5 N          -1.8710   -0.9540    0.0000 N.ar    1  LIG1       -0.1992
      6 C          -3.0790    1.3420    0.0000 C.ar    1  LIG1        0.0846
      7 C          -4.0580    1.1830    0.0000 C.ar    1  LIG1        0.0192
      8 C          -4.6920    1.9580    0.0000 C.ar    1  LIG1        0.0015
      9 C          -4.3290    2.9040    0.0000 C.ar    1  LIG1        0.0001
     10 C          -3.3380    3.0540    0.0000 C.ar    1  LIG1        0.0015
     11 C          -2.7170    2.2750    0.0000 C.ar    1  LIG1        0.0192
     12 C          -0.1250   -0.5790    0.0000 C.2     1  LIG1        0.3067
     13 N           0.1290   -1.5580    0.0000 N.am    1  LIG1       -0.1727
     14 C           1.0960   -1.8170    0.0000 C.ar    1  LIG1        0.0748
     15 C           1.7960   -1.1210    0.0000 C.ar    1  LIG1        0.0311
     16 C           2.7630   -1.3750    0.0000 C.ar    1  LIG1        0.0928
     17 C           3.0170   -2.3460    0.0000 C.ar    1  LIG1        0.1492
     18 C           2.3040   -3.0500    0.0000 C.ar    1  LIG1        0.0391
     19 C           1.3380   -2.7830    0.0000 C.ar    1  LIG1        0.0198
     20 O           3.9790   -2.6040    0.0000 O.3     1  LIG1       -0.4706
     21 C           4.6880   -1.9080    0.0000 C.3     1  LIG1        0.2525
     22 CL          3.4710   -0.6710    0.0000 Cl      1  LIG1       -0.0790
     23 O           0.5830    0.1130    0.0000 O.2     1  LIG1       -0.2646
@<TRIPOS>BOND
     1     1     2   ar
     2     1     5   ar
     3     1    12    1
     4     2     3   ar
     5     3     4   ar
     6     3     6    1
     7     4     5   ar
     8     6     7   ar
     9     6    11   ar
    10     7     8   ar
    11     8     9   ar
    12     9    10   ar
    13    10    11   ar
    14    12    13   am
    15    12    23    2
    16    13    14    1
    17    14    15   ar
    18    14    19   ar
    19    15    16   ar
    20    16    17   ar
    21    16    22    1
    22    17    18   ar
    23    17    20    1
    24    18    19   ar
    25    20    21    1
