@<TRIPOS>MOLECULE
31398_ChemDiv_C301-4131
 23 25 0 0 0
SMALL
GASTEIGER
Energy = 0

@<TRIPOS>ATOM
      1 C          -0.4830    0.3830    0.0000 C.ar    1  LIG1        0.2394
      2 N          -0.8380    1.3170    0.0000 N.ar    1  LIG1       -0.1393
      3 N          -1.8420    1.2630    0.0000 N.ar    1  LIG1       -0.2079
      4 C          -2.1080    0.2960    0.0000 C.ar    1  LIG1        0.2017
      5 N          -1.2630   -0.2500    0.0000 N.ar    1  LIG1       -0.1992
      6 C          -2.4710    2.0420    0.0000 C.ar    1  LIG1        0.0846
      7 C          -3.4500    1.8920    0.0000 C.ar    1  LIG1        0.0192
      8 C          -4.0830    2.6580    0.0000 C.ar    1  LIG1        0.0015
      9 C          -3.7210    3.6000    0.0000 C.ar    1  LIG1        0.0001
     10 C          -2.7290    3.7500    0.0000 C.ar    1  LIG1        0.0015
     11 C          -2.1080    2.9750    0.0000 C.ar    1  LIG1        0.0192
     12 C           0.4830    0.1170    0.0000 C.2     1  LIG1        0.3068
     13 N           0.7420   -0.8540    0.0000 N.am    1  LIG1       -0.1697
     14 C           1.7040   -1.1210    0.0000 C.ar    1  LIG1        0.1084
     15 C           2.4040   -0.4170    0.0000 C.ar    1  LIG1        0.0311
     16 C           3.3710   -0.6750    0.0000 C.ar    1  LIG1        0.0592
     17 C           3.6250   -1.6420    0.0000 C.ar    1  LIG1        0.0146
     18 C           2.9130   -2.3500    0.0000 C.ar    1  LIG1        0.0391
     19 C           1.9460   -2.0880    0.0000 C.ar    1  LIG1        0.1540
     20 O           1.2420   -2.7830    0.0000 O.3     1  LIG1       -0.4701
     21 C           1.4830   -3.7460    0.0000 C.3     1  LIG1        0.2525
     22 CL          4.0790    0.0330    0.0000 Cl      1  LIG1       -0.0822
     23 O           1.1920    0.8210    0.0000 O.2     1  LIG1       -0.2646
@<TRIPOS>BOND
     1     1     2   ar
     2     1     5   ar
     3     1    12    1
     4     2     3   ar
     5     3     4   ar
     6     3     6    1
     7     4     5   ar
     8     6     7   ar
     9     6    11   ar
    10     7     8   ar
    11     8     9   ar
    12     9    10   ar
    13    10    11   ar
    14    12    13   am
    15    12    23    2
    16    13    14    1
    17    14    15   ar
    18    14    19   ar
    19    15    16   ar
    20    16    17   ar
    21    16    22    1
    22    17    18   ar
    23    18    19   ar
    24    19    20    1
    25    20    21    1
