@<TRIPOS>MOLECULE
31396_ChemDiv_C301-4130
 25 27 0 0 0
SMALL
GASTEIGER
Energy = 0

@<TRIPOS>ATOM
      1 C          -1.3130   -0.0540    0.0000 C.ar    1  LIG1        0.2394
      2 N          -1.6750    0.8790    0.0000 N.ar    1  LIG1       -0.1393
      3 N          -2.6710    0.8250    0.0000 N.ar    1  LIG1       -0.2079
      4 C          -2.9420   -0.1420    0.0000 C.ar    1  LIG1        0.2017
      5 N          -2.1000   -0.6880    0.0000 N.ar    1  LIG1       -0.1992
      6 C          -3.2960    1.6040    0.0000 C.ar    1  LIG1        0.0846
      7 C          -2.9420    2.5380    0.0000 C.ar    1  LIG1        0.0192
      8 C          -3.5630    3.3130    0.0000 C.ar    1  LIG1        0.0015
      9 C          -4.5580    3.1630    0.0000 C.ar    1  LIG1        0.0001
     10 C          -4.9210    2.2210    0.0000 C.ar    1  LIG1        0.0015
     11 C          -4.2880    1.4540    0.0000 C.ar    1  LIG1        0.0192
     12 C          -0.3500   -0.3210    0.0000 C.2     1  LIG1        0.3067
     13 N          -0.0920   -1.2920    0.0000 N.am    1  LIG1       -0.1728
     14 C           0.8710   -1.5580    0.0000 C.ar    1  LIG1        0.0738
     15 C           1.5750   -0.8540    0.0000 C.ar    1  LIG1        0.0168
     16 C           2.5420   -1.1130    0.0000 C.ar    1  LIG1        0.0078
     17 C           2.8000   -2.0750    0.0000 C.ar    1  LIG1        0.0757
     18 C           3.7540   -2.3420    0.0000 C.2     1  LIG1        0.3412
     19 O           4.0080   -3.3080    0.0000 O.2     1  LIG1       -0.2449
     20 O           4.4630   -1.6420    0.0000 O.3     1  LIG1       -0.4454
     21 C           4.2040   -0.6830    0.0000 C.3     1  LIG1        0.2089
     22 C           4.9170    0.0210    0.0000 C.3     1  LIG1        0.0513
     23 C           2.0790   -2.7880    0.0000 C.ar    1  LIG1        0.0078
     24 C           1.1130   -2.5250    0.0000 C.ar    1  LIG1        0.0168
     25 O           0.3580    0.3830    0.0000 O.2     1  LIG1       -0.2646
@<TRIPOS>BOND
     1     1     2   ar
     2     1     5   ar
     3     1    12    1
     4     2     3   ar
     5     3     4   ar
     6     3     6    1
     7     4     5   ar
     8     6     7   ar
     9     6    11   ar
    10     7     8   ar
    11     8     9   ar
    12     9    10   ar
    13    10    11   ar
    14    12    13   am
    15    12    25    2
    16    13    14    1
    17    14    15   ar
    18    14    24   ar
    19    15    16   ar
    20    16    17   ar
    21    17    18    1
    22    17    23   ar
    23    18    19    2
    24    18    20    1
    25    20    21    1
    26    21    22    1
    27    23    24   ar
