@<TRIPOS>MOLECULE
31400_ChemDiv_C301-4134
 22 24 0 0 0
SMALL
GASTEIGER
Energy = 0

@<TRIPOS>ATOM
      1 C          -0.2540    0.1580    0.0000 C.ar    1  LIG1        0.2394
      2 N          -0.6170    1.0920    0.0000 N.ar    1  LIG1       -0.1393
      3 N          -1.6130    1.0460    0.0000 N.ar    1  LIG1       -0.2079
      4 C          -1.8830    0.0830    0.0000 C.ar    1  LIG1        0.2017
      5 N          -1.0380   -0.4710    0.0000 N.ar    1  LIG1       -0.1992
      6 C          -2.2330    1.8210    0.0000 C.ar    1  LIG1        0.0846
      7 C          -3.2250    1.6670    0.0000 C.ar    1  LIG1        0.0192
      8 C          -3.8580    2.4380    0.0000 C.ar    1  LIG1        0.0015
      9 C          -3.4960    3.3830    0.0000 C.ar    1  LIG1        0.0001
     10 C          -2.5000    3.5330    0.0000 C.ar    1  LIG1        0.0015
     11 C          -1.8830    2.7540    0.0000 C.ar    1  LIG1        0.0192
     12 C           0.7080   -0.1000    0.0000 C.2     1  LIG1        0.3067
     13 N           0.9670   -1.0750    0.0000 N.am    1  LIG1       -0.1731
     14 C           1.9290   -1.3330    0.0000 C.ar    1  LIG1        0.0706
     15 C           2.1710   -2.3000    0.0000 C.ar    1  LIG1        0.0041
     16 C           3.1330   -2.5670    0.0000 C.ar    1  LIG1        0.0549
     17 CL          3.3880   -3.5290    0.0000 Cl      1  LIG1       -0.0825
     18 C           3.8540   -1.8630    0.0000 C.ar    1  LIG1        0.0112
     19 C           3.5960   -0.8920    0.0000 C.ar    1  LIG1        0.0022
     20 C           2.6330   -0.6380    0.0000 C.ar    1  LIG1        0.0163
     21 C           1.4630   -3.0040    0.0000 C.3     1  LIG1        0.0333
     22 O           1.4170    0.5960    0.0000 O.2     1  LIG1       -0.2646
@<TRIPOS>BOND
     1     1     2   ar
     2     1     5   ar
     3     1    12    1
     4     2     3   ar
     5     3     4   ar
     6     3     6    1
     7     4     5   ar
     8     6     7   ar
     9     6    11   ar
    10     7     8   ar
    11     8     9   ar
    12     9    10   ar
    13    10    11   ar
    14    12    13   am
    15    12    22    2
    16    13    14    1
    17    14    15   ar
    18    14    20   ar
    19    15    16   ar
    20    15    21    1
    21    16    17    1
    22    16    18   ar
    23    18    19   ar
    24    19    20   ar
