@<TRIPOS>MOLECULE
31408_ChemDiv_C301-4209
 22 24 0 0 0
SMALL
GASTEIGER
Energy = 0

@<TRIPOS>ATOM
      1 C          -0.7420   -0.1000    0.0000 C.ar    1  LIG1        0.2394
      2 N          -1.0960    0.8380    0.0000 N.ar    1  LIG1       -0.1393
      3 N          -2.1000    0.7880    0.0000 N.ar    1  LIG1       -0.2079
      4 C          -2.3710   -0.1790    0.0000 C.ar    1  LIG1        0.2017
      5 N          -1.5170   -0.7330    0.0000 N.ar    1  LIG1       -0.1992
      6 C          -2.7250    1.5710    0.0000 C.ar    1  LIG1        0.0846
      7 C          -2.3710    2.5040    0.0000 C.ar    1  LIG1        0.0192
      8 C          -2.9920    3.2750    0.0000 C.ar    1  LIG1        0.0015
      9 C          -3.9750    3.1250    0.0000 C.ar    1  LIG1        0.0001
     10 C          -4.3380    2.1880    0.0000 C.ar    1  LIG1        0.0015
     11 C          -3.7130    1.4040    0.0000 C.ar    1  LIG1        0.0192
     12 C           0.2210   -0.3580    0.0000 C.2     1  LIG1        0.3067
     13 N           0.4790   -1.3250    0.0000 N.am    1  LIG1       -0.1719
     14 C           1.4420   -1.5960    0.0000 C.ar    1  LIG1        0.0843
     15 C           1.6830   -2.5630    0.0000 C.ar    1  LIG1        0.0726
     16 C           2.6500   -2.8170    0.0000 C.ar    1  LIG1        0.0085
     17 C           3.3710   -2.1210    0.0000 C.ar    1  LIG1       -0.0209
     18 C           3.1170   -1.1460    0.0000 C.ar    1  LIG1       -0.0029
     19 C           2.1500   -0.8960    0.0000 C.ar    1  LIG1        0.0171
     20 C           4.3330   -2.3790    0.0000 C.3     1  LIG1        0.0311
     21 CL          0.9880   -3.2710    0.0000 Cl      1  LIG1       -0.0809
     22 O           0.9290    0.3380    0.0000 O.2     1  LIG1       -0.2646
@<TRIPOS>BOND
     1     1     2   ar
     2     1     5   ar
     3     1    12    1
     4     2     3   ar
     5     3     4   ar
     6     3     6    1
     7     4     5   ar
     8     6     7   ar
     9     6    11   ar
    10     7     8   ar
    11     8     9   ar
    12     9    10   ar
    13    10    11   ar
    14    12    13   am
    15    12    22    2
    16    13    14    1
    17    14    15   ar
    18    14    19   ar
    19    15    16   ar
    20    15    21    1
    21    16    17   ar
    22    17    18   ar
    23    17    20    1
    24    18    19   ar
