@<TRIPOS>MOLECULE
31402_ChemDiv_C301-4152
 21 23 0 0 0
SMALL
GASTEIGER
Energy = 0

@<TRIPOS>ATOM
      1 C          -0.2630    0.1670    0.0000 C.ar    1  LIG1        0.2394
      2 N          -0.6170    1.1000    0.0000 N.ar    1  LIG1       -0.1393
      3 N          -1.6130    1.0420    0.0000 N.ar    1  LIG1       -0.2079
      4 C          -1.8830    0.0790    0.0000 C.ar    1  LIG1        0.2017
      5 N          -1.0380   -0.4710    0.0000 N.ar    1  LIG1       -0.1992
      6 C          -2.2380    1.8290    0.0000 C.ar    1  LIG1        0.0846
      7 C          -3.2290    1.6630    0.0000 C.ar    1  LIG1        0.0192
      8 C          -3.8540    2.4420    0.0000 C.ar    1  LIG1        0.0015
      9 C          -3.4920    3.3830    0.0000 C.ar    1  LIG1        0.0001
     10 C          -2.5040    3.5290    0.0000 C.ar    1  LIG1        0.0015
     11 C          -1.8830    2.7630    0.0000 C.ar    1  LIG1        0.0192
     12 C           0.7040   -0.0960    0.0000 C.2     1  LIG1        0.3067
     13 N           0.9630   -1.0710    0.0000 N.am    1  LIG1       -0.1728
     14 C           1.9250   -1.3330    0.0000 C.ar    1  LIG1        0.0746
     15 C           2.1630   -2.3040    0.0000 C.ar    1  LIG1        0.0280
     16 C           3.1250   -2.5630    0.0000 C.ar    1  LIG1        0.0590
     17 CL          3.3830   -3.5250    0.0000 Cl      1  LIG1       -0.0822
     18 C           3.8500   -1.8500    0.0000 C.ar    1  LIG1        0.0115
     19 C           3.5920   -0.8880    0.0000 C.ar    1  LIG1        0.0022
     20 C           2.6290   -0.6330    0.0000 C.ar    1  LIG1        0.0167
     21 O           1.4130    0.6040    0.0000 O.2     1  LIG1       -0.2646
@<TRIPOS>BOND
     1     1     2   ar
     2     1     5   ar
     3     1    12    1
     4     2     3   ar
     5     3     4   ar
     6     3     6    1
     7     4     5   ar
     8     6     7   ar
     9     6    11   ar
    10     7     8   ar
    11     8     9   ar
    12     9    10   ar
    13    10    11   ar
    14    12    13   am
    15    12    21    2
    16    13    14    1
    17    14    15   ar
    18    14    20   ar
    19    15    16   ar
    20    16    17    1
    21    16    18   ar
    22    18    19   ar
    23    19    20   ar
