@<TRIPOS>MOLECULE
31404_ChemDiv_C301-4154
 23 25 0 0 0
SMALL
GASTEIGER
Energy = 0

@<TRIPOS>ATOM
      1 C          -1.5710   -0.3210    0.0000 C.ar    1  LIG1        0.2394
      2 N          -1.9290    0.6130    0.0000 N.ar    1  LIG1       -0.1393
      3 N          -2.9250    0.5630    0.0000 N.ar    1  LIG1       -0.2079
      4 C          -3.1960   -0.4040    0.0000 C.ar    1  LIG1        0.2017
      5 N          -2.3500   -0.9460    0.0000 N.ar    1  LIG1       -0.1992
      6 C          -3.5540    1.3460    0.0000 C.ar    1  LIG1        0.0846
      7 C          -3.1960    2.2790    0.0000 C.ar    1  LIG1        0.0192
      8 C          -3.8170    3.0540    0.0000 C.ar    1  LIG1        0.0015
      9 C          -4.8080    2.9000    0.0000 C.ar    1  LIG1        0.0001
     10 C          -5.1710    1.9630    0.0000 C.ar    1  LIG1        0.0015
     11 C          -4.5460    1.1830    0.0000 C.ar    1  LIG1        0.0192
     12 C          -0.6080   -0.5830    0.0000 C.2     1  LIG1        0.3067
     13 N          -0.3460   -1.5540    0.0000 N.am    1  LIG1       -0.1728
     14 C           0.6170   -1.8210    0.0000 C.ar    1  LIG1        0.0740
     15 C           0.8580   -2.7830    0.0000 C.ar    1  LIG1        0.0197
     16 C           1.8210   -3.0500    0.0000 C.ar    1  LIG1        0.0382
     17 C           2.5460   -2.3420    0.0000 C.ar    1  LIG1        0.1386
     18 C           2.2880   -1.3670    0.0000 C.ar    1  LIG1        0.0382
     19 C           1.3250   -1.1170    0.0000 C.ar    1  LIG1        0.0197
     20 O           3.5040   -2.5960    0.0000 O.3     1  LIG1       -0.4755
     21 C           4.2130   -1.8960    0.0000 C.3     1  LIG1        0.2055
     22 C           5.1670   -2.1630    0.0000 C.3     1  LIG1        0.0512
     23 O           0.1040    0.1170    0.0000 O.2     1  LIG1       -0.2646
@<TRIPOS>BOND
     1     1     2   ar
     2     1     5   ar
     3     1    12    1
     4     2     3   ar
     5     3     4   ar
     6     3     6    1
     7     4     5   ar
     8     6     7   ar
     9     6    11   ar
    10     7     8   ar
    11     8     9   ar
    12     9    10   ar
    13    10    11   ar
    14    12    13   am
    15    12    23    2
    16    13    14    1
    17    14    15   ar
    18    14    19   ar
    19    15    16   ar
    20    16    17   ar
    21    17    18   ar
    22    17    20    1
    23    18    19   ar
    24    20    21    1
    25    21    22    1
