@<TRIPOS>MOLECULE
31406_ChemDiv_C301-4155
 21 23 0 0 0
SMALL
GASTEIGER
Energy = 0

@<TRIPOS>ATOM
      1 C          -0.7380   -0.3210    0.0000 C.ar    1  LIG1        0.2394
      2 N          -1.0960    0.6130    0.0000 N.ar    1  LIG1       -0.1393
      3 N          -2.0920    0.5630    0.0000 N.ar    1  LIG1       -0.2079
      4 C          -2.3630   -0.4040    0.0000 C.ar    1  LIG1        0.2017
      5 N          -1.5170   -0.9460    0.0000 N.ar    1  LIG1       -0.1992
      6 C          -2.7210    1.3460    0.0000 C.ar    1  LIG1        0.0846
      7 C          -2.3630    2.2790    0.0000 C.ar    1  LIG1        0.0192
      8 C          -2.9830    3.0500    0.0000 C.ar    1  LIG1        0.0015
      9 C          -3.9750    2.9000    0.0000 C.ar    1  LIG1        0.0001
     10 C          -4.3380    1.9630    0.0000 C.ar    1  LIG1        0.0015
     11 C          -3.7080    1.1830    0.0000 C.ar    1  LIG1        0.0192
     12 C           0.2250   -0.5830    0.0000 C.2     1  LIG1        0.3067
     13 N           0.4830   -1.5540    0.0000 N.am    1  LIG1       -0.1728
     14 C           1.4500   -1.8170    0.0000 C.ar    1  LIG1        0.0738
     15 C           2.1540   -1.1170    0.0000 C.ar    1  LIG1        0.0171
     16 C           3.1210   -1.3670    0.0000 C.ar    1  LIG1        0.0080
     17 C           3.3790   -2.3420    0.0000 C.ar    1  LIG1        0.0347
     18 BR          4.3330   -2.5960    0.0000 Br      1  LIG1       -0.0490
     19 C           2.6540   -3.0460    0.0000 C.ar    1  LIG1        0.0080
     20 C           1.6880   -2.7830    0.0000 C.ar    1  LIG1        0.0171
     21 O           0.9380    0.1170    0.0000 O.2     1  LIG1       -0.2646
@<TRIPOS>BOND
     1     1     2   ar
     2     1     5   ar
     3     1    12    1
     4     2     3   ar
     5     3     4   ar
     6     3     6    1
     7     4     5   ar
     8     6     7   ar
     9     6    11   ar
    10     7     8   ar
    11     8     9   ar
    12     9    10   ar
    13    10    11   ar
    14    12    13   am
    15    12    21    2
    16    13    14    1
    17    14    15   ar
    18    14    20   ar
    19    15    16   ar
    20    16    17   ar
    21    17    18    1
    22    17    19   ar
    23    19    20   ar
