@<TRIPOS>MOLECULE
31411_ChemDiv_5436-0918
 23 26 0 0 0
SMALL
GASTEIGER
Energy = 0

@<TRIPOS>ATOM
      1 C          -1.8130    1.3710    0.0000 C.ar    1  LIG1        0.0406
      2 C          -0.8500    1.6750    0.0000 C.ar    1  LIG1        0.0378
      3 C          -0.8500    2.6830    0.0000 C.ar    1  LIG1        0.1485
      4 O          -1.8130    2.9880    0.0000 O.2     1  LIG1       -0.4503
      5 C          -2.4040    2.1830    0.0000 C.ar    1  LIG1        0.1795
      6 C           0.0040    3.1710    0.0000 C.ar    1  LIG1        0.0750
      7 C           0.8710    2.6830    0.0000 C.ar    1  LIG1        0.1514
      8 C           0.8710    1.6750    0.0000 C.ar    1  LIG1        0.0311
      9 C           1.7420    1.1750    0.0000 C.ar    1  LIG1       -0.0125
     10 C           2.6080    1.6750    0.0000 C.ar    1  LIG1        0.0781
     11 C           2.6080    2.6830    0.0000 C.ar    1  LIG1        0.3456
     12 O           1.7420    3.1710    0.0000 O.2     1  LIG1       -0.4209
     13 O           3.4750    3.1710    0.0000 O.2     1  LIG1       -0.2445
     14 C           1.7420    0.1830    0.0000 C.3     1  LIG1        0.0313
     15 C           0.0040    1.1750    0.0000 C.ar    1  LIG1        0.0059
     16 C          -2.1630    0.4420    0.0000 C.ar    1  LIG1        0.0033
     17 C          -3.1460    0.2670    0.0000 C.ar    1  LIG1        0.0032
     18 C          -3.4790   -0.6500    0.0000 C.ar    1  LIG1        0.0369
     19 C          -2.8500   -1.4380    0.0000 C.ar    1  LIG1        0.1387
     20 C          -1.8750   -1.2710    0.0000 C.ar    1  LIG1        0.0369
     21 C          -1.5170   -0.3420    0.0000 C.ar    1  LIG1        0.0032
     22 O          -3.2080   -2.3880    0.0000 O.3     1  LIG1       -0.4714
     23 C          -2.5630   -3.1670    0.0000 C.3     1  LIG1        0.2525
@<TRIPOS>BOND
     1     1     2   ar
     2     1     5   ar
     3     1    16    1
     4     2     3   ar
     5     2    15   ar
     6     3     4   ar
     7     3     6   ar
     8     4     5   ar
     9     6     7   ar
    10     7     8   ar
    11     7    12   ar
    12     8     9   ar
    13     8    15   ar
    14     9    10   ar
    15     9    14    1
    16    10    11   ar
    17    11    12   ar
    18    11    13    2
    19    16    17   ar
    20    16    21   ar
    21    17    18   ar
    22    18    19   ar
    23    19    20   ar
    24    19    22    1
    25    20    21   ar
    26    22    23    1
