@<TRIPOS>MOLECULE
31413_ChemDiv_5436-0921
 24 27 0 0 0
SMALL
GASTEIGER
Energy = 0

@<TRIPOS>ATOM
      1 C           1.7420    1.1750    0.0000 C.ar    1  LIG1       -0.0167
      2 C           0.8710    1.6750    0.0000 C.ar    1  LIG1        0.0308
      3 C           0.8710    2.6880    0.0000 C.ar    1  LIG1        0.1514
      4 O           1.7420    3.1710    0.0000 O.2     1  LIG1       -0.4212
      5 C           2.6080    2.6880    0.0000 C.ar    1  LIG1        0.3414
      6 C           2.6080    1.6750    0.0000 C.ar    1  LIG1        0.0503
      7 C           3.4630    1.1750    0.0000 C.3     1  LIG1        0.0375
      8 O           3.4790    3.1710    0.0000 O.2     1  LIG1       -0.2448
      9 C           0.0040    3.1710    0.0000 C.ar    1  LIG1        0.0750
     10 C          -0.8500    2.6880    0.0000 C.ar    1  LIG1        0.1485
     11 C          -0.8500    1.6750    0.0000 C.ar    1  LIG1        0.0378
     12 C          -1.8130    1.3710    0.0000 C.ar    1  LIG1        0.0406
     13 C          -2.4040    2.1830    0.0000 C.ar    1  LIG1        0.1795
     14 O          -1.8130    2.9880    0.0000 O.2     1  LIG1       -0.4503
     15 C          -2.1630    0.4420    0.0000 C.ar    1  LIG1        0.0033
     16 C          -3.1460    0.2670    0.0000 C.ar    1  LIG1        0.0032
     17 C          -3.4830   -0.6500    0.0000 C.ar    1  LIG1        0.0369
     18 C          -2.8500   -1.4380    0.0000 C.ar    1  LIG1        0.1387
     19 C          -1.8750   -1.2710    0.0000 C.ar    1  LIG1        0.0369
     20 C          -1.5170   -0.3420    0.0000 C.ar    1  LIG1        0.0032
     21 O          -3.2080   -2.3880    0.0000 O.3     1  LIG1       -0.4714
     22 C          -2.5630   -3.1670    0.0000 C.3     1  LIG1        0.2525
     23 C           0.0040    1.1750    0.0000 C.ar    1  LIG1        0.0058
     24 C           1.7420    0.1830    0.0000 C.3     1  LIG1        0.0310
@<TRIPOS>BOND
     1     1     2   ar
     2     1     6   ar
     3     1    24    1
     4     2     3   ar
     5     2    23   ar
     6     3     4   ar
     7     3     9   ar
     8     4     5   ar
     9     5     6   ar
    10     5     8    2
    11     6     7    1
    12     9    10   ar
    13    10    11   ar
    14    10    14   ar
    15    11    12   ar
    16    11    23   ar
    17    12    13   ar
    18    12    15    1
    19    13    14   ar
    20    15    16   ar
    21    15    20   ar
    22    16    17   ar
    23    17    18   ar
    24    18    19   ar
    25    18    21    1
    26    19    20   ar
    27    21    22    1
