@<TRIPOS>MOLECULE
31415_ChemDiv_5436-0922
 25 28 0 0 0
SMALL
GASTEIGER
Energy = 0

@<TRIPOS>ATOM
      1 C           0.8710    2.1830    0.0000 C.ar    1  LIG1        0.1472
      2 C           0.8710    1.1750    0.0000 C.ar    1  LIG1        0.0305
      3 C           1.7420    0.6750    0.0000 C.ar    1  LIG1       -0.0167
      4 C           2.6080    1.1750    0.0000 C.ar    1  LIG1        0.0503
      5 C           2.6080    2.1830    0.0000 C.ar    1  LIG1        0.3414
      6 O           1.7420    2.6710    0.0000 O.2     1  LIG1       -0.4215
      7 O           3.4790    2.6710    0.0000 O.2     1  LIG1       -0.2448
      8 C           3.4630    0.6750    0.0000 C.3     1  LIG1        0.0375
      9 C           1.7420   -0.3170    0.0000 C.3     1  LIG1        0.0310
     10 C           0.0040    0.6750    0.0000 C.ar    1  LIG1        0.0058
     11 C          -0.8500    1.1750    0.0000 C.ar    1  LIG1        0.0375
     12 C          -0.8500    2.1830    0.0000 C.ar    1  LIG1        0.1443
     13 C           0.0040    2.6710    0.0000 C.ar    1  LIG1        0.0473
     14 C           0.0040    3.6710    0.0000 C.3     1  LIG1        0.0375
     15 O          -1.8130    2.4880    0.0000 O.2     1  LIG1       -0.4506
     16 C          -2.4040    1.6830    0.0000 C.ar    1  LIG1        0.1795
     17 C          -1.8130    0.8710    0.0000 C.ar    1  LIG1        0.0406
     18 C          -2.1630   -0.0580    0.0000 C.ar    1  LIG1        0.0033
     19 C          -3.1460   -0.2380    0.0000 C.ar    1  LIG1        0.0032
     20 C          -3.4830   -1.1500    0.0000 C.ar    1  LIG1        0.0369
     21 C          -2.8500   -1.9380    0.0000 C.ar    1  LIG1        0.1387
     22 C          -1.8750   -1.7710    0.0000 C.ar    1  LIG1        0.0369
     23 C          -1.5170   -0.8420    0.0000 C.ar    1  LIG1        0.0032
     24 O          -3.2080   -2.8880    0.0000 O.3     1  LIG1       -0.4714
     25 C          -2.5630   -3.6670    0.0000 C.3     1  LIG1        0.2525
@<TRIPOS>BOND
     1     1     2   ar
     2     1     6   ar
     3     1    13   ar
     4     2     3   ar
     5     2    10   ar
     6     3     4   ar
     7     3     9    1
     8     4     5   ar
     9     4     8    1
    10     5     6   ar
    11     5     7    2
    12    10    11   ar
    13    11    12   ar
    14    11    17   ar
    15    12    13   ar
    16    12    15   ar
    17    13    14    1
    18    15    16   ar
    19    16    17   ar
    20    17    18    1
    21    18    19   ar
    22    18    23   ar
    23    19    20   ar
    24    20    21   ar
    25    21    22   ar
    26    21    24    1
    27    22    23   ar
    28    24    25    1
