@<TRIPOS>MOLECULE
31422_ChemDiv_5122-2051
 23 25 0 0 0
SMALL
GASTEIGER
Energy = 0

@<TRIPOS>ATOM
      1 C           1.5210    0.0420    0.0000 C.ar    1  LIG1        0.1602
      2 C           0.9290    0.8630    0.0000 C.ar    1  LIG1        0.1292
      3 C          -0.0250    0.5460    0.0000 C.ar    1  LIG1        0.1243
      4 C          -0.0250   -0.4420    0.0000 C.ar    1  LIG1        0.1628
      5 N           0.9290   -0.7580    0.0000 N.ar    1  LIG1       -0.2975
      6 C           1.1830   -1.7250    0.0000 C.3     1  LIG1        0.1088
      7 C           2.1500   -1.9670    0.0000 C.3     1  LIG1        0.0246
      8 C           2.4130   -2.9330    0.0000 C.3     1  LIG1        0.0020
      9 C           3.3630   -3.1880    0.0000 C.3     1  LIG1        0.0001
     10 N          -0.8880   -0.9500    0.0000 N.ar    1  LIG1       -0.2252
     11 C          -1.7580   -0.4420    0.0000 C.ar    1  LIG1        0.1005
     12 C          -1.7580    0.5460    0.0000 C.ar    1  LIG1        0.0990
     13 N          -0.8880    1.0540    0.0000 N.ar    1  LIG1       -0.2405
     14 C          -2.6290    1.0540    0.0000 C.ar    1  LIG1        0.0206
     15 C          -3.4960    0.5460    0.0000 C.ar    1  LIG1        0.0016
     16 C          -3.4960   -0.4420    0.0000 C.ar    1  LIG1        0.0016
     17 C          -2.6290   -0.9500    0.0000 C.ar    1  LIG1        0.0207
     18 C           1.2460    1.8210    0.0000 C.2     1  LIG1        0.3456
     19 O           0.5670    2.5580    0.0000 O.2     1  LIG1       -0.2447
     20 O           2.2130    2.0210    0.0000 O.3     1  LIG1       -0.4453
     21 C           2.5130    2.9750    0.0000 C.3     1  LIG1        0.2089
     22 C           3.4920    3.1920    0.0000 C.3     1  LIG1        0.0513
     23 N           2.5130    0.0420    0.0000 N.pl3   1  LIG1       -0.1086
@<TRIPOS>BOND
     1     1     2   ar
     2     1     5   ar
     3     1    23    1
     4     2     3   ar
     5     2    18    1
     6     3     4   ar
     7     3    13   ar
     8     4     5   ar
     9     4    10   ar
    10     5     6    1
    11     6     7    1
    12     7     8    1
    13     8     9    1
    14    10    11   ar
    15    11    12   ar
    16    11    17   ar
    17    12    13   ar
    18    12    14   ar
    19    14    15   ar
    20    15    16   ar
    21    16    17   ar
    22    18    19    2
    23    18    20    1
    24    20    21    1
    25    21    22    1
