@<TRIPOS>MOLECULE
31424_ChemDiv_6256-4951
 25 27 0 0 0
SMALL
GASTEIGER
Energy = 0

@<TRIPOS>ATOM
      1 C           0.8540    0.3080    0.0000 C.ar    1  LIG1        0.1602
      2 C           0.2790    1.1170    0.0000 C.ar    1  LIG1        0.1292
      3 C          -0.6750    0.8080    0.0000 C.ar    1  LIG1        0.1243
      4 C          -0.6750   -0.1920    0.0000 C.ar    1  LIG1        0.1628
      5 N           0.2790   -0.4960    0.0000 N.ar    1  LIG1       -0.2975
      6 C           0.5790   -1.4500    0.0000 C.3     1  LIG1        0.1088
      7 C           1.5670   -1.6630    0.0000 C.3     1  LIG1        0.0246
      8 C           1.8790   -2.6130    0.0000 C.3     1  LIG1        0.0020
      9 C           2.8540   -2.8130    0.0000 C.3     1  LIG1        0.0001
     10 C           3.1710   -3.7670    0.0000 C.3     1  LIG1        0.0000
     11 C           4.1420   -3.9750    0.0000 C.3     1  LIG1        0.0000
     12 N          -1.5380   -0.6920    0.0000 N.ar    1  LIG1       -0.2252
     13 C          -2.4040   -0.1920    0.0000 C.ar    1  LIG1        0.1005
     14 C          -2.4040    0.8080    0.0000 C.ar    1  LIG1        0.0990
     15 N          -1.5380    1.3080    0.0000 N.ar    1  LIG1       -0.2405
     16 C          -3.2710    1.3080    0.0000 C.ar    1  LIG1        0.0206
     17 C          -4.1460    0.8080    0.0000 C.ar    1  LIG1        0.0016
     18 C          -4.1460   -0.1920    0.0000 C.ar    1  LIG1        0.0016
     19 C          -3.2710   -0.6920    0.0000 C.ar    1  LIG1        0.0207
     20 C           0.5790    2.0710    0.0000 C.2     1  LIG1        0.3456
     21 O          -0.0920    2.8130    0.0000 O.2     1  LIG1       -0.2447
     22 O           1.5630    2.2830    0.0000 O.3     1  LIG1       -0.4453
     23 C           1.8630    3.2380    0.0000 C.3     1  LIG1        0.2089
     24 C           1.1880    3.9790    0.0000 C.3     1  LIG1        0.0513
     25 N           1.8540    0.2960    0.0000 N.pl3   1  LIG1       -0.1086
@<TRIPOS>BOND
     1     1     2   ar
     2     1     5   ar
     3     1    25    1
     4     2     3   ar
     5     2    20    1
     6     3     4   ar
     7     3    15   ar
     8     4     5   ar
     9     4    12   ar
    10     5     6    1
    11     6     7    1
    12     7     8    1
    13     8     9    1
    14     9    10    1
    15    10    11    1
    16    12    13   ar
    17    13    14   ar
    18    13    19   ar
    19    14    15   ar
    20    14    16   ar
    21    16    17   ar
    22    17    18   ar
    23    18    19   ar
    24    20    21    2
    25    20    22    1
    26    22    23    1
    27    23    24    1
