@<TRIPOS>MOLECULE
31421_ChemDiv_5436-1017
 22 25 0 0 0
SMALL
GASTEIGER
Energy = 0

@<TRIPOS>ATOM
      1 C          -1.8040    0.9790    0.0000 C.ar    1  LIG1        0.0406
      2 C          -0.8580    1.2960    0.0000 C.ar    1  LIG1        0.0378
      3 C          -0.8580    2.2960    0.0000 C.ar    1  LIG1        0.1485
      4 O          -1.8040    2.6040    0.0000 O.2     1  LIG1       -0.4503
      5 C          -2.4080    1.7960    0.0000 C.ar    1  LIG1        0.1795
      6 C           0.0170    2.7880    0.0000 C.ar    1  LIG1        0.0750
      7 C           0.8710    2.2960    0.0000 C.ar    1  LIG1        0.1514
      8 C           0.8710    1.2960    0.0000 C.ar    1  LIG1        0.0311
      9 C           1.7330    0.7830    0.0000 C.ar    1  LIG1       -0.0125
     10 C           2.6080    1.2960    0.0000 C.ar    1  LIG1        0.0781
     11 C           2.6080    2.2960    0.0000 C.ar    1  LIG1        0.3456
     12 O           1.7330    2.7880    0.0000 O.2     1  LIG1       -0.4209
     13 O           3.4790    2.7880    0.0000 O.2     1  LIG1       -0.2445
     14 C           1.7330   -0.2080    0.0000 C.3     1  LIG1        0.0313
     15 C           0.0170    0.7830    0.0000 C.ar    1  LIG1        0.0059
     16 C          -2.1630    0.0500    0.0000 C.ar    1  LIG1        0.0032
     17 C          -3.1420   -0.1250    0.0000 C.ar    1  LIG1        0.0006
     18 C          -3.4830   -1.0420    0.0000 C.ar    1  LIG1        0.0067
     19 C          -2.8630   -1.8330    0.0000 C.ar    1  LIG1        0.0346
     20 C          -1.8670   -1.6500    0.0000 C.ar    1  LIG1        0.0067
     21 C          -1.5250   -0.7330    0.0000 C.ar    1  LIG1        0.0006
     22 BR         -3.2000   -2.7830    0.0000 Br      1  LIG1       -0.0490
@<TRIPOS>BOND
     1     1     2   ar
     2     1     5   ar
     3     1    16    1
     4     2     3   ar
     5     2    15   ar
     6     3     4   ar
     7     3     6   ar
     8     4     5   ar
     9     6     7   ar
    10     7     8   ar
    11     7    12   ar
    12     8     9   ar
    13     8    15   ar
    14     9    10   ar
    15     9    14    1
    16    10    11   ar
    17    11    12   ar
    18    11    13    2
    19    16    17   ar
    20    16    21   ar
    21    17    18   ar
    22    18    19   ar
    23    19    20   ar
    24    19    22    1
    25    20    21   ar
