@<TRIPOS>MOLECULE
31420_ChemDiv_5122-1790
 28 32 0 0 0
SMALL
GASTEIGER
Energy = 0

@<TRIPOS>ATOM
      1 N           1.4130    0.4830    0.0000 N.ar    1  LIG1       -0.2932
      2 C           1.9920    1.2790    0.0000 C.ar    1  LIG1        0.1604
      3 C           1.4130    2.0960    0.0000 C.ar    1  LIG1        0.1292
      4 C           0.4670    1.7830    0.0000 C.ar    1  LIG1        0.1243
      5 C           0.4670    0.7830    0.0000 C.ar    1  LIG1        0.1631
      6 N          -0.4040    0.2880    0.0000 N.ar    1  LIG1       -0.2251
      7 C          -1.2710    0.7830    0.0000 C.ar    1  LIG1        0.1005
      8 C          -1.2710    1.7830    0.0000 C.ar    1  LIG1        0.0990
      9 N          -0.4040    2.2920    0.0000 N.ar    1  LIG1       -0.2405
     10 C          -2.1250    2.2920    0.0000 C.ar    1  LIG1        0.0206
     11 C          -3.0080    1.7830    0.0000 C.ar    1  LIG1        0.0016
     12 C          -3.0080    0.7830    0.0000 C.ar    1  LIG1        0.0016
     13 C          -2.1250    0.2880    0.0000 C.ar    1  LIG1        0.0207
     14 C           1.7290    3.0330    0.0000 C.2     1  LIG1        0.3457
     15 O           1.0500    3.7960    0.0000 O.2     1  LIG1       -0.2447
     16 O           2.6920    3.2540    0.0000 O.3     1  LIG1       -0.4412
     17 C           3.0040    4.2170    0.0000 C.3     1  LIG1        0.2560
     18 N           3.0040    1.2790    0.0000 N.pl3   1  LIG1       -0.1086
     19 C           1.6790   -0.4790    0.0000 C.3     1  LIG1        0.1356
     20 C           0.9670   -1.1920    0.0000 C.ar    1  LIG1        0.0037
     21 C           1.2500   -2.1460    0.0000 C.ar    1  LIG1        0.0378
     22 C           0.5330   -2.8460    0.0000 C.ar    1  LIG1        0.1762
     23 C          -0.4290   -2.6040    0.0000 C.ar    1  LIG1        0.1764
     24 O          -0.9710   -3.4460    0.0000 O.3     1  LIG1       -0.4346
     25 C          -0.3170   -4.2170    0.0000 C.3     1  LIG1        0.4294
     26 O           0.6040   -3.8540    0.0000 O.3     1  LIG1       -0.4346
     27 C          -0.6790   -1.6420    0.0000 C.ar    1  LIG1        0.0399
     28 C           0.0040   -0.9420    0.0000 C.ar    1  LIG1        0.0009
@<TRIPOS>BOND
     1     1     2   ar
     2     1     5   ar
     3     1    19    1
     4     2     3   ar
     5     2    18    1
     6     3     4   ar
     7     3    14    1
     8     4     5   ar
     9     4     9   ar
    10     5     6   ar
    11     6     7   ar
    12     7     8   ar
    13     7    13   ar
    14     8     9   ar
    15     8    10   ar
    16    10    11   ar
    17    11    12   ar
    18    12    13   ar
    19    14    15    2
    20    14    16    1
    21    16    17    1
    22    19    20    1
    23    20    21   ar
    24    20    28   ar
    25    21    22   ar
    26    22    23   ar
    27    22    26    1
    28    23    24    1
    29    23    27   ar
    30    24    25    1
    31    25    26    1
    32    27    28   ar
